data_mof_unit_47545.cif
_audit_creation_date              2012-12-11T15:48:35-0500
_audit_creation_method            fapswitch 2.2
_symmetry_space_group_name_H-M    P1
_symmetry_Int_Tables_number       1
_space_group_crystal_system       triclinic
_cell_length_a                    10.941773
_cell_length_b                    10.996452
_cell_length_c                    18.744746
_cell_angle_alpha                 90.280887
_cell_angle_beta                  90.078985
_cell_angle_gamma                 60.130661
_cell_volume                      1955.75851302

loop_
_atom_site_label
_atom_site_type_symbol
_atom_type_description
_atom_site_fract_x
_atom_site_fract_y
_atom_site_fract_z
_atom_type_partial_charge
C1    C     C_R   0.243056 0.643933 0.611144 0.552843
C2    C     C_3   0.673945 0.546522 0.800299 -0.050542
C3    C     C_3   0.698265 0.672360 0.812489 0.025762
C4    C     C_3   0.670045 0.645878 0.676359 0.039652
C5    C     C_3   0.817588 0.625836 0.690704 -0.237125
C6    C     C_3   0.651157 0.535184 0.719781 -0.213011
C7    C     C_R   0.690622 0.135774 0.818767 0.065907
C8    C     C_R   0.795226 0.144144 0.780472 0.045553
C9    C     C_R   0.787140 0.158699 0.706187 0.019182
C10   C     C_R   0.583549 0.128861 0.706470 -0.193162
C11   C     C_R   0.582567 0.131932 0.779693 -0.104240
C12   C     C_R   0.653981 0.621828 0.600841 0.543480
C13   C     C_3   0.947091 0.039452 0.779290 -0.259606
C14   C     C_3   0.940892 0.055577 0.699226 -0.267738
C15   C     C_R   0.679333 0.152624 0.668796 0.003210
C16   C     C_R   0.185312 0.664838 0.836610 0.083938
C17   C     C_R   0.156852 0.575589 0.795519 0.023659
C18   C     C_R   0.169696 0.570641 0.721717 -0.068244
C19   C     C_R   0.229617 0.753264 0.727906 -0.172121
C20   C     C_R   0.226671 0.750924 0.802002 -0.170624
C21   C     C_3   0.228772 0.420388 0.800920 0.232648
C22   C     C_3   0.244359 0.414592 0.720511 -0.215608
C23   C     C_R   0.631140 0.223565 0.600908 0.553418
C24   C     C_R   0.204920 0.660297 0.686504 0.010158
C25   C     C_R   0.711363 0.714317 0.182129 0.002382
C26   C     C_R   0.824428 0.622943 0.224846 0.002003
C27   C     C_R   0.806742 0.605764 0.295923 0.062330
C28   C     C_R   0.564295 0.788402 0.289054 -0.155732
C29   C     C_R   0.582794 0.805404 0.216198 -0.152926
C30   C     C_3   0.935452 0.472973 0.215086 -0.258043
C31   C     C_3   0.915766 0.453500 0.293447 -0.249743
C32   C     C_R   0.673691 0.678101 0.327866 0.036848
C33   C     C_R   0.662857 0.138684 0.180344 -0.031573
C34   C     C_R   0.221533 0.648657 0.401998 0.615157
C35   C     C_R   0.565256 0.120774 0.219250 0.017109
C36   C     C_R   0.563862 0.125549 0.292127 0.027597
C37   C     C_R   0.783458 0.129455 0.292127 0.028268
C38   C     C_R   0.777829 0.133630 0.217324 -0.185950
C39   C     C_3   0.409130 0.190491 0.212701 -0.270589
C40   C     C_3   0.405428 0.195264 0.293446 -0.261683
C41   C     C_R   0.662868 0.147191 0.329638 0.039063
C42   C     C_R   0.121016 0.683249 0.186026 -0.016756
C43   C     C_R   0.251826 0.580314 0.209054 -0.042295
C44   C     C_R   0.280269 0.567362 0.280704 -0.060083
C45   C     C_R   0.644556 0.625385 0.393515 0.537402
C46   C     C_R   0.040063 0.743928 0.308084 0.350147
C47   C     C_R   0.011898 0.759934 0.235264 -0.101949
C48   C     C_3   0.394555 0.556823 0.190119 -0.262497
C49   C     C_3   0.426426 0.541326 0.269368 -0.256658
C50   C     C_R   0.178207 0.655177 0.330065 0.047650
C51   C     C_R   0.704783 0.093946 0.893637 0.591093
C52   C     C_R   0.722880 0.688021 0.888435 0.559050
C53   C     C_R   0.120054 0.705199 0.906617 0.552532
C54   C     C_R   0.676546 0.104169 0.105223 0.553725
C55   C     C_R   0.732611 0.717769 0.105362 0.562522
C56   C     C_R   0.619998 0.223973 0.396670 0.564602
C57   C     C_R   0.091637 0.710234 0.112516 0.547774
C58   C     C_3   0.567727 0.805801 0.782992 -0.261032
C59   C     C_3   0.558993 0.795101 0.701674 -0.249895
C60   C     C_3   0.829288 0.653009 0.769942 -0.218918
Cr1   Cr    Cr6+3 0.392960 0.397920 0.502240 1.015299
Cr2   Cr    Cr6+3 0.398340 0.708480 0.501250 1.031694
Cr3   Cr    Cr6+3 0.708670 0.393570 0.496460 1.056034
Cr4   Cr    Cr6+3 0.937650 0.938540 0.007610 1.015347
Cr5   Cr    Cr6+3 0.625330 0.937370 0.994520 1.029400
Cr6   Cr    Cr6+3 0.937940 0.625230 0.001190 1.040273
H1    H     H_    0.576619 0.898888 0.795581 0.138590
H2    H     H_    0.725208 0.427973 0.699747 0.167019
H3    H     H_    0.926612 0.563772 0.791199 0.165228
H4    H     H_    0.900665 0.517171 0.676621 0.159820
H5    H     H_    0.498529 0.123237 0.679819 0.130895
H6    H     H_    0.498084 0.124458 0.805301 0.188983
H7    H     H_    0.963512 0.936283 0.796798 0.137701
H8    H     H_    0.012948 0.076717 0.806201 0.179006
H9    H     H_    0.000930 0.105572 0.679287 0.159430
H10   H     H_    0.961625 0.958950 0.669897 0.145288
H11   H     H_    0.251863 0.828375 0.703189 0.135096
H12   H     H_    0.469506 0.820462 0.808439 0.118452
H13   H     H_    0.243274 0.826219 0.831673 0.127666
H14   H     H_    0.159838 0.380882 0.821411 0.150284
H15   H     H_    0.354180 0.371199 0.701950 0.192245
H16   H     H_    0.182310 0.373364 0.693041 0.095930
H17   H     H_    0.460535 0.850956 0.312320 0.131349
H18   H     H_    0.493736 0.881231 0.185655 0.137910
H19   H     H_    0.040477 0.460654 0.203045 0.146479
H20   H     H_    0.902162 0.413663 0.179421 0.171621
H21   H     H_    0.870318 0.384195 0.301892 0.184468
H22   H     H_    0.451140 0.820551 0.687049 0.138549
H23   H     H_    0.009682 0.429301 0.326429 0.148894
H24   H     H_    0.866042 0.126986 0.187833 0.188034
H25   H     H_    0.372464 0.121040 0.189830 0.147592
H26   H     H_    0.362586 0.295277 0.187502 0.148117
H27   H     H_    0.351286 0.304099 0.314366 0.171075
H28   H     H_    0.368550 0.126521 0.316953 0.138342
H29   H     H_    0.906784 0.834350 0.217085 0.131248
H30   H     H_    0.391301 0.651103 0.166622 0.158513
H31   H     H_    0.578939 0.873736 0.675143 0.123185
H32   H     H_    0.457926 0.457869 0.159623 0.146405
H33   H     H_    0.508020 0.433634 0.284542 0.134864
H34   H     H_    0.441079 0.626380 0.291966 0.149411
H35   H     H_    0.839817 0.748269 0.775886 0.100871
H36   H     H_    0.835706 0.699248 0.657650 0.117399
H37   H     H_    0.575585 0.568897 0.828880 0.128448
H38   H     H_    0.543082 0.551989 0.711162 0.112734
O1    O     O_R   0.507380 0.255700 0.581440 -0.534426
O2    O     O_R   0.524480 0.695810 0.424040 -0.512515
O3    O     O_R   0.736390 0.504290 0.414790 -0.518779
O4    O     O_R   0.691300 0.277290 0.422170 -0.476038
O5    O     O_3   0.499990 0.499990 0.499980 -0.269998
O6    O     O_R   0.089400 0.825690 0.930570 -0.537519
O7    O     O_R   0.818460 0.054440 0.929850 -0.507667
O8    O     O_R   0.606060 0.077150 0.915510 -0.501134
O9    O     O_R   0.646550 0.806680 0.917570 -0.517704
O10   O     O_R   0.837170 0.593410 0.915250 -0.487773
O11   O     O_R   0.065200 0.635530 0.931570 -0.493425
O12   O     O_R   0.280320 0.527350 0.578930 -0.501852
O13   O     O_R   0.068260 0.828890 0.091840 -0.509144
O14   O     O_R   0.798870 0.057410 0.079340 -0.507568
O15   O     O_R   0.584930 0.080350 0.076780 -0.510010
O16   O     O_R   0.626960 0.809650 0.067060 -0.502307
O17   O     O_R   0.816040 0.596610 0.076510 -0.506788
O18   O     O_R   0.045610 0.638500 0.081060 -0.519151
O19   O     O_3   0.833640 0.833710 0.001100 -0.294063
O20   O     O_R   0.260510 0.739590 0.584590 -0.524063
O21   O     O_R   0.532300 0.695080 0.573820 -0.511045
O22   O     O_R   0.744840 0.503500 0.576370 -0.522971
O23   O     O_R   0.699120 0.276560 0.571960 -0.490655
O24   O     O_R   0.498940 0.256500 0.419860 -0.531310
O25   O     O_R   0.272500 0.528080 0.429150 -0.518824
O26   O     O_R   0.252060 0.740380 0.423010 -0.483255
F1    F     F_    0.354565 0.370042 0.837338 -0.639520
C61   C     C_2   0.916163 0.103372 0.328006 0.608271
O27   O     O_2   0.938441 0.066287 0.390334 -0.442088
O28   O     O_R   0.020308 0.112502 0.289075 -0.749287
H39   H     H_    0.106599 0.089650 0.318785 0.329302
F2    F     F_    0.935906 0.817484 0.356076 -0.623705
C62   C     C_2   0.791648 0.411083 0.830470 0.575558
O29   O     O_2   0.907029 0.350347 0.801344 -0.580576
O30   O     O_R   0.769228 0.359356 0.894099 -0.672696
H40   H     H_    0.857530 0.273343 0.911558 0.341218

loop_
_geom_bond_atom_site_label_1
_geom_bond_atom_site_label_2
_ccdc_geom_bond_type
C53   O6    A    
C44   C49   S    
C55   O17   A    
C51   O8    A    
C32   C45   S    
Cr2   O26   S    
C19   C20   A    
C40   H27   S    
C9    C14   S    
Cr1   O5    S    
Cr2   O20   S    
C5    H36   S    
C7    C8    A    
Cr5   O8    S    
C52   O9    A    
C7    C11   A    
C62   O30   S    
C26   C27   A    
C8    C13   S    
C18   C24   A    
C22   H16   S    
C23   O23   A    
C28   C29   A    
C10   C15   A    
C30   C31   S    
C3    C52   S    
C12   O22   A    
C23   O1    A    
Cr4   O14   S    
C4    C59   S    
C19   H11   S    
C16   C53   S    
C21   F1    S    
C56   O24   A    
C57   O18   A    
C59   H22   S    
C56   O4    A    
C35   C36   A    
C34   O25   A    
C61   O27   D    
C31   H23   S    
Cr6   O18   S    
C1    O12   A    
C6    H38   S    
C30   H20   S    
Cr1   O1    S    
C43   C48   S    
C20   H13   S    
Cr1   O25   S    
C3    C60   S    
C15   C23   S    
C13   C14   S    
C28   H17   S    
C37   C41   A    
C36   C41   A    
C2    C6    S    
Cr6   O10   S    
C42   C57   S    
C39   H25   S    
C55   O16   A    
C25   C29   A    
C54   O15   A    
C34   C50   S    
C31   H21   S    
Cr6   O11   S    
C27   C31   S    
C22   H15   S    
C28   C32   A    
C29   H18   S    
C4    C6    S    
C39   C40   S    
C11   H6    S    
C16   C17   A    
Cr4   O7    S    
C12   O21   A    
C25   C26   A    
C17   C21   S    
Cr4   O13   S    
C14   H10   S    
Cr3   O5    S    
C35   C39   S    
C43   C44   A    
C41   C56   S    
C37   C38   A    
C49   H33   S    
Cr4   O6    S    
C36   C40   S    
C16   C20   A    
Cr1   O12   S    
C17   C18   A    
C8    C9    A    
Cr6   O17   S    
C30   H19   S    
C48   C49   S    
C13   H7    S    
C26   C30   S    
C54   O14   A    
C59   H31   S    
C4    C12   S    
C42   C43   A    
Cr3   O3    S    
C60   H35   S    
C39   H26   S    
C45   O2    A    
C57   O13   A    
C44   C50   A    
C33   C54   S    
C46   C50   A    
C46   C47   A    
C51   O7    A    
C48   H30   S    
C5    C60   S    
C27   C32   A    
C18   C22   S    
C2    C62   S    
Cr5   O9    S    
C25   C55   S    
C40   H28   S    
C4    C5    S    
C5    H4    S    
Cr2   O21   S    
O30   H40   S    
O28   H39   S    
Cr2   O2    S    
C52   O10   A    
Cr4   O19   S    
C48   H32   S    
C62   O29   D    
C38   H24   S    
C33   C38   A    
C37   C61   S    
C14   H9    S    
C19   C24   A    
C58   C59   S    
C1    O20   A    
C7    C51   S    
C10   H5    S    
C49   H34   S    
Cr2   O5    S    
C60   H3    S    
C21   H14   S    
C6    H2    S    
C33   C35   A    
Cr5   O16   S    
C2    C3    S    
Cr1   O24   S    
C42   C47   A    
Cr5   O19   S    
C9    C15   A    
C2    H37   S    
Cr5   O15   S    
Cr3   O22   S    
C10   C11   A    
C58   H12   S    
C46   F2    S    
C3    C58   S    
C53   O11   A    
C58   H1    S    
C13   H8    S    
C34   O26   A    
C1    C24   S    
C61   O28   S    
C47   H29   S    
Cr6   O19   S    
Cr3   O4    S    
C21   C22   S    
Cr3   O23   S    
C45   O3    A    
