data_mof_unit_34987.cif
_audit_creation_date              2012-12-10T19:12:18-0500
_audit_creation_method            fapswitch 2.2
_symmetry_space_group_name_H-M    P1
_symmetry_Int_Tables_number       1
_space_group_crystal_system       triclinic
_cell_length_a                    7.782952
_cell_length_b                    9.091345
_cell_length_c                    17.192391
_cell_angle_alpha                 89.456445
_cell_angle_beta                  93.231343
_cell_angle_gamma                 90.031333
_cell_volume                      1214.50185676

loop_
_atom_site_label
_atom_site_type_symbol
_atom_type_description
_atom_site_fract_x
_atom_site_fract_y
_atom_site_fract_z
_atom_type_partial_charge
C1    C     C_R   0.499928 0.220024 0.499847 0.884512
C2    C     C_R   0.500072 0.779976 0.500154 0.884527
C3    C     C_R   0.519934 0.495409 0.650919 0.898209
C4    C     C_R   0.480067 0.504597 0.349081 0.898232
C5    C     C_R   0.526379 0.486035 0.736301 -0.130613
C6    C     C_R   0.473630 0.513996 0.263700 -0.130615
C7    C     C_R   0.414109 0.575804 0.776045 0.101941
C8    C     C_R   0.585905 0.424238 0.223952 0.101950
C9    C     C_R   0.406553 0.563710 0.856822 0.131449
C10   C     C_R   0.593507 0.436379 0.143180 0.131464
C11   C     C_R   0.517464 0.464793 0.899685 0.235803
C12   C     C_R   0.482622 0.535325 0.100320 0.235803
C13   C     C_R   0.630141 0.374191 0.859848 -0.110099
C14   C     C_R   0.369950 0.625925 0.140162 -0.110119
C15   C     C_R   0.634833 0.383918 0.777852 -0.126001
C16   C     C_R   0.365215 0.616152 0.222155 -0.125994
C17   C     C_1   0.499947 0.065375 0.499945 -0.118541
C18   C     C_1   0.500054 0.934625 0.500056 -0.118531
Cu1   Cu    Cu3+1 0.669080 0.500010 0.500000 1.051821
Cu2   Cu    Cu3+1 0.330920 0.499990 0.500000 1.051831
N1    N     N_1   0.076820 0.499970 0.500010 -0.041347
N2    N     N_1   0.923180 0.500030 0.499990 -0.041351
N3    N     N_2   0.505575 0.442145 0.981230 -0.253158
N4    N     N_2   0.494517 0.557983 0.018776 -0.253174
O1    O     O_R   0.642760 0.288400 0.500000 -0.555130
O2    O     O_R   0.357240 0.711600 0.500000 -0.555117
O3    O     O_R   0.357190 0.288380 0.500000 -0.589861
O4    O     O_R   0.642810 0.711620 0.500000 -0.589866
O5    O     O_R   0.658410 0.498660 0.613920 -0.580426
O6    O     O_R   0.341590 0.501340 0.386080 -0.580405
O7    O     O_R   0.372840 0.498650 0.613930 -0.570773
O8    O     O_R   0.627160 0.501350 0.386070 -0.570779
N5    N     N_3   0.693238 0.319039 0.266475 -0.559324
H1    H     H_    0.666009 0.214391 0.244256 0.250420
H2    H     H_    0.821938 0.343717 0.257560 0.250824
N6    N     N_3   0.306744 0.680971 0.733515 -0.559319
H3    H     H_    0.333981 0.785634 0.755712 0.250410
H4    H     H_    0.178053 0.656295 0.742452 0.250815
N7    N     N_3   0.722410 0.352668 0.107051 -0.592499
H5    H     H_    0.662518 0.271511 0.072556 0.257565
H6    H     H_    0.795041 0.423519 0.073703 0.227015
N8    N     N_3   0.277677 0.647450 0.892952 -0.592501
H7    H     H_    0.337597 0.728614 0.927433 0.257551
H8    H     H_    0.205052 0.576621 0.926315 0.227020
C19   C     C_2   0.739956 0.266561 0.905039 0.363284
H9    H     H_    0.810826 0.300342 0.957695 0.077340
O9    O     O_2   0.750110 0.138926 0.884296 -0.520433
C20   C     C_2   0.260195 0.733610 0.094978 0.363299
H10   H     H_    0.189345 0.699882 0.042308 0.077353
O10   O     O_2   0.250074 0.861232 0.115746 -0.520442
C21   C     C_2   0.752436 0.285879 0.736815 0.478442
H11   H     H_    0.881916 0.265603 0.761313 0.086820
O11   O     O_2   0.703522 0.221898 0.677513 -0.547258
C22   C     C_2   0.247610 0.714184 0.263195 0.478401
H12   H     H_    0.118153 0.734509 0.238682 0.086836
O12   O     O_2   0.296500 0.778111 0.322517 -0.547263

loop_
_geom_bond_atom_site_label_1
_geom_bond_atom_site_label_2
_ccdc_geom_bond_type
C3    O7    A    
N3    N4    D    
C22   O12   D    
Cu2   O3    S    
C15   C21   S    
C2    C18   S    
C11   C13   A    
C7    N6    S    
C12   N4    S    
C1    C17   S    
Cu1   Cu2   S    
N6    H4    S    
N5    H1    S    
C2    O2    A    
Cu2   O6    S    
C19   H9    S    
C1    O1    A    
Cu1   O4    S    
C9    C11   A    
C3    O5    A    
C9    N8    S    
C4    O8    A    
N8    H8    S    
Cu1   O8    S    
C10   C12   A    
C20   O10   D    
N6    H3    S    
N5    H2    S    
C12   C14   A    
C17   C18   T    
C5    C7    A    
C8    N5    S    
C13   C15   A    
Cu1   O1    S    
C16   C22   S    
C5    C15   A    
C4    C6    S    
C2    O4    A    
N8    H7    S    
C6    C16   A    
C21   H11   S    
Cu1   O5    S    
C7    C9    A    
Cu1   N2    S    
Cu2   N1    S    
C13   C19   S    
N7    H6    S    
C19   O9    D    
C11   N3    S    
N7    H5    S    
C1    O3    A    
C14   C20   S    
C22   H12   S    
C20   H10   S    
C6    C8    A    
C21   O11   D    
C14   C16   A    
N1    N2    T    
C8    C10   A    
C4    O6    A    
Cu2   O2    S    
C10   N7    S    
C3    C5    S    
Cu2   O7    S    
