data_mof_unit_30958.cif
_audit_creation_date              2012-10-26T20:37:08-0400
_audit_creation_method            fapswitch 2.2
_symmetry_space_group_name_H-M    P1
_symmetry_Int_Tables_number       1
_space_group_crystal_system       triclinic
_cell_length_a                    10.962773
_cell_length_b                    19.286896
_cell_length_c                    18.102177
_cell_angle_alpha                 87.83002
_cell_angle_beta                  88.321537
_cell_angle_gamma                 92.631533
_cell_volume                      3818.8612664

loop_
_atom_site_label
_atom_site_type_symbol
_atom_type_description
_atom_site_fract_x
_atom_site_fract_y
_atom_site_fract_z
_atom_type_partial_charge
C1    C     C_R   0.503031 0.367478 0.501078 0.518949
C2    C     C_R   0.575645 0.820133 0.449418 0.027705
C3    C     C_R   0.508257 0.146063 0.504845 -0.023260
C4    C     C_R   0.491743 0.853937 0.495155 -0.023261
C5    C     C_R   0.595917 0.185420 0.459470 0.070373
C6    C     C_R   0.404084 0.814580 0.540530 0.070373
C7    C     C_R   0.596707 0.258986 0.458202 -0.015348
C8    C     C_R   0.403293 0.741014 0.541798 -0.015348
C9    C     C_R   0.510620 0.291748 0.503071 -0.056528
C10   C     C_R   0.489380 0.708252 0.496929 -0.056528
C11   C     C_R   0.496430 0.930098 0.496874 0.394832
C12   C     C_R   0.496969 0.632522 0.498922 0.518949
C13   C     C_R   0.503570 0.069902 0.503126 0.394832
C14   C     C_R   0.564135 0.551501 0.273973 0.157043
C15   C     C_R   0.435865 0.448498 0.726027 0.157043
C16   C     C_R   0.262028 0.501806 0.501084 0.541185
C17   C     C_R   0.737972 0.498194 0.498916 0.541185
C18   C     C_R   0.568964 0.550299 0.195140 0.056100
C19   C     C_R   0.431036 0.449701 0.804860 0.056100
C20   C     C_R   0.500092 0.498779 0.159094 -0.015859
C21   C     C_R   0.499908 0.501221 0.840905 -0.015859
C22   C     C_R   0.431234 0.449049 0.203651 -0.147588
C23   C     C_R   0.871852 0.495343 0.496996 0.005737
C24   C     C_R   0.568766 0.550951 0.796349 -0.147588
C25   C     C_R   0.434227 0.449758 0.281571 0.048491
C26   C     C_R   0.565773 0.550242 0.718429 0.048491
C27   C     C_R   0.499791 0.503160 0.924162 0.379361
C28   C     C_R   0.500209 0.496840 0.075838 0.379361
C29   C     C_R   0.247919 0.678778 0.334657 0.005995
C30   C     C_R   0.752080 0.321223 0.665343 0.005996
C31   C     C_R   0.183844 0.638180 0.390403 -0.093014
C32   C     C_R   0.816155 0.361820 0.609597 -0.093013
C33   C     C_R   0.141511 0.569980 0.378532 -0.015765
C34   C     C_R   0.128148 0.504656 0.503004 0.005737
C35   C     C_R   0.858488 0.430020 0.621468 -0.015765
C36   C     C_R   0.164263 0.540724 0.309096 0.066757
C37   C     C_R   0.835738 0.459276 0.690904 0.066757
C38   C     C_R   0.226366 0.581806 0.253031 -0.083831
C39   C     C_R   0.773634 0.418194 0.746969 -0.083831
C40   C     C_R   0.268388 0.650468 0.264513 -0.021510
C41   C     C_R   0.731612 0.349532 0.735487 -0.021510
C42   C     C_R   0.942846 0.524419 0.435799 0.011322
C43   C     C_R   0.057154 0.475580 0.564201 0.011322
C44   C     C_2   0.328636 0.691998 0.201547 0.282162
C45   C     C_R   0.929914 0.468529 0.559999 -0.014169
C46   C     C_2   0.671364 0.308002 0.798454 0.282162
C47   C     C_2   0.686622 0.302411 0.411011 0.312183
C48   C     C_2   0.313378 0.697589 0.588989 0.312184
C49   C     C_2   0.623730 0.611340 0.309545 0.305438
C50   C     C_2   0.376270 0.388660 0.690454 0.305439
C51   C     C_2   0.646296 0.603122 0.150921 0.645668
C52   C     C_2   0.353704 0.396878 0.849079 0.645668
C53   C     C_2   0.291890 0.750243 0.351446 0.230076
C54   C     C_2   0.708108 0.249758 0.648554 0.230076
C55   C     C_2   0.126151 0.467736 0.293192 0.601246
C56   C     C_R   0.070086 0.531471 0.440001 -0.014169
C57   C     C_2   0.873850 0.532264 0.706808 0.601246
C58   C     C_2   0.887965 0.547857 0.365933 0.243829
C59   C     C_2   0.112035 0.452142 0.634066 0.243829
C60   C     C_2   0.334841 0.141821 0.602828 0.615364
C61   C     C_2   0.665158 0.858178 0.397172 0.615364
C62   C     C_2   0.687687 0.149225 0.414830 0.657194
C63   C     C_2   0.312314 0.850775 0.585171 0.657194
C64   C     C_R   0.426582 0.252310 0.548382 -0.124672
C65   C     C_R   0.573418 0.747690 0.451617 -0.124672
C66   C     C_R   0.424355 0.179867 0.550582 0.027705
Cu1   Cu    Cu3+1 0.499990 0.499980 0.573360 0.982289
Cu2   Cu    Cu3+1 0.500010 0.500020 0.426640 0.982289
H1    H     H_    0.376920 0.408701 0.178236 0.162932
H2    H     H_    0.639002 0.721330 0.418250 0.187165
H3    H     H_    0.357894 0.745847 0.206842 0.127781
H4    H     H_    0.642104 0.254154 0.793159 0.127782
H5    H     H_    0.721625 0.351992 0.429882 0.124090
H6    H     H_    0.278375 0.648008 0.570119 0.124091
H7    H     H_    0.675502 0.604127 0.358550 0.141857
H8    H     H_    0.324498 0.395873 0.641450 0.141857
H9    H     H_    0.657401 0.676269 0.068050 0.362571
H10   H     H_    0.342600 0.323731 0.931950 0.362571
H11   H     H_    0.369323 0.775647 0.321347 0.123848
H12   H     H_    0.623079 0.591299 0.821764 0.162932
H13   H     H_    0.630674 0.224354 0.678653 0.123849
H14   H     H_    0.093151 0.396969 0.215971 0.368815
H15   H     H_    0.906850 0.603032 0.784028 0.368815
H16   H     H_    0.896965 0.602229 0.347974 0.116687
H17   H     H_    0.103035 0.397771 0.652026 0.116688
H18   H     H_    0.174959 0.143001 0.660969 0.369626
H19   H     H_    0.825040 0.856999 0.339030 0.369626
H20   H     H_    0.720041 0.077053 0.339786 0.376288
H21   H     H_    0.279961 0.922946 0.660214 0.376289
H22   H     H_    0.381676 0.410177 0.314200 0.168657
H23   H     H_    0.618324 0.589823 0.685800 0.168657
H24   H     H_    0.166613 0.659626 0.444014 0.154057
H25   H     H_    0.833386 0.340374 0.555987 0.154056
H26   H     H_    0.242888 0.559856 0.199663 0.206634
H27   H     H_    0.757112 0.440144 0.800337 0.206634
H28   H     H_    0.360998 0.278670 0.581750 0.187164
N1    N     N_R   0.600629 0.033593 0.524177 -0.144633
N2    N     N_R   0.606114 0.506883 0.034564 -0.155135
N3    N     N_R   0.399371 0.966407 0.475824 -0.144633
N4    N     N_R   0.597022 0.964729 0.521217 -0.146513
N5    N     N_R   0.402978 0.035271 0.478783 -0.146513
N6    N     N_R   0.500010 0.500050 0.316380 -0.261410
N7    N     N_R   0.499990 0.499950 0.683620 -0.261410
N8    N     N_R   0.393940 0.490071 0.039389 -0.162374
N9    N     N_R   0.606060 0.509928 0.960610 -0.162374
N10   N     N_R   0.393886 0.493117 0.965436 -0.155136
O1    O     O_R   0.500010 0.400130 0.561970 -0.526173
O2    O     O_2   0.655281 0.333433 0.858526 -0.430144
O3    O     O_2   0.719018 0.284664 0.349739 -0.418539
O4    O     O_2   0.280984 0.715336 0.650262 -0.418540
O5    O     O_2   0.612691 0.670520 0.285013 -0.517106
O6    O     O_2   0.387310 0.329480 0.714987 -0.517107
O7    O     O_2   0.754226 0.612464 0.164739 -0.445348
O8    O     O_R   0.595590 0.642200 0.093932 -0.617056
O9    O     O_2   0.245775 0.387536 0.835261 -0.445347
O10   O     O_R   0.404410 0.357800 0.906068 -0.617057
O11   O     O_2   0.242097 0.781740 0.400271 -0.467685
O12   O     O_R   0.499990 0.599870 0.438030 -0.526173
O13   O     O_2   0.757902 0.218260 0.599730 -0.467684
O14   O     O_2   0.103429 0.424563 0.343504 -0.481974
O15   O     O_R   0.118569 0.447874 0.219879 -0.671789
O16   O     O_2   0.896571 0.575438 0.656496 -0.481974
O17   O     O_R   0.881432 0.552127 0.780120 -0.671788
O18   O     O_2   0.841188 0.505647 0.325462 -0.437480
O19   O     O_2   0.158812 0.494352 0.674538 -0.437480
O20   O     O_2   0.355187 0.084006 0.628283 -0.463738
O21   O     O_R   0.228048 0.173426 0.624843 -0.655949
O22   O     O_2   0.644812 0.915994 0.371717 -0.463738
O23   O     O_R   0.500020 0.400160 0.438070 -0.496439
O24   O     O_R   0.771951 0.826573 0.375157 -0.655949
O25   O     O_2   0.796691 0.163349 0.421158 -0.412371
O26   O     O_R   0.649200 0.098429 0.366402 -0.637428
O27   O     O_2   0.203309 0.836651 0.578844 -0.412371
O28   O     O_R   0.350801 0.901571 0.633598 -0.637428
O29   O     O_R   0.499980 0.599840 0.561930 -0.496439
O30   O     O_R   0.319640 0.499990 0.561950 -0.496402
O31   O     O_R   0.680360 0.500010 0.438050 -0.496402
O32   O     O_R   0.319650 0.500020 0.438050 -0.493080
O33   O     O_R   0.680350 0.499980 0.561950 -0.493080
O34   O     O_2   0.344720 0.666568 0.141475 -0.430144

loop_
_geom_bond_atom_site_label_1
_geom_bond_atom_site_label_2
_ccdc_geom_bond_type
C48   O4    D    
C55   O15   S    
C34   C56   A    
C23   C45   A    
C9    C64   A    
C14   C18   A    
C2    C4    A    
C2    C65   A    
C42   C58   S    
N8    N10   A    
Cu1   N7    S    
C39   C41   A    
C15   C19   A    
C30   C54   S    
C25   H22   S    
C51   O7    D    
N2    N9    A    
C63   O27   D    
H19   O24   S    
C19   C21   A    
Cu2   N6    S    
C63   O28   S    
C1    O23   A    
C53   O11   D    
C25   N6    A    
C52   O9    D    
C14   C49   S    
C27   N9    A    
C65   H2    S    
C33   C36   A    
C53   H11   S    
C44   H3    S    
C11   N3    A    
C15   C50   S    
Cu2   O12   S    
C57   O16   D    
Cu2   O32   S    
C19   C52   S    
C24   H12   S    
C12   O29   A    
C46   O2    D    
C41   C46   S    
C49   H7    S    
C30   C41   A    
C61   O22   D    
Cu1   O33   S    
C22   H1    S    
C46   H4    S    
C3    C13   S    
C2    C61   S    
C43   C59   S    
C49   O5    D    
C42   C56   A    
C33   C56   S    
C32   H25   S    
C21   C27   S    
C60   C66   S    
C44   O34   D    
C38   C40   A    
C54   O13   D    
Cu2   O31   S    
Cu2   O23   S    
C48   H6    S    
C18   C51   S    
C55   O14   D    
C52   O10   S    
C16   O32   A    
C51   O8    S    
C31   C33   A    
Cu1   Cu2   S    
C32   C35   A    
C62   O26   S    
C1    C9    S    
C47   H5    S    
C4    C6    A    
C5    C7    A    
C6    C8    A    
C20   C28   S    
C27   N10   A    
C26   H23   S    
C47   O3    D    
C22   C25   A    
C11   N4    A    
C7    C47   S    
C6    C63   S    
Cu1   O29   S    
C8    C48   S    
C59   H17   S    
C50   H8    S    
C26   N7    A    
C57   O17   S    
C28   N8    A    
C23   C42   A    
C16   C34   S    
C38   H26   S    
C50   O6    D    
C17   O33   A    
C17   C23   S    
C4    C11   S    
C43   C45   A    
C39   H27   S    
C10   C12   S    
C61   O24   S    
C1    O1    A    
C12   O12   A    
C8    C10   A    
N3    N5    A    
C20   C22   A    
C3    C66   A    
H20   O26   S    
C13   N5    A    
H9    O8    S    
C16   O30   A    
N1    N4    A    
C10   C65   A    
C28   N2    A    
C7    C9    A    
H21   O28   S    
H14   O15   S    
C35   C37   A    
H18   O21   S    
C62   O25   D    
C60   O21   S    
H10   O10   S    
C34   C43   A    
C24   C26   A    
C3    C5    A    
C59   O19   D    
C58   O18   D    
C15   N7    A    
C60   O20   D    
Cu1   O30   S    
C29   C31   A    
C36   C55   S    
C30   C32   A    
Cu1   O1    S    
C29   C53   S    
C29   C40   A    
C36   C38   A    
C5    C62   S    
C64   H28   S    
C18   C20   A    
C13   N1    A    
C58   H16   S    
C14   N6    A    
C40   C44   S    
C37   C39   A    
C31   H24   S    
C21   C24   A    
C17   O31   A    
H15   O17   S    
C54   H13   S    
C37   C57   S    
C64   C66   A    
C35   C45   S    
