data_mof_unit_65958.cif
_audit_creation_date              2012-12-10T17:00:12-0500
_audit_creation_method            fapswitch 2.2
_symmetry_space_group_name_H-M    P1
_symmetry_Int_Tables_number       1
_space_group_crystal_system       triclinic
_cell_length_a                    13.17327
_cell_length_b                    13.172841
_cell_length_c                    16.048226
_cell_angle_alpha                 80.381889
_cell_angle_beta                  100.426072
_cell_angle_gamma                 90.870555
_cell_volume                      2700.03469511

loop_
_atom_site_label
_atom_site_type_symbol
_atom_type_description
_atom_site_fract_x
_atom_site_fract_y
_atom_site_fract_z
_atom_type_partial_charge
C1    C     C_R   0.462673 0.777139 0.468894 0.516445
C2    C     C_2   0.054919 0.517739 0.493585 -0.148262
C3    C     C_2   0.887971 0.551782 0.530037 -0.104991
C4    C     C_R   0.537372 0.223454 0.531933 0.509100
C5    C     C_2   0.944476 0.498951 0.490086 -0.152126
C6    C     C_R   0.777047 0.533783 0.524049 0.514694
C7    C     C_R   0.223350 0.466279 0.475122 0.510105
C8    C     C_R   0.515837 0.487688 0.726947 0.504368
C9    C     C_R   0.484083 0.512412 0.273041 0.507946
C10   C     C_1   0.521241 0.483717 0.817454 0.027119
C11   C     C_2   0.529586 0.479154 0.984088 -0.076358
C12   C     C_1   0.469462 0.522588 0.105736 -0.081295
C13   C     C_2   0.459053 0.529562 0.013103 0.279167
C14   C     C_3   0.313998 0.641152 0.989829 0.021388
C15   C     C_3   0.227029 0.574411 0.020338 -0.265002
C16   C     C_3   0.156985 0.635914 0.060231 -0.476237
C17   C     C_1   0.525346 0.481196 0.893390 0.006912
C18   C     C_1   0.476864 0.517517 0.182267 -0.024997
C19   C     C_2   0.552634 0.112700 0.543860 -0.081298
C20   C     C_2   0.482370 0.055058 0.503648 -0.148892
C21   C     C_2   0.443415 0.888075 0.459432 -0.105598
C22   C     C_2   0.502192 0.944582 0.510679 -0.150696
C23   C     C_2   0.112570 0.452565 0.466083 -0.083203
H1    H     H_    0.079391 0.384157 0.443010 0.091345
H2    H     H_    0.094446 0.585940 0.081019 0.153555
H3    H     H_    0.121500 0.702654 0.012618 0.148125
H4    H     H_    0.412103 0.090227 0.463490 0.131636
H5    H     H_    0.379734 0.923544 0.410945 0.107498
H6    H     H_    0.625711 0.079436 0.580022 0.093553
H7    H     H_    0.090082 0.582879 0.520963 0.134291
H8    H     H_    0.923426 0.609697 0.566483 0.109371
H9    H     H_    0.592200 0.435830 0.028640 0.077729
H10   H     H_    0.566959 0.909233 0.558151 0.161910
H11   H     H_    0.909146 0.439896 0.454793 0.161165
H12   H     H_    0.278164 0.704180 0.938452 0.153158
H13   H     H_    0.357248 0.680275 0.041491 0.131608
H14   H     H_    0.180329 0.544950 0.964718 0.174333
H15   H     H_    0.259647 0.507204 0.068714 0.169791
H16   H     H_    0.201834 0.664039 0.117244 0.163698
O1    O     O_3   0.500000 0.500000 0.500000 -0.438611
O2    O     O_R   0.564890 0.556920 0.685230 -0.537253
O3    O     O_R   0.419250 0.562810 0.301190 -0.541679
O4    O     O_R   0.461010 0.422870 0.688230 -0.533755
O5    O     O_R   0.554850 0.457400 0.325340 -0.534744
O6    O     O_3   0.378957 0.583326 0.953341 -0.556752
O7    O     O_R   0.732880 0.470090 0.478000 -0.540424
O8    O     O_R   0.260330 0.535210 0.424090 -0.535464
O9    O     O_R   0.533020 0.732860 0.528350 -0.538492
O10   O     O_R   0.473780 0.261850 0.569570 -0.532469
O11   O     O_R   0.406490 0.723840 0.419860 -0.538449
O12   O     O_R   0.586720 0.281460 0.482230 -0.535778
O13   O     O_R   0.723810 0.584530 0.562340 -0.538314
O14   O     O_R   0.282980 0.410180 0.535580 -0.531517
Zn1   Zn    Zn3+2 0.592010 0.428480 0.447310 0.939911
Zn2   Zn    Zn3+2 0.579060 0.591980 0.567800 0.944497
Zn3   Zn    Zn3+2 0.430650 0.400450 0.572090 0.949390
Zn4   Zn    Zn3+2 0.398290 0.579090 0.412800 0.938851

loop_
_geom_bond_atom_site_label_1
_geom_bond_atom_site_label_2
_ccdc_geom_bond_type
O9    Zn2   S    
C3    H8    S    
C23   H1    S    
C8    O4    A    
C1    O9    A    
C1    C21   S    
C20   H4    S    
O8    Zn4   S    
O10   Zn3   S    
C6    O7    A    
C1    O11   A    
C9    C18   S    
C19   C20   D    
C4    C19   S    
O13   Zn2   S    
C4    O10   A    
C2    H7    S    
C3    C6    S    
C5    H11   S    
O7    Zn1   S    
C3    C5    D    
C15   H15   S    
C15   H14   S    
C21   C22   D    
C12   C13   S    
O12   Zn1   S    
C13   O6    S    
C11   C13   D    
C9    O3    A    
C7    C23   S    
O3    Zn4   S    
C21   H5    S    
C20   C22   S    
C11   H9    S    
C14   O6    S    
O1    Zn1   S    
C14   H13   S    
C2    C5    S    
C7    O14   A    
C10   C17   T    
C15   C16   S    
C19   H6    S    
O5    Zn1   S    
O4    Zn3   S    
C2    C23   D    
C8    O2    A    
C8    C10   S    
O14   Zn3   S    
C12   C18   T    
C16   H2    S    
C22   H10   S    
C14   C15   S    
O2    Zn2   S    
C9    O5    A    
C16   H16   S    
O1    Zn4   S    
C4    O12   A    
C6    O13   A    
O11   Zn4   S    
C14   H12   S    
C11   C17   S    
C7    O8    A    
O1    Zn3   S    
C16   H3    S    
O1    Zn2   S    
