data_mof_unit_64938.cif
_audit_creation_date              2012-12-11T17:15:13-0500
_audit_creation_method            fapswitch 2.2
_symmetry_space_group_name_H-M    P1
_symmetry_Int_Tables_number       1
_space_group_crystal_system       triclinic
_cell_length_a                    18.975074
_cell_length_b                    19.719837
_cell_length_c                    20.131528
_cell_angle_alpha                 111.70001
_cell_angle_beta                  107.426809
_cell_angle_gamma                 108.35195
_cell_volume                      5857.94065723

loop_
_atom_site_label
_atom_site_type_symbol
_atom_type_description
_atom_site_fract_x
_atom_site_fract_y
_atom_site_fract_z
_atom_type_partial_charge
C1    C     C_R   0.997719 0.729952 0.071860 0.840275
C2    C     C_R   0.165265 0.702938 0.235202 -0.198787
C3    C     C_R   0.944504 0.431710 0.163380 0.745560
C4    C     C_R   0.843737 0.273812 0.772131 -0.178320
C5    C     C_R   0.235782 0.568661 0.004638 0.745934
C6    C     C_R   0.982703 0.500905 0.239043 -0.109650
C7    C     C_R   0.245597 0.500247 0.968615 -0.414707
C8    C     C_R   0.245242 0.731273 0.243490 -0.163405
C9    C     C_R   0.023281 0.271563 0.015775 -0.150393
C10   C     C_1   0.666989 0.498560 0.992834 0.121629
C11   C     C_1   0.601040 0.498350 0.983950 0.046609
C12   C     C_R   0.770072 0.227251 0.768676 -0.216172
C13   C     C_1   0.524077 0.498632 0.974310 0.047666
C14   C     C_1   0.458841 0.499101 0.967736 0.044612
C15   C     C_1   0.383085 0.499726 0.963048 0.044269
C16   C     C_R   0.066414 0.569942 0.841515 -0.204550
C17   C     C_1   0.319482 0.500131 0.962834 0.232973
C18   C     C_R   0.538008 0.890169 0.453567 0.851386
C19   C     C_R   0.460879 0.858348 0.453612 -0.196985
C20   C     C_R   0.456451 0.885867 0.526231 -0.411048
C21   C     C_R   0.527799 0.951139 0.598170 0.853839
C22   C     C_R   0.603105 0.988278 0.596769 -0.202687
C23   C     C_R   0.039208 0.500673 0.768839 -0.163806
C24   C     C_R   0.609371 0.955395 0.525514 -0.392759
C25   C     C_1   0.384891 0.810172 0.379087 0.159186
C26   C     C_1   0.665961 0.069986 0.661208 0.171394
C27   C     C_1   0.714728 0.141322 0.711521 0.129741
C28   C     C_R   0.758696 0.431003 0.976967 0.749788
C29   C     C_1   0.321097 0.773931 0.317003 0.094020
C30   C     C_R   0.121878 0.577148 0.593107 -0.199232
C31   C     C_R   0.092147 0.501575 0.591049 -0.202452
C32   C     C_R   0.053112 0.425880 0.518339 0.657997
C33   C     C_R   0.037241 0.425710 0.446202 0.649267
C34   C     C_R   0.746064 0.499592 0.003249 -0.343214
C35   C     C_R   0.060456 0.501217 0.447761 -0.201695
C36   C     C_R   0.105986 0.576968 0.521082 -0.207780
C37   C     C_1   0.081505 0.501336 0.657540 0.163321
C38   C     C_1   0.030658 0.501056 0.374298 0.156439
C39   C     C_1   0.006028 0.500960 0.312478 0.072675
C40   C     C_R   0.999236 0.431293 0.772152 0.791352
C41   C     C_1   0.064421 0.501061 0.709726 0.115006
C42   C     C_R   0.083493 0.125834 0.153820 -0.369191
C43   C     C_R   0.117272 0.151545 0.109156 -0.296394
C44   C     C_R   0.162708 0.117074 0.078751 0.659654
C45   C     C_R   0.013570 0.569868 0.232443 -0.228572
C46   C     C_R   0.166163 0.050177 0.085296 0.596614
C47   C     C_R   0.123957 0.018332 0.121991 -0.464248
C48   C     C_R   0.086748 0.058916 0.160290 0.800711
C49   C     C_1   0.088952 0.198228 0.079437 0.242050
C50   C     C_1   0.099866 0.934470 0.101597 0.293929
C51   C     C_1   0.073381 0.861778 0.077245 0.118575
C52   C     C_R   0.825746 0.568833 0.046205 0.445383
C53   C     C_1   0.059731 0.232175 0.050374 -0.012561
C54   C     C_R   0.772574 0.271490 0.841441 0.848717
C55   C     C_R   0.065501 0.726778 0.999255 -0.193723
C56   C     C_R   0.168965 0.431787 0.935350 0.748499
C57   C     C_R   0.039369 0.774588 0.044161 -0.203072
C58   C     C_R   0.237785 0.703520 0.166926 0.786436
C59   C     C_R   0.970305 0.299401 0.034877 -0.131037
C60   C     C_R   0.040890 0.297409 0.964713 0.546098
F1    F     F_    0.989979 0.765777 0.139212 -0.625855
F2    F     F_    0.045200 0.027849 0.195356 -0.618373
F3    F     F_    0.195388 0.141995 0.035247 -0.619523
F4    F     F_    0.201913 0.010580 0.047764 -0.608515
F5    F     F_    0.699562 0.351494 0.943260 -0.599898
F6    F     F_    0.981706 0.353045 0.721886 -0.651415
F7    F     F_    0.727405 0.236391 0.871683 -0.592011
F8    F     F_    0.142193 0.358116 0.869463 -0.586884
F9    F     F_    0.302505 0.725451 0.150468 -0.614763
F10   F     F_    0.888493 0.354518 0.140876 -0.657021
F11   F     F_    0.282252 0.643661 0.015622 -0.599060
F12   F     F_    0.542390 0.863821 0.383063 -0.638219
F13   F     F_    0.521250 0.983509 0.667043 -0.637950
F14   F     F_    0.023312 0.352527 0.516454 -0.596629
F15   F     F_    0.993762 0.352244 0.374719 -0.607564
H1    H     H_    0.942878 0.287285 0.071427 0.224857
H2    H     H_    0.112283 0.748185 0.981147 0.183791
H3    H     H_    0.040172 0.633595 0.279288 0.163412
H4    H     H_    0.100653 0.237569 0.937722 0.346359
H5    H     H_    0.793049 0.652200 0.086816 0.335260
H6    H     H_    0.149114 0.716782 0.283725 0.159887
H7    H     H_    0.667365 0.984793 0.524199 0.213836
H8    H     H_    0.396604 0.861573 0.526148 0.202215
H9    H     H_    0.868518 0.251801 0.731702 0.230836
H10   H     H_    0.124189 0.635381 0.522080 0.177765
H11   H     H_    0.150823 0.635651 0.649250 0.182577
H12   H     H_    0.047858 0.152217 0.176912 0.229990
H13   H     H_    0.109907 0.633527 0.863314 0.176501
N1    N     N_R   0.996070 0.655850 0.042990 -0.124459
N2    N     N_R   0.043260 0.542980 0.887390 -0.083546
N3    N     N_R   0.841360 0.457030 0.000110 -0.164191
N4    N     N_R   0.001470 0.457070 0.844510 -0.126889
N5    N     N_R   0.883150 0.542930 0.042990 -0.121509
N6    N     N_R   0.844430 0.344140 0.887390 -0.144215
N7    N     N_R   0.040190 0.655860 0.000110 -0.087688
N8    N     N_R   0.998530 0.542930 0.155490 -0.076485
N9    N     N_R   0.116850 0.457070 0.957010 -0.177738
N10   N     N_R   0.155570 0.655860 0.112610 -0.131777
N11   N     N_R   0.959810 0.344140 0.999890 -0.087480
N12   N     N_R   0.003930 0.344150 0.957010 -0.090482
N13   N     N_R   0.111450 0.655840 0.155490 -0.078223
N14   N     N_R   0.956740 0.457020 0.112610 -0.129096
N15   N     N_R   0.158640 0.542970 0.999890 -0.182079
N16   N     N_R   0.888550 0.344160 0.844510 -0.098580
Ni1   Ni    Ni4+2 0.997320 0.598490 0.098350 0.274171
Ni2   Ni    Ni4+2 0.002680 0.401510 0.901650 0.294684
Ni3   Ni    Ni4+2 0.098520 0.598520 0.000000 0.251755
Ni4   Ni    Ni4+2 0.901480 0.401480 0.000000 0.311571
O1    O     O_3   0.082401 0.274086 0.922882 -0.665268
O2    O     O_3   0.846038 0.650133 0.093198 -0.651246

loop_
_geom_bond_atom_site_label_1
_geom_bond_atom_site_label_2
_ccdc_geom_bond_type
N8    Ni1   S    
C5    N15   A    
C16   N2    A    
C6    C45   A    
N8    N14   A    
C59   N11   A    
C19   C20   A    
C58   N10   A    
C3    C6    A    
N16   Ni2   S    
N11   Ni4   S    
N6    Ni4   S    
C26   C27   T    
C18   C24   A    
C8    C29   S    
C56   N9    A    
N2    Ni3   S    
C32   F14   S    
C30   C31   A    
C55   H2    S    
C23   C40   A    
C21   F13   S    
C18   C19   A    
C24   H7    S    
C60   O1    S    
C8    C58   A    
C48   F2    S    
C33   F15   S    
C35   C36   A    
C7    C17   S    
C18   F12   S    
N14   Ni4   S    
C45   H3    S    
C51   C57   S    
C30   H11   S    
N5    Ni1   S    
C28   C34   A    
C40   F6    S    
C21   C22   A    
C25   C29   T    
C7    C56   A    
C44   C46   A    
C47   C50   S    
C44   F3    S    
N13   Ni1   S    
H4    O1    S    
C12   C27   S    
C47   C48   A    
C3    F10   S    
C55   N7    A    
C5    C7    A    
C43   C49   S    
C54   F7    S    
C2    N13   A    
C56   F8    S    
N10   Ni3   S    
C31   C37   S    
C46   F4    S    
C9    C59   A    
N1    N7    A    
C43   C44   A    
C1    C57   A    
N3    N5    A    
N2    N4    A    
N11   N12   A    
C4    H9    S    
C52   O2    S    
C35   C38   S    
C50   C51   T    
C52   N5    A    
C10   C34   S    
C42   C48   A    
C40   N4    A    
N9    N15   A    
N7    Ni3   S    
N9    Ni2   S    
C3    N14   A    
N4    Ni2   S    
C16   C23   A    
C55   C57   A    
C22   C24   A    
C4    C12   A    
C42   C43   A    
H5    O2    S    
C15   C17   T    
C46   C47   A    
C1    N1    A    
C14   C15   S    
C34   C52   A    
N3    Ni4   S    
C31   C32   A    
C2    C8    A    
C60   N12   A    
C1    F1    S    
C58   F9    S    
C36   H10   S    
N10   N13   A    
N12   Ni2   S    
C23   C41   S    
C30   C36   A    
C9    C60   A    
C32   C33   A    
C28   F5    S    
C5    F11   S    
C11   C13   S    
C38   C39   T    
C49   C53   T    
C4    N16   A    
C33   C35   A    
C28   N3    A    
C37   C41   T    
C19   C25   S    
C54   N6    A    
C10   C11   T    
N6    N16   A    
C9    C53   S    
C20   C21   A    
C22   C26   S    
C20   H8    S    
N1    Ni1   S    
C16   H13   S    
C6    C39   S    
C2    H6    S    
N15   Ni3   S    
C42   H12   S    
C13   C14   T    
C45   N8    A    
C59   H1    S    
C12   C54   A    
