data_mof_unit_64732.cif
_audit_creation_date              2012-12-10T21:15:19-0500
_audit_creation_method            fapswitch 2.2
_symmetry_space_group_name_H-M    P1
_symmetry_Int_Tables_number       1
_space_group_crystal_system       triclinic
_cell_length_a                    17.593856
_cell_length_b                    16.825942
_cell_length_c                    14.165545
_cell_angle_alpha                 90.033629
_cell_angle_beta                  91.213468
_cell_angle_gamma                 89.96027
_cell_volume                      4192.5294732

loop_
_atom_site_label
_atom_site_type_symbol
_atom_type_description
_atom_site_fract_x
_atom_site_fract_y
_atom_site_fract_z
_atom_type_partial_charge
C1    C     C_R   0.353276 0.500015 0.500186 0.889609
C2    C     C_R   0.646735 0.499976 0.500646 0.885912
C3    C     C_1   0.966574 0.499859 0.517596 -0.052860
C4    C     C_1   0.034008 0.499877 0.517147 -0.052373
C5    C     C_R   0.450569 0.832980 0.439800 0.059353
C6    C     C_R   0.550404 0.167360 0.559956 0.063883
C7    C     C_R   0.549448 0.832632 0.561179 0.063745
C8    C     C_R   0.450610 0.167051 0.439723 0.063049
C9    C     C_R   0.451853 0.748674 0.440379 0.404724
C10   C     C_R   0.548646 0.251638 0.559301 0.404859
C11   C     C_R   0.548252 0.748348 0.559805 0.404704
C12   C     C_R   0.451675 0.251352 0.440598 0.405069
C13   C     C_R   0.499564 0.875932 0.501213 -0.109112
C14   C     C_R   0.500568 0.124069 0.499923 -0.109961
C15   C     C_1   0.500166 0.963645 0.500683 -0.006461
C16   C     C_1   0.500485 0.036355 0.500264 -0.007102
C17   C     C_R   0.499849 0.499982 0.328864 0.919639
C18   C     C_R   0.500147 0.500020 0.671136 0.919612
C19   C     C_1   0.499821 0.499953 0.227507 -0.145310
C20   C     C_1   0.500173 0.500057 0.772492 -0.141223
C21   C     C_1   0.499851 0.499965 0.142350 0.019950
C22   C     C_1   0.500143 0.500056 0.857649 0.022172
C23   C     C_1   0.499947 0.500000 0.042578 0.030189
C24   C     C_1   0.500047 0.500031 0.957421 0.030784
C25   C     C_R   0.847762 0.572098 0.512944 -0.158256
C26   C     C_R   0.152637 0.427728 0.510667 -0.159553
C27   C     C_R   0.152557 0.572146 0.512171 -0.158008
C28   C     C_R   0.847808 0.427675 0.512797 -0.158467
C29   C     C_R   0.769024 0.572249 0.507453 -0.163864
C30   C     C_R   0.231197 0.427653 0.505312 -0.165959
C31   C     C_R   0.231122 0.572314 0.506814 -0.162768
C32   C     C_R   0.769066 0.427583 0.507306 -0.163308
C33   C     C_R   0.729294 0.499932 0.504567 -0.044810
C34   C     C_R   0.270825 0.500008 0.503473 -0.046431
C35   C     C_R   0.886558 0.499873 0.515582 0.156789
C36   C     C_R   0.113923 0.499913 0.514232 0.155573
H1    H     H_    0.878333 0.628006 0.514586 0.141213
H2    H     H_    0.122138 0.371796 0.511761 0.141154
H3    H     H_    0.121991 0.628046 0.514442 0.143239
H4    H     H_    0.878416 0.371745 0.514323 0.140922
H5    H     H_    0.739464 0.628728 0.505468 0.185531
H6    H     H_    0.260721 0.371202 0.502888 0.185443
H7    H     H_    0.260596 0.628783 0.505612 0.190314
H8    H     H_    0.739536 0.371131 0.505201 0.185566
N1    N     N_R   0.500000 0.707230 0.500000 -0.181347
N2    N     N_R   0.500000 0.292770 0.500000 -0.181853
O1    O     O_R   0.389110 0.566570 0.500000 -0.583568
O2    O     O_R   0.610890 0.433430 0.500000 -0.586281
O3    O     O_R   0.610890 0.566570 0.500000 -0.586634
O4    O     O_R   0.389110 0.433430 0.500000 -0.586299
O5    O     O_R   0.500000 0.566560 0.373710 -0.564768
O6    O     O_R   0.500000 0.433440 0.626290 -0.561677
O7    O     O_R   0.500000 0.566560 0.626290 -0.561478
O8    O     O_R   0.500000 0.433440 0.373710 -0.561141
Zn1   Zn    Zn3+2 0.500000 0.588860 0.500000 1.034665
Zn2   Zn    Zn3+2 0.500000 0.411140 0.500000 1.035442
N3    N     N_2   0.398969 0.873610 0.377782 -0.257522
H9    H     H_    0.373654 0.922743 0.407306 0.231649
C37   C     C_3   0.429046 0.890180 0.285637 -0.686486
H10   H     H_    0.477877 0.931864 0.291929 0.216158
H11   H     H_    0.384109 0.917898 0.240333 0.234635
H12   H     H_    0.447794 0.834382 0.251190 0.270751
N4    N     N_2   0.602128 0.127129 0.622195 -0.248742
H13   H     H_    0.580384 0.076551 0.652532 0.231013
C38   C     C_3   0.676544 0.114270 0.583475 -0.701029
H14   H     H_    0.672254 0.075080 0.520429 0.217801
H15   H     H_    0.714071 0.085413 0.637353 0.233474
H16   H     H_    0.702645 0.171720 0.563239 0.263320
N5    N     N_2   0.600736 0.872871 0.623950 -0.249100
H17   H     H_    0.578589 0.923259 0.654420 0.230404
C39   C     C_3   0.675234 0.886208 0.585741 -0.700228
H18   H     H_    0.670967 0.925588 0.522915 0.218122
H19   H     H_    0.701732 0.828952 0.565311 0.263330
H20   H     H_    0.712403 0.915059 0.640003 0.233397
N6    N     N_2   0.399800 0.126473 0.376670 -0.251658
H21   H     H_    0.422813 0.076896 0.345332 0.233872
C40   C     C_3   0.325785 0.110996 0.415139 -0.702248
H22   H     H_    0.330961 0.069649 0.476109 0.217054
H23   H     H_    0.288571 0.083329 0.360047 0.235769
H24   H     H_    0.298814 0.167264 0.438268 0.263758
Cl1   Cl    Cl    0.388964 0.697426 0.363729 -0.581268
Cl2   Cl    Cl    0.609373 0.303208 0.638325 -0.580060
Cl3   Cl    Cl    0.609063 0.696744 0.638709 -0.580947
Cl4   Cl    Cl    0.390427 0.302611 0.361918 -0.577450

loop_
_geom_bond_atom_site_label_1
_geom_bond_atom_site_label_2
_ccdc_geom_bond_type
N4    C38   S    
C9    N1    A    
C17   O5    A    
C4    C36   S    
C18   O6    A    
C40   H22   S    
C7    C11   A    
C31   H7    S    
C19   C21   T    
N3    C37   S    
C28   H4    S    
C15   C16   T    
C29   C33   A    
C12   Cl4   S    
C18   C20   S    
N5    C39   S    
C18   O7    A    
C25   H1    S    
C28   C35   A    
C27   H3    S    
C38   H15   S    
C10   N2    A    
C23   C24   T    
C14   C16   S    
C1    O4    A    
C5    C13   A    
C40   H23   S    
C37   H10   S    
C1    C34   S    
O7    Zn1   S    
C25   C29   A    
O8    Zn2   S    
C37   H11   S    
C30   C34   A    
C27   C31   A    
C28   C32   A    
C12   N2    A    
C39   H19   S    
C1    O1    A    
C2    O2    A    
O3    Zn1   S    
C10   Cl2   S    
C8    N6    S    
O4    Zn2   S    
C6    N4    S    
N6    H21   S    
C5    C9    A    
C2    O3    A    
C6    C14   A    
C3    C35   S    
C8    C12   A    
C38   H16   S    
C32   H8    S    
C31   C34   A    
N6    C40   S    
C25   C35   A    
C2    C33   S    
C26   C36   A    
C20   C22   T    
C26   C30   A    
C13   C15   S    
C22   C24   S    
C11   N1    A    
C3    C4    T    
O1    Zn1   S    
C40   H24   S    
O2    Zn2   S    
C37   H12   S    
C8    C14   A    
C29   H5    S    
C26   H2    S    
C7    N5    S    
C39   H20   S    
C27   C36   A    
C5    N3    S    
C11   Cl3   S    
C32   C33   A    
C21   C23   S    
C39   H18   S    
N3    H9    S    
C17   C19   S    
O5    Zn1   S    
N5    H17   S    
C6    C10   A    
N4    H13   S    
C7    C13   A    
N1    Zn1   S    
C38   H14   S    
N2    Zn2   S    
C30   H6    S    
C17   O8    A    
O6    Zn2   S    
C9    Cl1   S    
