data_mof_unit_39961.cif
_audit_creation_date              2012-12-10T21:29:42-0500
_audit_creation_method            fapswitch 2.2
_symmetry_space_group_name_H-M    P1
_symmetry_Int_Tables_number       1
_space_group_crystal_system       triclinic
_cell_length_a                    10.611273
_cell_length_b                    16.126037
_cell_length_c                    16.606884
_cell_angle_alpha                 86.560094
_cell_angle_beta                  91.032287
_cell_angle_gamma                 93.258549
_cell_volume                      2831.72275146

loop_
_atom_site_label
_atom_site_type_symbol
_atom_type_description
_atom_site_fract_x
_atom_site_fract_y
_atom_site_fract_z
_atom_type_partial_charge
C1    C     C_R   0.503046 0.488226 0.653467 0.881969
C2    C     C_R   0.455986 0.529679 0.092773 0.210959
C3    C     C_R   0.487022 0.403857 0.867950 -0.176186
C4    C     C_R   0.514861 0.595964 0.132059 -0.172251
C5    C     C_R   0.474568 0.408504 0.784502 -0.152602
C6    C     C_R   0.526802 0.591330 0.215531 -0.148969
C7    C     C_R   0.431597 0.760878 0.462096 0.066159
C8    C     C_R   0.573487 0.239577 0.533993 0.069702
C9    C     C_R   0.423017 0.848297 0.467358 -0.017257
C10   C     C_R   0.586013 0.153426 0.524650 -0.026714
C11   C     C_R   0.512279 0.890869 0.517388 0.285091
C12   C     C_R   0.497051 0.511775 0.346533 0.881030
C13   C     C_R   0.495575 0.110582 0.476245 0.281044
C14   C     C_R   0.596930 0.843718 0.564410 -0.324242
C15   C     C_R   0.404436 0.156674 0.433970 -0.313719
C16   C     C_R   0.740040 0.502232 0.489357 0.889266
C17   C     C_R   0.260616 0.497562 0.511806 0.887555
C18   C     C_R   0.596668 0.757064 0.560276 -0.044707
C19   C     C_R   0.401314 0.242882 0.440902 -0.046303
C20   C     C_R   0.874169 0.365725 0.425939 -0.144572
C21   C     C_R   0.127340 0.631274 0.580586 -0.140864
C22   C     C_R   0.922900 0.287107 0.430218 -0.167671
C23   C     C_R   0.520748 0.479971 0.740291 -0.075820
C24   C     C_R   0.077014 0.709163 0.579860 -0.154956
C25   C     C_R   0.031024 0.272938 0.476303 -0.177155
C26   C     C_R   0.969234 0.724644 0.533856 -0.169106
C27   C     C_R   0.095639 0.338942 0.512592 -0.125679
C28   C     C_R   0.905771 0.660027 0.494738 -0.130027
C29   C     C_R   0.053016 0.420793 0.502661 0.099653
C30   C     C_R   0.948249 0.577983 0.502612 0.096385
C31   C     C_R   0.933840 0.431481 0.467925 0.075698
C32   C     C_R   0.067521 0.566872 0.537070 0.074653
C33   C     C_R   0.125342 0.492309 0.525872 -0.255192
C34   C     C_R   0.479845 0.520033 0.259675 -0.080363
C35   C     C_R   0.876097 0.506714 0.477909 -0.253273
C36   C     C_3   0.702675 0.111396 0.558160 -0.434786
C37   C     C_3   0.689968 0.082770 0.647705 -0.302954
C38   C     C_3   0.807701 0.040324 0.678922 -0.874158
C39   C     C_3   0.315574 0.893380 0.423754 -0.388025
C40   C     C_3   0.222665 0.924693 0.483508 -0.348528
C41   C     C_3   0.111367 0.964298 0.439750 -0.887933
C42   C     C_2   0.325448 0.393617 0.096278 0.409398
C43   C     C_2   0.675568 0.606610 0.903383 0.408865
C44   C     C_2   0.658338 0.282469 0.591127 0.481277
C45   C     C_R   0.587625 0.543989 0.779022 -0.192705
C46   C     C_2   0.349721 0.716915 0.404219 0.467880
C47   C     C_R   0.412896 0.456133 0.220820 -0.191746
C48   C     C_R   0.602458 0.539427 0.862687 0.007692
C49   C     C_R   0.398629 0.460670 0.137118 0.007554
C50   C     C_R   0.545695 0.470278 0.907141 0.212250
H1    H     H_    0.933754 0.786417 0.529293 0.143875
H2    H     H_    0.123761 0.757966 0.613200 0.136669
H3    H     H_    0.177019 0.324710 0.549949 0.159179
H4    H     H_    0.825450 0.675699 0.457053 0.162196
H5    H     H_    0.371870 0.402810 0.255939 0.195343
H6    H     H_    0.628166 0.597423 0.743839 0.194564
H7    H     H_    0.444668 0.350695 0.902541 0.151878
H8    H     H_    0.557703 0.649009 0.097541 0.152644
H9    H     H_    0.424658 0.358055 0.754902 0.177481
H10   H     H_    0.576916 0.641642 0.245214 0.180792
H11   H     H_    0.823635 0.985412 0.643901 0.254350
H12   H     H_    0.065907 0.211063 0.483075 0.142094
H13   H     H_    0.891767 0.084534 0.673887 0.263789
H14   H     H_    0.795545 0.019184 0.743322 0.263179
H15   H     H_    0.676582 0.136659 0.684460 0.252578
H16   H     H_    0.606618 0.038655 0.656659 0.238177
H17   H     H_    0.723354 0.057819 0.522500 0.226539
H18   H     H_    0.787142 0.154931 0.550235 0.178749
H19   H     H_    0.145216 0.017947 0.399253 0.264642
H20   H     H_    0.057755 0.917946 0.403687 0.266310
H21   H     H_    0.046909 0.986856 0.484582 0.246928
H22   H     H_    0.185986 0.871675 0.523568 0.214210
H23   H     H_    0.662874 0.874281 0.605026 0.166486
H24   H     H_    0.269983 0.971358 0.521940 0.246928
H25   H     H_    0.353388 0.944895 0.382361 0.226827
H26   H     H_    0.259812 0.852643 0.383359 0.202646
H27   H     H_    0.306816 0.399611 0.031807 0.083553
H28   H     H_    0.694629 0.600618 0.967807 0.083823
H29   H     H_    0.754469 0.301292 0.574437 0.064995
H30   H     H_    0.257106 0.691265 0.422061 0.073497
H31   H     H_    0.336567 0.125805 0.394744 0.164369
H32   H     H_    0.661600 0.721796 0.597676 0.157635
H33   H     H_    0.332626 0.277793 0.406330 0.158244
H34   H     H_    0.789266 0.374696 0.390084 0.154576
H35   H     H_    0.212905 0.621402 0.615541 0.152008
H36   H     H_    0.874571 0.236653 0.399852 0.145980
N1    N     N_2   0.533084 0.470891 0.990899 -0.213209
N2    N     N_2   0.468713 0.529096 0.009027 -0.213383
N3    N     N_R   0.515300 0.716920 0.509720 -0.127925
N4    N     N_R   0.484700 0.283080 0.490280 -0.125109
N5    N     N_2   0.513656 0.978636 0.527846 -0.189747
N6    N     N_2   0.497276 0.023277 0.464623 -0.184974
O1    O     O_R   0.494530 0.422540 0.612660 -0.573831
O2    O     O_2   0.716430 0.669292 0.865370 -0.573883
O3    O     O_2   0.623960 0.291715 0.659532 -0.589869
O4    O     O_2   0.381182 0.715427 0.334041 -0.583301
O5    O     O_R   0.505470 0.577460 0.387340 -0.582892
O6    O     O_R   0.504350 0.561840 0.618900 -0.633413
O7    O     O_R   0.495650 0.438160 0.381100 -0.630557
O8    O     O_R   0.678310 0.430340 0.496890 -0.637954
O9    O     O_R   0.321690 0.569660 0.503110 -0.641778
O10   O     O_R   0.688140 0.569650 0.503130 -0.624406
O11   O     O_R   0.311860 0.430350 0.496870 -0.624592
O12   O     O_2   0.284053 0.331038 0.134223 -0.572415
Zn1   Zn    Zn3+2 0.493440 0.406980 0.495830 0.952171
Zn2   Zn    Zn3+2 0.506560 0.593020 0.504170 0.947719

loop_
_geom_bond_atom_site_label_1
_geom_bond_atom_site_label_2
_ccdc_geom_bond_type
C24   H2    S    
C46   H30   S    
N1    N2    D    
C23   C45   A    
C27   C29   A    
C14   C18   A    
C36   H17   S    
C47   C49   A    
C43   H28   S    
C15   C19   A    
O8    Zn1   S    
C30   C35   A    
C41   H19   S    
C36   C37   S    
C24   C26   A    
C16   C35   S    
C11   C14   A    
C7    N3    A    
C29   C33   A    
C9    C39   S    
C43   O2    D    
C17   O9    A    
C12   O7    A    
O1    Zn1   S    
C45   H6    S    
C22   C25   A    
C37   H15   S    
N3    Zn2   S    
C2    N2    S    
C39   H25   S    
C43   C48   S    
C41   H21   S    
C38   H11   S    
C48   C50   A    
C17   C33   S    
C19   H33   S    
C3    C50   A    
C38   H14   S    
O7    Zn1   S    
C21   C32   A    
C21   H35   S    
C15   H31   S    
C5    H9    S    
C7    C46   S    
C6    H10   S    
C4    C6    A    
C39   C40   S    
C28   H4    S    
C16   O8    A    
C1    O1    A    
C6    C34   A    
C2    C4    A    
C14   H23   S    
C37   C38   S    
C2    C49   A    
C5    C23   A    
C37   H16   S    
C27   H3    S    
O11   Zn1   S    
C39   H26   S    
C9    C11   A    
C12   O5    A    
C50   N1    S    
O5    Zn2   S    
C3    H7    S    
C16   O10   A    
C40   C41   S    
C20   C22   A    
C1    C23   S    
C13   C15   A    
C13   N6    S    
C31   C35   A    
C8    N4    A    
C12   C34   S    
N5    N6    D    
C47   H5    S    
C38   H13   S    
C45   C48   A    
O9    Zn2   S    
C7    C9    A    
C40   H22   S    
C18   N3    A    
C44   H29   S    
C8    C44   S    
N4    Zn1   S    
C3    C5    A    
C10   C13   A    
C42   O12   D    
C1    O6    A    
C36   H18   S    
C25   C27   A    
C26   C28   A    
O6    Zn2   S    
C32   C33   A    
C20   H34   S    
C17   O11   A    
C29   C31   A    
C19   N4    A    
C26   H1    S    
C30   C32   A    
C28   C30   A    
C18   H32   S    
C40   H24   S    
O10   Zn2   S    
C25   H12   S    
C22   H36   S    
C42   C49   S    
C11   N5    S    
C46   O4    D    
C42   H27   S    
C8    C10   A    
C21   C24   A    
C4    H8    S    
C44   O3    D    
C10   C36   S    
C34   C47   A    
C41   H20   S    
C20   C31   A    
