data_mof_unit_44817.cif
_audit_creation_date              2012-12-10T18:09:54-0500
_audit_creation_method            fapswitch 2.2
_symmetry_space_group_name_H-M    P1
_symmetry_Int_Tables_number       1
_space_group_crystal_system       triclinic
_cell_length_a                    10.701649
_cell_length_b                    12.705872
_cell_length_c                    12.93183
_cell_angle_alpha                 80.7186
_cell_angle_beta                  92.29741
_cell_angle_gamma                 103.561856
_cell_volume                      1686.97778242

loop_
_atom_site_label
_atom_site_type_symbol
_atom_type_description
_atom_site_fract_x
_atom_site_fract_y
_atom_site_fract_z
_atom_type_partial_charge
C1    C     C_R   0.463327 0.439086 0.689415 0.899857
C2    C     C_R   0.403016 0.459282 0.968621 0.028186
C3    C     C_R   0.400129 0.485102 0.858810 -0.015757
C4    C     C_R   0.741878 0.500826 0.501323 0.916393
C5    C     C_R   0.428946 0.546410 0.027977 0.041414
C6    C     C_R   0.476662 0.654656 0.977280 -0.078187
C7    C     C_R   0.442678 0.679184 0.871588 0.581659
C8    C     C_R   0.395322 0.593681 0.815288 -0.147638
C9    C     C_R   0.414073 0.529966 0.136308 -0.050192
C10   C     C_R   0.586211 0.694379 0.140142 -0.024688
C11   C     C_R   0.406414 0.403547 0.796633 -0.128868
C12   C     C_3   0.120428 0.494349 0.501972 -0.219055
C13   C     C_R   0.301691 0.083845 0.360314 -0.139584
C14   C     C_R   0.661638 0.799582 0.625857 0.834383
C15   C     C_R   0.709351 0.906342 0.643276 -0.255273
C16   C     C_R   0.512667 0.561368 0.307380 0.910103
C17   C     C_R   0.652050 0.988255 0.593290 -0.145337
C18   C     C_R   0.539584 0.962712 0.531913 0.038764
C19   C     C_R   0.507588 0.856385 0.504591 -0.097305
C20   C     C_R   0.466458 0.039957 0.486483 -0.054879
C21   C     C_R   0.365962 0.007420 0.414577 -0.051531
C22   C     C_R   0.339429 0.901658 0.389898 0.642699
C23   C     C_3   0.093659 0.591269 0.418315 -0.374700
C24   C     C_R   0.432121 0.840816 0.414492 -0.111791
C25   C     C_R   0.486840 0.147977 0.508464 0.096248
C26   C     C_R   0.341258 0.192601 0.373291 -0.034075
C27   C     C_R   0.258016 0.497607 0.501116 0.904626
C28   C     C_3   0.894733 0.387524 0.477689 -0.579958
C29   C     C_3   0.035877 0.383183 0.475715 -0.212154
C30   C     C_3   0.949386 0.590779 0.416492 0.530251
C31   C     C_3   0.940556 0.520974 0.613004 0.421664
C32   C     C_3   0.878991 0.500328 0.503721 -0.198761
C33   C     C_2   0.707187 0.751016 0.188320 0.394481
C34   C     C_3   0.083863 0.514340 0.611928 0.420771
C35   C     C_2   0.620407 0.842100 0.980732 0.522174
C36   C     C_2   0.294104 0.455390 0.185066 0.406346
C37   C     C_2   0.327191 0.199924 0.784337 0.627103
C38   C     C_2   0.546892 0.178097 0.607470 0.431085
C39   C     C_2   0.503207 0.833539 0.321582 0.528685
C40   C     C_2   0.059398 0.279037 0.541550 0.647854
C41   C     C_2   0.137350 0.589138 0.309131 0.422019
C42   C     C_2   0.865389 0.445993 0.704535 0.493237
C43   C     C_R   0.556365 0.731212 0.034304 -0.047731
C44   C     C_R   0.504295 0.597795 0.194024 -0.119212
C45   C     C_R   0.372255 0.291807 0.844086 -0.178212
C46   C     C_R   0.371216 0.266482 0.953700 0.609178
C47   C     C_R   0.393922 0.349515 0.014897 -0.161337
F1    F     F_    0.934799 0.693774 0.428780 -0.533397
F2    F     F_    0.452486 0.783671 0.822732 -0.655112
F3    F     F_    0.348752 0.160700 0.002113 -0.625691
F4    F     F_    0.247800 0.872553 0.317182 -0.570362
F5    F     F_    0.717750 0.719523 0.673915 -0.614766
F6    F     F_    0.938788 0.626787 0.626919 -0.605920
F7    F     F_    0.112852 0.436225 0.691213 -0.613066
H1    H     H_    0.852699 0.375199 0.399013 0.195275
H2    H     H_    0.792462 0.926152 0.693185 0.194033
H3    H     H_    0.058640 0.376151 0.394295 0.100057
H4    H     H_    0.905073 0.573576 0.339731 0.099397
H5    H     H_    0.757859 0.832809 0.154788 0.133622
H6    H     H_    0.658871 0.852931 0.902371 0.111969
H7    H     H_    0.279525 0.440560 0.268815 0.060386
H8    H     H_    0.334651 0.117789 0.818443 0.158318
H9    H     H_    0.617915 0.253375 0.608996 0.117623
H10   H     H_    0.604863 0.835048 0.328912 0.065401
H11   H     H_    0.116157 0.231673 0.509230 0.053474
H12   H     H_    0.144405 0.594202 0.627879 0.133079
H13   H     H_    0.086721 0.526561 0.264717 0.073725
H14   H     H_    0.817018 0.480755 0.758161 0.103145
H15   H     H_    0.147581 0.669915 0.442354 0.257582
H16   H     H_    0.402831 0.326644 0.098667 0.167047
H17   H     H_    0.838962 0.318351 0.533494 0.252120
H18   H     H_    0.362960 0.614155 0.735867 0.193596
H19   H     H_    0.295078 0.252999 0.329780 0.128959
H20   H     H_    0.226221 0.061211 0.304163 0.224341
H21   H     H_    0.701859 0.070757 0.600457 0.171713
N1    N     N_R   0.433240 0.222190 0.444680 -0.137265
N2    N     N_R   0.566070 0.776970 0.554790 -0.174068
O1    O     O_R   0.468120 0.366740 0.627160 -0.604153
O2    O     O_2   0.627795 0.922670 0.022917 -0.502594
O3    O     O_2   0.205096 0.414770 0.131133 -0.547636
O4    O     O_2   0.272906 0.212736 0.700074 -0.525743
O5    O     O_2   0.518541 0.116377 0.689983 -0.549865
O6    O     O_2   0.452377 0.832135 0.235362 -0.442374
O7    O     O_2   0.016038 0.246508 0.629784 -0.433184
O8    O     O_2   0.227810 0.659051 0.268799 -0.458305
O9    O     O_2   0.855763 0.347170 0.718891 -0.514810
O10   O     O_R   0.510770 0.544830 0.662520 -0.600951
O11   O     O_R   0.663880 0.410950 0.482330 -0.681995
O12   O     O_R   0.706530 0.589040 0.517700 -0.458674
O13   O     O_R   0.489230 0.455170 0.337480 -0.652641
O14   O     O_R   0.531880 0.633260 0.372840 -0.590035
O15   O     O_R   0.293470 0.410960 0.482300 -0.641034
O16   O     O_R   0.336120 0.589050 0.517670 -0.642689
O17   O     O_2   0.755881 0.705030 0.263857 -0.544572
Zn1   Zn    Zn3+2 0.471520 0.381090 0.476390 0.949062
Zn2   Zn    Zn3+2 0.528480 0.618910 0.523610 1.054021

loop_
_geom_bond_atom_site_label_1
_geom_bond_atom_site_label_2
_ccdc_geom_bond_type
C1    O10   A    
C16   O13   A    
C31   C42   S    
C12   C29   S    
C40   O7    D    
C1    C11   S    
C33   O17   D    
C34   H12   S    
C37   H8    S    
C7    C8    A    
C41   H13   S    
C45   C46   A    
C39   H10   S    
C12   C23   S    
C30   F1    S    
C28   C29   S    
C4    O12   A    
N1    Zn1   S    
C5    C6    A    
C20   C25   A    
C24   C39   S    
C18   C19   A    
C14   N2    A    
C19   N2    A    
C23   H15   S    
O14   Zn2   S    
C14   F5    S    
C9    C36   S    
C26   N1    A    
C42   O9    D    
C35   C43   S    
C16   C44   S    
O11   Zn1   S    
C33   H5    S    
C21   C22   A    
C38   O5    D    
C42   H14   S    
C1    O1    A    
C37   O4    D    
C28   H1    S    
C8    H18   S    
C12   C27   S    
C10   C44   A    
C23   C30   S    
C28   C32   S    
C7    F2    S    
C3    C8    A    
C36   O3    D    
C26   H19   S    
O15   Zn1   S    
C35   H6    S    
C47   H16   S    
C5    C9    A    
C25   C38   S    
C31   C32   S    
C27   O16   A    
O1    Zn1   S    
O10   Zn2   S    
C17   C18   A    
C31   C34   S    
C13   C21   A    
C27   O15   A    
C31   F6    S    
C4    C32   S    
C29   H3    S    
C34   F7    S    
O16   Zn2   S    
C6    C43   A    
C22   C24   A    
C13   C26   A    
C11   C45   A    
C2    C5    A    
C12   C34   S    
C36   H7    S    
C38   H9    S    
C15   C17   A    
C46   C47   A    
C9    C44   A    
C10   C43   A    
O13   Zn1   S    
C6    C7    A    
C4    O11   A    
C2    C47   A    
C41   O8    D    
C46   F3    S    
N2    Zn2   S    
C23   C41   S    
C40   H11   S    
C25   N1    A    
C15   H2    S    
O12   Zn2   S    
C2    C3    A    
C39   O6    D    
C30   C32   S    
C30   H4    S    
C29   C40   S    
C35   O2    D    
C19   C24   A    
C10   C33   S    
C18   C20   A    
C3    C11   A    
C28   H17   S    
C20   C21   A    
C16   O14   A    
C17   H21   S    
C14   C15   A    
C22   F4    S    
C37   C45   S    
C13   H20   S    
