data_mof_unit_44400.cif
_audit_creation_date              2012-12-11T14:30:49-0500
_audit_creation_method            fapswitch 2.2
_symmetry_space_group_name_H-M    P1
_symmetry_Int_Tables_number       1
_space_group_crystal_system       triclinic
_cell_length_a                    8.209811
_cell_length_b                    14.905349
_cell_length_c                    15.12029
_cell_angle_alpha                 96.844553
_cell_angle_beta                  99.098003
_cell_angle_gamma                 97.703266
_cell_volume                      1791.77989785

loop_
_atom_site_label
_atom_site_type_symbol
_atom_type_description
_atom_site_fract_x
_atom_site_fract_y
_atom_site_fract_z
_atom_type_partial_charge
Ba1   Ba    Ba6+2 0.154730 0.543770 0.458180 1.643939
Ba2   Ba    Ba6+2 0.655430 0.456220 0.541750 1.647752
C1    C     C_3   0.488779 0.810179 0.155459 -0.414659
C2    C     C_3   0.418518 0.751644 0.220522 0.344894
C3    C     C_3   0.590745 0.739523 0.668771 0.295238
C4    C     C_3   0.595814 0.843068 0.683268 -0.417509
C5    C     C_3   0.852088 0.212584 0.721384 0.337157
C6    C     C_3   0.819469 0.114855 0.741773 -0.386497
C7    C     C_3   0.327927 0.194990 0.764306 0.376546
C8    C     C_3   0.285404 0.106011 0.803082 -0.381576
C9    C     C_R   0.174723 0.169735 0.549146 -0.009280
C10   C     C_R   0.106944 0.076301 0.540095 -0.033245
C11   C     C_R   0.963869 0.889677 0.530475 -0.039382
C12   C     C_3   0.925901 0.791686 0.271246 0.368921
C13   C     C_R   0.130256 0.922540 0.571181 -0.057218
C14   C     C_R   0.201814 0.012534 0.573392 -0.099889
C15   C     C_R   0.891081 0.796586 0.527172 -0.010991
C16   C     C_R   0.727706 0.767832 0.480839 -0.285300
C17   C     C_R   0.913129 0.203214 0.471222 0.047868
C18   C     C_R   0.843118 0.108997 0.459458 -0.035147
C19   C     C_R   0.938914 0.045984 0.497390 0.007576
C20   C     C_R   0.681126 0.075507 0.411283 -0.042688
C21   C     C_R   0.610197 0.984413 0.407064 -0.108724
C22   C     C_R   0.700767 0.921739 0.447355 -0.037106
C23   C     C_3   0.966239 0.887979 0.248401 -0.372610
C24   C     C_R   0.867819 0.952246 0.491446 0.016154
C25   C     C_R   0.630732 0.829068 0.443362 -0.001841
C26   C     C_R   0.075331 0.232008 0.518209 -0.300971
C27   C     C_R   0.224957 0.486545 0.768087 -0.242663
C28   C     C_R   0.126788 0.451772 0.826635 0.021904
C29   C     C_R   0.190429 0.462384 0.920041 -0.133090
C30   C     C_R   0.354563 0.509713 0.956308 0.017320
C31   C     C_R   0.447320 0.547529 0.894033 -0.142327
C32   C     C_R   0.384445 0.533797 0.801193 0.034249
C33   C     C_R   0.597868 0.561410 0.090175 -0.151381
C34   C     C_3   0.742241 0.344316 0.260977 0.306831
C35   C     C_R   0.669105 0.567419 0.181479 0.004299
C36   C     C_R   0.413081 0.486412 0.211571 0.074706
C37   C     C_R   0.340715 0.479694 0.119708 -0.118807
C38   C     C_R   0.430159 0.518503 0.056521 -0.001162
C39   C     C_R   0.574709 0.532681 0.242032 -0.277540
C40   C     C_3   0.807059 0.331238 0.172907 -0.381621
C41   C     C_3   0.128348 0.786912 0.752213 0.340552
C42   C     C_3   0.015086 0.859436 0.766552 -0.426544
C43   C     C_3   0.219184 0.265208 0.333848 0.310842
C44   C     C_3   0.184834 0.162010 0.305230 -0.396558
H1    H     H_    0.317822 0.697488 0.181783 0.078981
H2    H     H_    0.725088 0.274097 0.126065 0.105720
H3    H     H_    0.810547 0.395706 0.143156 0.082159
H4    H     H_    0.935074 0.313730 0.184724 0.147357
H5    H     H_    0.234802 0.815285 0.722532 0.011998
H6    H     H_    0.962529 0.880741 0.702379 0.074862
H7    H     H_    0.087181 0.921224 0.811024 0.086977
H8    H     H_    0.909800 0.833194 0.798516 0.122923
H9    H     H_    0.103831 0.288570 0.350088 0.002441
H10   H     H_    0.319664 0.281241 0.394434 0.067168
H11   H     H_    0.388877 0.842064 0.118713 0.122622
H12   H     H_    0.081643 0.144063 0.245992 0.121459
H13   H     H_    0.148571 0.126582 0.361102 0.062914
H14   H     H_    0.298730 0.137614 0.286783 0.121829
H15   H     H_    0.520338 0.717452 0.252191 -0.048270
H16   H     H_    0.542960 0.767436 0.105872 0.083802
H17   H     H_    0.716211 0.724224 0.661208 0.025400
H18   H     H_    0.500098 0.711201 0.605819 0.066933
H19   H     H_    0.651654 0.872846 0.754060 0.128890
H20   H     H_    0.669378 0.875761 0.637083 0.068971
H21   H     H_    0.468468 0.860024 0.668920 0.100041
H22   H     H_    0.945716 0.938771 0.303874 0.071306
H23   H     H_    0.735853 0.228080 0.683266 0.138735
H24   H     H_    0.948266 0.217432 0.677859 -0.026451
H25   H     H_    0.783307 0.066794 0.677400 0.089759
H26   H     H_    0.933056 0.097064 0.781255 0.110103
H27   H     H_    0.716823 0.106876 0.781305 0.132820
H28   H     H_    0.209999 0.209652 0.726727 -0.037116
H29   H     H_    0.215996 0.117385 0.859758 0.086279
H30   H     H_    0.205788 0.053940 0.749996 0.089926
H31   H     H_    0.210001 0.879657 0.601395 0.086450
H32   H     H_    0.331823 0.031454 0.604203 0.109161
H33   H     H_    0.483376 0.964125 0.371364 0.105774
H34   H     H_    0.605408 0.118983 0.376892 0.107550
H35   H     H_    0.672997 0.696935 0.476615 0.068481
H36   H     H_    0.128192 0.303691 0.526974 0.070325
H37   H     H_    0.678566 0.589283 0.047416 0.071380
H38   H     H_    0.110126 0.432280 0.962002 0.069197
H39   H     H_    0.216018 0.442375 0.099420 0.078323
H40   H     H_    0.795862 0.781400 0.283995 -0.071665
H41   H     H_    0.569469 0.587541 0.914821 0.059236
H42   H     H_    0.630566 0.537270 0.312517 0.065802
H43   H     H_    0.176304 0.477282 0.696224 0.079365
H44   H     H_    0.098624 0.901985 0.239813 0.151800
H45   H     H_    0.884831 0.895622 0.184638 0.109095
H46   H     H_    0.608609 0.351277 0.246206 -0.006083
H47   H     H_    0.813707 0.408569 0.301065 0.066739
O1    O     O_2   0.174080 0.723060 0.553930 -0.479500
O2    O     O_3   0.267374 0.306441 0.261776 -0.639508
O3    O     O_3   0.945554 0.727850 0.198906 -0.594268
O4    O     O_2   0.636200 0.276890 0.446040 -0.464136
O5    O     O_3   0.908720 0.390410 0.449080 -0.497463
O6    O     O_3   0.439930 0.334910 0.611650 -0.465148
O7    O     O_3   0.756382 0.265482 0.301642 -0.638901
O8    O     O_3   0.402060 0.547860 0.609750 -0.474022
O9    O     O_3   0.872630 0.381370 0.659060 -0.483667
O10   O     O_2   0.778557 0.426830 0.815922 -0.487635
O11   O     O_3   0.903817 0.273848 0.802332 -0.633231
O12   O     O_3   0.901570 0.609580 0.550840 -0.445766
O13   O     O_3   0.408220 0.452130 0.390170 -0.489586
O14   O     O_2   0.675490 0.547140 0.721820 -0.441515
O15   O     O_3   0.545486 0.703670 0.744498 -0.654543
O16   O     O_2   0.512387 0.174588 0.546240 -0.501233
O17   O     O_3   0.450976 0.184085 0.709920 -0.618839
O18   O     O_3   0.370350 0.665080 0.388270 -0.472056
O19   O     O_2   0.289516 0.824363 0.446762 -0.495860
O20   O     O_3   0.039840 0.706156 0.698277 -0.606770
O21   O     O_3   0.350239 0.807274 0.282430 -0.600157
O22   O     O_2   0.134790 0.452800 0.278150 -0.472630
O23   O     O_3   0.937650 0.618620 0.340860 -0.490572
O24   O     O_2   0.007609 0.560373 0.180080 -0.489072
P1    P     P_3+3 0.004200 0.709230 0.580350 0.993115
P2    P     P_3+3 0.305000 0.425570 0.290900 0.977903
P3    P     P_3+3 0.889410 0.617293 0.223974 0.943635
P4    P     P_3+3 0.806080 0.290760 0.419570 0.970258
P5    P     P_3+3 0.919851 0.386168 0.776678 0.944844
P6    P     P_3+3 0.411474 0.782943 0.392058 0.947883
P7    P     P_3+3 0.503614 0.583965 0.721623 0.964862
P8    P     P_3+3 0.392212 0.215865 0.602715 0.922860
C45   C     C_3   0.202608 0.762557 0.845303 -0.160860
C46   C     C_3   0.076679 0.700260 0.885884 -0.170840
C47   C     C_3   0.139760 0.696042 0.985472 -0.436413
H48   H     H_    0.270176 0.682032 0.995795 0.131767
H49   H     H_    0.134381 0.762023 0.026686 0.148743
H50   H     H_    0.059403 0.640905 0.008878 0.154729
H51   H     H_    0.055292 0.630210 0.847649 0.134798
H52   H     H_    0.954081 0.724396 0.880822 0.124075
H53   H     H_    0.310232 0.726388 0.837449 0.101030
H54   H     H_    0.252522 0.826462 0.893308 0.068467
H55   H     H_    0.587629 0.865424 0.193791 0.114503
C48   C     C_3   0.391866 0.276071 0.839928 -0.157559
C49   C     C_3   0.550611 0.262836 0.902083 -0.175945
C50   C     C_3   0.624382 0.348900 0.968059 -0.393417
H56   H     H_    0.617382 0.411117 0.935722 0.170854
H57   H     H_    0.555416 0.353359 0.025478 0.114736
H58   H     H_    0.758286 0.346694 0.992150 0.131005
H59   H     H_    0.523685 0.205894 0.941397 0.094836
H60   H     H_    0.644305 0.245339 0.860786 0.189701
H61   H     H_    0.417863 0.338352 0.807580 0.098710
H62   H     H_    0.292937 0.286345 0.880878 0.070131
H63   H     H_    0.400507 0.078291 0.827851 0.114663
H64   H     H_    0.012619 0.786078 0.333794 0.101110

loop_
_geom_bond_atom_site_label_1
_geom_bond_atom_site_label_2
_ccdc_geom_bond_type
O5    P4    S    
C19   C24   A    
C45   C46   S    
C43   H9    S    
O13   P2    S    
O1    P1    D    
C34   C40   S    
C17   C18   A    
C22   C25   A    
C47   H48   S    
C5    H24   S    
C27   H43   S    
C5    C6    S    
O6    P8    S    
C13   H31   S    
C43   C44   S    
C23   H44   S    
C48   H61   S    
C33   C35   A    
C22   C24   A    
O7    P4    S    
C49   H59   S    
C45   H54   S    
C36   C37   A    
C44   H13   S    
C50   H58   S    
C1    H16   S    
O11   P5    S    
Ba2   O9    S    
C13   C14   A    
C12   H64   S    
Ba2   O14   S    
C16   H35   S    
C3    H17   S    
Ba1   Ba2   S    
Ba1   P2    S    
C46   H51   S    
O4    P4    D    
C8    H30   S    
C42   H7    S    
C4    H19   S    
C28   P5    S    
Ba2   O4    S    
Ba1   O1    S    
C33   H37   S    
C21   C22   A    
Ba1   O23   S    
C7    C8    S    
C43   H10   S    
C8    H63   S    
C42   H6    S    
C36   C39   A    
C44   H12   S    
C23   H22   S    
C7    C48   S    
O14   P7    D    
O15   P7    S    
C34   H47   S    
C41   C45   S    
C12   O3    S    
C31   C32   A    
C23   H45   S    
O8    P7    S    
C6    H26   S    
C26   H36   S    
C10   C14   A    
C48   H62   S    
C12   H40   S    
O19   P6    D    
C49   C50   S    
O24   P3    D    
C37   C38   A    
C25   P6    S    
C40   H3    S    
Ba2   O8    S    
O2    P2    S    
O18   P6    S    
C27   C32   A    
Ba2   O13   S    
C29   H38   S    
O23   P3    S    
C3    H18   S    
C41   C42   S    
C27   C28   A    
C8    H29   S    
C29   C30   A    
C28   C29   A    
C50   H56   S    
C15   C16   A    
C34   O7    S    
C40   H2    S    
C17   C26   A    
Ba2   O5    S    
C15   P1    S    
C40   H4    S    
O21   P6    S    
C1    H11   S    
O16   P8    D    
C4    H21   S    
C18   C20   A    
Ba2   O6    S    
O22   P2    D    
C5    O11   S    
C11   C13   A    
O12   P1    S    
C7    H28   S    
C36   P2    S    
C46   C47   S    
C43   O2    S    
C47   H50   S    
Ba1   O8    S    
C1    H55   S    
Ba2   P4    S    
C2    O21   S    
C7    O17   S    
C39   H42   S    
C17   P4    S    
C6    H25   S    
C32   P7    S    
C44   H14   S    
O3    P3    S    
C16   C25   A    
C46   H52   S    
C47   H49   S    
Ba1   O5    S    
C5    H23   S    
C9    C10   A    
C48   C49   S    
Ba1   O13   S    
Ba2   O12   S    
C11   C15   A    
C30   C31   A    
C33   C38   A    
C31   H41   S    
C20   H34   S    
C49   H60   S    
C41   O20   S    
C50   H57   S    
C41   H5    S    
C3    C4    S    
C35   P3    S    
C9    C26   A    
C2    H15   S    
C6    H27   S    
C14   H32   S    
Ba1   P1    S    
C30   C38   S    
C12   C23   S    
C35   C39   A    
C11   C24   A    
C34   H46   S    
O17   P8    S    
O20   P1    S    
C10   C19   A    
C42   H8    S    
C4    H20   S    
C9    P8    S    
C18   C19   A    
C45   H53   S    
C37   H39   S    
C20   C21   A    
Ba1   O22   S    
C21   H33   S    
O9    P5    S    
O10   P5    D    
C2    H1    S    
Ba1   O18   S    
C1    C2    S    
Ba1   O12   S    
C3    O15   S    
