data_mof_unit_65059.cif
_audit_creation_date              2012-12-10T17:30:06-0500
_audit_creation_method            fapswitch 2.2
_symmetry_space_group_name_H-M    P1
_symmetry_Int_Tables_number       1
_space_group_crystal_system       triclinic
_cell_length_a                    18.588588
_cell_length_b                    18.590636
_cell_length_c                    18.749949
_cell_angle_alpha                 109.222411
_cell_angle_beta                  109.71365
_cell_angle_gamma                 109.057953
_cell_volume                      5013.44516158

loop_
_atom_site_label
_atom_site_type_symbol
_atom_type_description
_atom_site_fract_x
_atom_site_fract_y
_atom_site_fract_z
_atom_type_partial_charge
C1    C     C_R   0.621290 0.619895 0.501117 0.738325
C2    C     C_3   0.178884 0.420360 0.201707 -0.136114
C3    C     C_3   0.219500 0.479839 0.300867 -0.206545
C4    C     C_3   0.311152 0.500534 0.312272 -0.039234
C5    C     C_3   0.730871 0.649670 0.449079 -0.355863
C6    C     C_3   0.801877 0.722207 0.449585 -0.396418
C7    C     C_3   0.650107 0.734807 0.458876 -0.392060
C8    C     C_3   0.765711 0.758097 0.595904 -0.382947
C9    C     C_3   0.690605 0.688871 0.501256 0.166992
C10   C     C_3   0.811168 0.812006 0.501493 0.164166
C11   C     C_3   0.720658 0.807094 0.458926 -0.361368
C12   C     C_R   0.379865 0.500266 0.380231 0.784463
C13   C     C_3   0.836600 0.830428 0.596070 -0.373036
C14   C     C_3   0.758697 0.486039 0.658738 -0.026704
C15   C     C_3   0.826933 0.480705 0.730069 -0.395865
C16   C     C_3   0.746301 0.590606 0.774488 -0.356053
C17   C     C_3   0.648833 0.424145 0.702746 -0.008601
C18   C     C_3   0.692328 0.501754 0.687914 0.096495
C19   C     C_3   0.812061 0.498260 0.809365 0.103290
C20   C     C_3   0.816893 0.588483 0.844525 -0.425651
C21   C     C_3   0.718935 0.426853 0.778625 -0.375390
C22   C     C_3   0.334100 0.235664 0.494393 -0.458349
C23   C     C_R   0.380535 0.379986 0.500415 0.769770
C24   C     C_3   0.261738 0.160361 0.490303 0.025614
C25   C     C_3   0.307044 0.345496 0.584778 -0.358305
C26   C     C_3   0.220610 0.267490 0.416275 0.125635
C27   C     C_3   0.311492 0.310158 0.499417 0.091403
C28   C     C_3   0.190127 0.185619 0.497896 0.106157
C29   C     C_3   0.232349 0.274172 0.581039 -0.382562
C30   C     C_3   0.148541 0.198479 0.418512 -0.414779
C31   C     C_R   0.998669 0.620338 0.118676 0.762215
C32   C     C_R   0.121231 0.499895 0.121010 0.818198
C33   C     C_R   0.001361 0.379886 0.881333 0.810490
C34   C     C_R   0.622809 0.502376 0.619745 0.752757
C35   C     C_R   0.880884 0.498728 0.879488 0.749729
C36   C     C_R   0.004291 0.884193 0.380661 0.795373
C37   C     C_R   0.879898 0.881165 0.501257 0.748779
C38   C     C_R   0.001244 0.121910 0.619432 0.765632
C39   C     C_R   0.120214 0.117453 0.497712 0.754653
C40   C     C_3   0.906089 0.656284 0.188424 0.523655
C41   C     C_3   0.922005 0.729029 0.272953 -0.531615
C42   C     C_3   0.075742 0.725270 0.275441 -0.486157
C43   C     C_3   0.012116 0.774637 0.166636 0.352046
C44   C     C_3   0.996691 0.691540 0.184635 -0.051415
C45   C     C_3   0.319525 0.578502 0.298480 0.325149
C46   C     C_3   0.004438 0.816950 0.310425 -0.104803
C47   C     C_3   0.086465 0.805122 0.347692 0.079880
C48   C     C_3   0.003348 0.842037 0.237298 0.143329
C49   C     C_3   0.941482 0.217805 0.794053 -0.354286
C50   C     C_3   0.942488 0.146393 0.723219 0.013109
C51   C     C_3   0.963291 0.313133 0.726105 -0.471123
C52   C     C_3   0.096455 0.326948 0.838977 0.114303
C53   C     C_3   0.001081 0.310655 0.812250 0.068284
C54   C     C_3   0.999649 0.189633 0.688186 0.105589
C55   C     C_3   0.967778 0.246012 0.655064 -0.353602
C56   C     C_3   0.228664 0.559833 0.287680 -0.164579
C57   C     C_3   0.094988 0.254084 0.766834 -0.477752
C58   C     C_3   0.189546 0.500334 0.189557 -0.013080
C59   C     C_3   0.281139 0.521199 0.200424 -0.204402
C60   C     C_3   0.271409 0.441290 0.213889 -0.211359
Cu1   Cu    Cu3+1 0.500160 0.437540 0.437660 0.906192
Cu2   Cu    Cu3+1 0.499840 0.562460 0.562340 0.916671
Cu3   Cu    Cu3+1 0.938720 0.437560 0.001120 0.923653
Cu4   Cu    Cu3+1 0.063680 0.562470 0.001100 0.899813
Cu5   Cu    Cu3+1 0.062620 0.000040 0.562660 0.897374
Cu6   Cu    Cu3+1 0.937380 0.999960 0.437350 0.897880
H1    H     H_    0.210602 0.608744 0.316742 0.112723
H2    H     H_    0.783848 0.707342 0.381428 0.149227
H3    H     H_    0.596663 0.686040 0.390590 0.141791
H4    H     H_    0.699890 0.792903 0.390552 0.175184
H5    H     H_    0.739587 0.788418 0.635030 0.176486
H6    H     H_    0.795673 0.726310 0.627734 0.138314
H7    H     H_    0.900566 0.833055 0.628188 0.177121
H8    H     H_    0.844509 0.895005 0.635244 0.136909
H9    H     H_    0.620823 0.763905 0.494681 0.175916
H10   H     H_    0.725612 0.871028 0.495094 0.158829
H11   H     H_    0.720813 0.421225 0.598207 0.160197
H12   H     H_    0.820673 0.414604 0.702175 0.125434
H13   H     H_    0.895215 0.528503 0.752236 0.191375
H14   H     H_    0.777791 0.645207 0.763927 0.140009
H15   H     H_    0.882845 0.641028 0.866560 0.180632
H16   H     H_    0.625900 0.363128 0.643185 0.097761
H17   H     H_    0.715070 0.361591 0.756357 0.142503
H18   H     H_    0.706602 0.439617 0.834326 0.190904
H19   H     H_    0.704423 0.607251 0.799136 0.193738
H20   H     H_    0.306177 0.539465 0.159447 0.140328
H21   H     H_    0.806163 0.602067 0.900992 0.166615
H22   H     H_    0.399280 0.262007 0.550275 0.169503
H23   H     H_    0.340045 0.208412 0.435459 0.156649
H24   H     H_    0.227239 0.103695 0.423271 0.076658
H25   H     H_    0.370314 0.367558 0.641375 0.162496
H26   H     H_    0.257014 0.269798 0.641163 0.175714
H27   H     H_    0.225694 0.230179 0.359580 0.102670
H28   H     H_    0.113253 0.135213 0.356771 0.128503
H29   H     H_    0.289195 0.392297 0.184461 0.149302
H30   H     H_    0.098020 0.217118 0.420786 0.204656
H31   H     H_    0.298767 0.403998 0.598461 0.181779
H32   H     H_    0.181701 0.293674 0.580774 0.137309
H33   H     H_    0.863620 0.737626 0.263004 0.149237
H34   H     H_    0.930778 0.709966 0.324188 0.164573
H35   H     H_    0.069161 0.675103 0.294876 0.156273
H36   H     H_    0.088324 0.791128 0.401603 0.163864
H37   H     H_    0.119389 0.354641 0.160327 0.141945
H38   H     H_    0.061398 0.907477 0.273020 0.126361
H39   H     H_    0.137495 0.738150 0.273995 0.178426
H40   H     H_    0.874230 0.207731 0.774799 0.194110
H41   H     H_    0.963558 0.213285 0.854631 0.135148
H42   H     H_    0.978975 0.120036 0.757544 0.102399
H43   H     H_    0.893967 0.298313 0.703473 0.165402
H44   H     H_    0.194744 0.463807 0.342723 0.146655
H45   H     H_    0.903677 0.205342 0.593961 0.185630
H46   H     H_    0.134337 0.390511 0.843739 0.154511
H47   H     H_    0.122242 0.217851 0.793730 0.189990
H48   H     H_    0.138800 0.284610 0.744648 0.142559
H49   H     H_    0.000773 0.379692 0.736623 0.167991
H50   H     H_    0.014659 0.281832 0.638474 0.147919
H51   H     H_    0.678764 0.600188 0.380412 0.172034
H52   H     H_    0.760371 0.615900 0.478065 0.165709
H53   H     H_    0.865606 0.723581 0.479188 0.162816
O1    O     O_R   0.591300 0.538410 0.447360 -0.594213
O2    O     O_R   0.053760 0.643910 0.092060 -0.622151
O3    O     O_R   0.039800 0.447260 0.092470 -0.591387
O4    O     O_R   0.145330 0.552750 0.092450 -0.585055
O5    O     O_R   0.948640 0.356110 0.910160 -0.598496
O6    O     O_R   0.054170 0.461590 0.910140 -0.592775
O7    O     O_R   0.857070 0.447280 0.909760 -0.603005
O8    O     O_R   0.962600 0.552760 0.909740 -0.598387
O9    O     O_R   0.053170 0.908900 0.462020 -0.597668
O10   O     O_R   0.947410 0.908840 0.356190 -0.578901
O11   O     O_R   0.961720 0.908880 0.552900 -0.590442
O12   O     O_R   0.591030 0.643900 0.552660 -0.590057
O13   O     O_R   0.855960 0.908820 0.447080 -0.592805
O14   O     O_R   0.052590 0.091170 0.643810 -0.599018
O15   O     O_R   0.946830 0.091100 0.537990 -0.585097
O16   O     O_R   0.144040 0.091190 0.552920 -0.588700
O17   O     O_R   0.038280 0.091120 0.447100 -0.607454
O18   O     O_R   0.408770 0.447260 0.356000 -0.592321
O19   O     O_R   0.408500 0.552750 0.461290 -0.571007
O20   O     O_R   0.408970 0.356100 0.447340 -0.601208
O21   O     O_R   0.408700 0.461590 0.552640 -0.589336
O22   O     O_R   0.591500 0.447250 0.538710 -0.602693
O23   O     O_R   0.591230 0.552740 0.644000 -0.590063
O24   O     O_R   0.948230 0.538430 0.092080 -0.548828
C61   C     C_3   0.804676 0.555235 0.636816 -0.388171
C62   C     C_3   0.844624 0.523497 0.582520 -0.873779
H54   H     H_    0.894470 0.509189 0.617908 0.251167
H55   H     H_    0.792553 0.463554 0.519403 0.251231
H56   H     H_    0.876984 0.575077 0.568947 0.237642
H57   H     H_    0.757048 0.570111 0.598884 0.193057
H58   H     H_    0.857454 0.617556 0.697415 0.204592
N1    N     N_2   0.397452 0.663757 0.352971 -0.428069
H59   H     H_    0.453493 0.660926 0.359201 0.229769
C63   C     C_3   0.390523 0.730442 0.332389 -0.706141
H60   H     H_    0.452011 0.793940 0.379866 0.224643
H61   H     H_    0.335140 0.738288 0.336688 0.230770
H62   H     H_    0.380409 0.713013 0.265796 0.220748
C64   C     C_3   0.563928 0.408719 0.708243 -0.390538
C65   C     C_3   0.570420 0.482076 0.782369 -0.828327
H63   H     H_    0.632280 0.513450 0.843834 0.242558
H64   H     H_    0.564196 0.531963 0.764777 0.259954
H65   H     H_    0.515132 0.454487 0.793479 0.222347
H66   H     H_    0.512511 0.394861 0.646327 0.186653
H67   H     H_    0.540406 0.348717 0.713803 0.192254
C66   C     C_3   0.303497 0.126724 0.550024 -0.346633
C67   C     C_3   0.351213 0.187778 0.648587 -0.816457
H68   H     H_    0.390368 0.256806 0.667248 0.239760
H69   H     H_    0.304180 0.181985 0.673017 0.257430
H70   H     H_    0.396695 0.168166 0.681916 0.220999
H71   H     H_    0.254083 0.062469 0.534037 0.215359
H72   H     H_    0.351815 0.113577 0.533790 0.181949
N2    N     N_2   0.196091 0.329032 0.397553 -0.424928
H73   H     H_    0.226059 0.355497 0.368154 0.237611
C68   C     C_3   0.183458 0.389515 0.457444 -0.692569
H74   H     H_    0.135943 0.404923 0.420220 0.215595
H75   H     H_    0.246385 0.451569 0.504823 0.229298
H76   H     H_    0.156298 0.361663 0.492276 0.225512
N3    N     N_2   0.874977 0.572702 0.189590 -0.383864
H77   H     H_    0.813033 0.550438 0.182706 0.241670
C69   C     C_3   0.927811 0.553033 0.249196 -0.710055
H78   H     H_    0.884357 0.492148 0.244700 0.211816
H79   H     H_    0.962299 0.605402 0.317865 0.200370
H80   H     H_    0.974027 0.538821 0.230289 0.250278
N4    N     N_2   0.833610 0.645175 0.113534 -0.431027
H81   H     H_    0.789338 0.660875 0.126256 0.231536
C70   C     C_3   0.784941 0.564823 0.030737 -0.691710
H82   H     H_    0.737139 0.571066 0.982171 0.201208
H83   H     H_    0.747380 0.507989 0.035366 0.226111
H84   H     H_    0.828260 0.552544 0.006572 0.245577
C71   C     C_3   0.105343 0.819729 0.172649 -0.327261
C72   C     C_3   0.149135 0.917475 0.199590 -0.922924
H85   H     H_    0.102242 0.937367 0.170574 0.254149
H86   H     H_    0.185459 0.959026 0.271600 0.246599
H87   H     H_    0.198469 0.931831 0.178123 0.242385
H88   H     H_    0.156433 0.813275 0.216441 0.215916
H89   H     H_    0.098458 0.785161 0.107880 0.221431
N5    N     N_2   0.943473 0.741896 0.077243 -0.373777
H90   H     H_    0.929091 0.681703 0.033211 0.234901
C73   C     C_3   0.945629 0.796133 0.036258 -0.663797
H91   H     H_    0.879906 0.765669 0.978886 0.213627
H92   H     H_    0.993826 0.801103 0.013178 0.204020
H93   H     H_    0.960811 0.861991 0.079415 0.257473
N6    N     N_2   0.926672 0.851221 0.196516 -0.375049
H94   H     H_    0.866797 0.809460 0.185256 0.275789
C74   C     C_3   0.939252 0.936323 0.207065 -0.712430
H95   H     H_    0.884837 0.926759 0.149796 0.217813
H96   H     H_    0.002069 0.975129 0.211685 0.199869
H97   H     H_    0.938545 0.974588 0.265923 0.261559
N7    N     N_2   0.168770 0.882900 0.381467 -0.416508
H98   H     H_    0.167545 0.940865 0.401672 0.230375
C75   C     C_3   0.247201 0.890787 0.443222 -0.729734
H99   H     H_    0.305997 0.945785 0.455847 0.222279
H100  H     H_    0.251284 0.830154 0.417399 0.233290
H101  H     H_    0.247495 0.904302 0.505653 0.224537
C76   C     C_3   0.850067 0.064337 0.654156 -0.386406
C77   C     C_3   0.773446 0.079901 0.615031 -0.820833
H102  H     H_    0.747217 0.094699 0.659860 0.230300
H103  H     H_    0.791518 0.133237 0.599770 0.249891
H104  H     H_    0.719144 0.019166 0.553730 0.228558
H105  H     H_    0.853904 0.021032 0.600232 0.195148
H106  H     H_    0.831584 0.025594 0.685523 0.181213
N8    N     N_2   0.138687 0.332360 0.923206 -0.428731
H107  H     H_    0.113442 0.274320 0.923690 0.250787
C78   C     C_3   0.233631 0.381141 0.970820 -0.732847
H108  H     H_    0.258365 0.382750 0.034396 0.226633
H109  H     H_    0.257100 0.449600 0.983575 0.233482
H110  H     H_    0.260359 0.349654 0.933500 0.224311

loop_
_geom_bond_atom_site_label_1
_geom_bond_atom_site_label_2
_ccdc_geom_bond_type
C49   H40   S    
C65   H64   S    
N2    H73   S    
C34   O22   A    
C8    C13   S    
C33   C53   S    
C14   C18   S    
C66   H72   S    
C19   C20   S    
C32   C58   S    
N4    H81   S    
Cu3   O3    S    
Cu5   O11   S    
C78   H110  S    
C52   N8    S    
C49   H41   S    
C50   C76   S    
C39   O16   A    
C68   H74   S    
C52   C53   S    
C15   C19   S    
N2    C68   S    
C28   C29   S    
C26   C27   S    
C67   H68   S    
N6    C74   S    
C47   N7    S    
C10   C37   S    
C78   H109  S    
C23   O20   A    
C66   C67   S    
C19   C21   S    
C45   C59   S    
C76   H105  S    
C77   H103  S    
C62   H54   S    
C5    C6    S    
C75   H101  S    
C2    C60   S    
C70   H83   S    
C15   H12   S    
C55   H50   S    
C52   H46   S    
C3    H44   S    
Cu4   O2    S    
C48   H38   S    
C20   H21   S    
C48   N6    S    
C37   O11   A    
C17   H16   S    
C14   H11   S    
C49   C50   S    
C30   H30   S    
C65   H65   S    
Cu6   O15   S    
C16   H14   S    
C71   H88   S    
C6    C10   S    
C64   C65   S    
C15   H13   S    
C21   H17   S    
C45   C56   S    
N7    H98   S    
N3    C69   S    
C33   O5    A    
C61   H58   S    
C41   C46   S    
C41   H33   S    
C36   C46   S    
C73   H91   S    
C23   C27   S    
C63   H61   S    
C17   C64   S    
C43   C48   S    
C64   H67   S    
C51   C55   S    
Cu1   Cu2   S    
C72   H87   S    
C16   C20   S    
C39   O17   A    
C40   N4    S    
C26   H27   S    
C6    H2    S    
C59   C60   S    
C51   H43   S    
C47   H36   S    
C20   H15   S    
Cu1   O1    S    
C50   H42   S    
C32   O4    A    
N1    C63   S    
C66   H71   S    
C36   O9    A    
C42   C44   S    
Cu2   O23   S    
C62   H55   S    
Cu3   O5    S    
C21   H18   S    
Cu6   O13   S    
C4    C45   S    
C68   H75   S    
C25   C29   S    
C73   H92   S    
C46   C48   S    
C8    H6    S    
C25   H25   S    
C31   C44   S    
Cu5   O9    S    
C32   O3    A    
C23   O21   A    
C1    C9    S    
C31   O2    A    
C78   H108  S    
N5    C73   S    
N6    H94   S    
C77   H104  S    
C76   C77   S    
C8    C9    S    
C70   H84   S    
C57   H47   S    
C28   C39   S    
C58   C59   S    
C22   H22   S    
C51   H49   S    
C69   H78   S    
C5    H51   S    
C43   N5    S    
C51   C53   S    
C1    O1    A    
C35   O7    A    
C7    C11   S    
C43   C44   S    
C72   H85   S    
C5    C9    S    
C61   H57   S    
C24   C66   S    
N8    H107  S    
C3    C56   S    
C71   H89   S    
C38   C54   S    
C14   C61   S    
N1    H59   S    
Cu4   O8    S    
C4    C60   S    
C73   H93   S    
C33   O6    A    
C17   C18   S    
C41   H34   S    
C16   C18   S    
C50   C54   S    
Cu2   O19   S    
C63   H62   S    
C35   O8    A    
C18   C34   S    
Cu5   O16   S    
N3    H77   S    
Cu6   O10   S    
Cu6   O17   S    
C29   H32   S    
C25   H31   S    
C40   C41   S    
C74   H96   S    
C26   N2    S    
Cu5   Cu6   S    
C67   H70   S    
C75   H100  S    
C22   C27   S    
C65   H63   S    
C22   C24   S    
C4    C12   S    
C3    C4    S    
C56   H1    S    
C42   H35   S    
C40   N3    S    
C6    H53   S    
C62   H56   S    
Cu4   O6    S    
C68   H76   S    
Cu1   O22   S    
C54   C55   S    
C7    C9    S    
C46   C47   S    
C34   O23   A    
C8    H5    S    
C72   H86   S    
C55   H45   S    
C12   O18   A    
Cu2   O12   S    
Cu1   O20   S    
C24   C28   S    
C13   H7    S    
N5    H90   S    
C1    O12   A    
C10   C13   S    
C24   H24   S    
C7    H3    S    
C7    H9    S    
C2    C58   S    
C26   C30   S    
C57   H48   S    
C25   C27   S    
Cu4   O4    S    
C37   O13   A    
C5    H52   S    
C61   C62   S    
C10   C11   S    
C69   H80   S    
N4    C70   S    
C2    C3    S    
C59   H20   S    
N8    C78   S    
N7    C75   S    
C19   C35   S    
C36   O10   A    
Cu1   O18   S    
C70   H82   S    
C16   H19   S    
C2    H37   S    
C49   C53   S    
C28   C30   S    
C22   H23   S    
C56   C58   S    
C74   H97   S    
C12   O19   A    
C42   C47   S    
C38   O15   A    
C77   H102  S    
C31   O24   A    
C71   C72   S    
C42   H39   S    
C17   C21   S    
Cu3   O7    S    
C52   C57   S    
C11   H4    S    
Cu3   Cu4   S    
C60   H29   S    
C40   C44   S    
C74   H95   S    
C43   C71   S    
C67   H69   S    
C75   H99   S    
C30   H28   S    
Cu3   O24   S    
C14   C15   S    
C76   H106  S    
Cu2   O21   S    
C63   H60   S    
C11   H10   S    
C45   N1    S    
C64   H66   S    
C38   O14   A    
C29   H26   S    
Cu5   O14   S    
C13   H8    S    
C69   H79   S    
C54   C57   S    
