data_mof_unit_34860.cif
_audit_creation_date              2012-12-11T15:54:35-0500
_audit_creation_method            fapswitch 2.2
_symmetry_space_group_name_H-M    P1
_symmetry_Int_Tables_number       1
_space_group_crystal_system       triclinic
_cell_length_a                    6.933384
_cell_length_b                    14.660927
_cell_length_c                    16.005937
_cell_angle_alpha                 89.965448
_cell_angle_beta                  89.356673
_cell_angle_gamma                 90.235589
_cell_volume                      1626.8842278

loop_
_atom_site_label
_atom_site_type_symbol
_atom_type_description
_atom_site_fract_x
_atom_site_fract_y
_atom_site_fract_z
_atom_type_partial_charge
O1    O     O_R   0.638180 0.333920 0.163320 -0.530919
O2    O     O_R   0.361820 0.666080 0.836680 -0.527963
O3    O     O_R   0.308470 0.344960 0.336080 -0.552652
O4    O     O_R   0.691530 0.655040 0.663920 -0.551061
O5    O     O_R   0.138140 0.166110 0.336680 -0.540353
O6    O     O_R   0.861860 0.833890 0.663320 -0.539312
C1    C     C_R   0.477228 0.367154 0.365098 0.666933
C2    C     C_R   0.522771 0.632838 0.634909 0.673278
O7    O     O_R   0.308460 0.344950 0.163930 -0.526201
O8    O     O_R   0.691540 0.655050 0.836070 -0.530446
O9    O     O_R   0.138140 0.166100 0.163310 -0.528493
O10   O     O_R   0.861860 0.833900 0.836690 -0.530660
C3    C     C_R   0.478874 0.365721 0.134056 0.750683
C4    C     C_R   0.521392 0.634595 0.866326 0.744805
O11   O     O_R   0.638180 0.333930 0.336700 -0.546775
O12   O     O_R   0.361820 0.666070 0.663300 -0.543887
O13   O     O_3   0.471670 0.191340 0.250000 -0.366643
O14   O     O_3   0.528330 0.808660 0.750000 -0.368892
V1    V     V_3+5 0.196830 0.260900 0.250000 1.473649
V2    V     V_3+5 0.803170 0.739100 0.750000 1.466327
O15   O     O_R   0.808420 0.155070 0.163920 -0.528658
O16   O     O_R   0.191580 0.844930 0.836080 -0.542927
C5    C     C_R   0.978135 0.134623 0.133681 0.742258
C6    C     C_R   0.021628 0.864165 0.867284 0.714876
O17   O     O_R   0.808420 0.155080 0.336070 -0.544604
O18   O     O_R   0.191580 0.844920 0.663930 -0.542955
C7    C     C_R   0.976576 0.133205 0.364816 0.678618
C8    C     C_R   0.023423 0.866803 0.635192 0.683923
V3    V     V_3+5 0.696830 0.239130 0.250000 1.480608
V4    V     V_3+5 0.303170 0.760870 0.750000 1.465477
O19   O     O_3   0.971850 0.308690 0.250010 -0.375636
O20   O     O_3   0.028150 0.691310 0.749990 -0.362552
H1    H     H_    0.766166 0.831765 0.266598 0.132906
H2    H     H_    0.233673 0.168261 0.733437 0.127588
C9    C     C_R   0.106374 0.183861 0.529946 -0.142848
C10   C     C_R   0.893591 0.816152 0.470070 -0.143905
C11   C     C_R   0.171488 0.210508 0.608293 -0.119348
C12   C     C_R   0.828426 0.789510 0.391732 -0.117352
C13   C     C_R   0.184473 0.147049 0.672468 -0.108883
C14   C     C_R   0.815417 0.852971 0.327560 -0.101189
C15   C     C_R   0.132759 0.056399 0.658773 -0.134848
C16   C     C_R   0.867169 0.943616 0.341248 -0.134759
C17   C     C_R   0.068310 0.026903 0.579584 0.068454
C18   C     C_R   0.931663 0.973110 0.420430 0.067911
C19   C     C_R   0.054528 0.092062 0.513721 0.069274
C20   C     C_R   0.945455 0.907950 0.486293 0.069035
C21   C     C_R   0.013918 0.934741 0.565965 -0.180278
C22   C     C_R   0.986076 0.065269 0.434046 -0.178609
H3    H     H_    0.095636 0.236365 0.482744 0.103214
H4    H     H_    0.904344 0.763646 0.517270 0.103476
H5    H     H_    0.210684 0.280998 0.619401 0.122349
H6    H     H_    0.789206 0.719022 0.380627 0.123303
H7    H     H_    0.142655 0.010179 0.711221 0.102880
H8    H     H_    0.857253 0.989836 0.288802 0.101267
C23   C     C_R   0.152871 0.997288 0.944120 -0.163149
C24   C     C_R   0.844307 0.001385 0.057168 -0.139062
H9    H     H_    0.269779 0.998375 0.898519 0.153857
H10   H     H_    0.726270 0.001315 0.102215 0.153857
C25   C     C_R   0.144947 0.065951 0.005131 -0.002971
C26   C     C_R   0.850562 0.933208 0.995612 0.021520
C27   C     C_R   0.990207 0.067325 0.063943 -0.157977
C28   C     C_R   0.008046 0.930753 0.937617 -0.134171
C29   C     C_R   0.320150 0.471987 0.470378 -0.162605
C30   C     C_R   0.679847 0.527994 0.529641 -0.163295
H11   H     H_    0.179142 0.451283 0.448818 0.112734
H12   H     H_    0.820854 0.548697 0.551202 0.113391
C31   C     C_R   0.331637 0.535622 0.535451 -0.147114
C32   C     C_R   0.668359 0.464359 0.464568 -0.148155
H13   H     H_    0.198739 0.562156 0.561773 0.116732
H14   H     H_    0.801258 0.437824 0.438247 0.115909
C33   C     C_R   0.511656 0.564496 0.566093 -0.040791
C34   C     C_R   0.488342 0.435489 0.433922 -0.038612
C35   C     C_R   0.351141 0.500742 0.059319 -0.132525
C36   C     C_R   0.653411 0.501263 0.942823 -0.168151
H15   H     H_    0.233871 0.501994 0.104744 0.138721
H16   H     H_    0.768660 0.499517 0.896500 0.168758
C37   C     C_R   0.356194 0.566524 0.995845 0.031429
C38   C     C_R   0.646231 0.433682 0.004996 -0.028497
C39   C     C_R   0.508591 0.567133 0.935999 -0.129778
C40   C     C_R   0.493224 0.433437 0.064852 -0.153252
C41   C     C_2   0.198011 0.632681 0.994396 0.747311
O21   O     O_2   0.185292 0.690977 0.048725 -0.566401
O22   O     O_R   0.058070 0.625218 0.933019 -0.641036
H17   H     H_    0.959075 0.675107 0.937735 0.331392
C42   C     C_2   0.792190 0.360697 0.999909 0.773064
O23   O     O_2   0.961357 0.380128 0.986319 -0.544235
O24   O     O_R   0.734654 0.269534 0.004966 -0.649374
H18   H     H_    0.843694 0.226136 0.991449 0.313881
C43   C     C_2   0.291782 0.139133 0.999681 0.773076
O25   O     O_2   0.460589 0.119965 0.985759 -0.538613
O26   O     O_R   0.235328 0.230233 0.004789 -0.652324
H19   H     H_    0.344817 0.273830 0.991284 0.313487
C44   C     C_2   0.691722 0.865250 0.997427 0.750715
O27   O     O_2   0.725251 0.784296 0.987917 -0.577018
O28   O     O_R   0.503553 0.893731 0.015082 -0.657330
H20   H     H_    0.407545 0.841423 0.015358 0.317118

loop_
_geom_bond_atom_site_label_1
_geom_bond_atom_site_label_2
_ccdc_geom_bond_type
C7    C22   S    
C12   C14   A    
O24   H18   S    
C29   H11   S    
C8    C21   S    
C44   O27   D    
C23   C25   A    
O13   V3    S    
O28   H20   S    
O4    C2    A    
V1    O19   S    
C41   O21   D    
C13   C15   A    
C42   O23   D    
O9    V1    S    
C36   H16   S    
C30   C32   A    
C9    C11   A    
O3    C1    A    
C11   H5    S    
C38   C40   A    
C12   H6    S    
O12   V4    S    
C23   C28   A    
C26   C28   A    
C25   C43   S    
C30   C33   A    
O7    C3    A    
O5    C7    A    
O7    V1    S    
O6    C8    A    
O8    V2    S    
C9    H3    S    
O3    V1    S    
O14   V4    S    
C43   O26   S    
C31   C33   A    
C26   C44   S    
C37   C39   A    
C3    C40   S    
C2    O12   A    
V3    O19   S    
C15   C17   A    
C16   C18   A    
C41   O22   S    
C18   C20   A    
O11   V3    S    
C42   O24   S    
O17   V3    S    
C29   C31   A    
C25   C27   A    
H1    C14   S    
H2    C13   S    
O8    C4    A    
O26   H19   S    
C1    O11   A    
O15   V3    S    
C24   C26   A    
C31   H13   S    
C30   H12   S    
O22   H17   S    
C37   C41   S    
C32   C34   A    
O10   V2    S    
O1    V3    S    
C4    C39   S    
C10   C20   A    
C17   C19   A    
C15   H7    S    
C38   C42   S    
O18   V4    S    
C36   C39   A    
C23   H9    S    
O16   C6    A    
O1    C3    A    
C35   H15   S    
C10   C12   A    
C9    C19   A    
C1    C34   S    
C10   H4    S    
V2    O20   S    
C19   C22   A    
C20   C21   A    
C2    C33   S    
C6    C28   S    
O16   V4    S    
C14   C16   A    
O5    V1    S    
O17   C7    A    
O6    V2    S    
O10   C6    A    
O18   C8    A    
O2    V4    S    
O15   C5    A    
C11   C13   A    
C16   H8    S    
V4    O20   S    
C44   O28   S    
O9    C5    A    
O13   V1    S    
C35   C40   A    
C24   H10   S    
O14   V2    S    
O2    C4    A    
O4    V2    S    
C5    C27   S    
C29   C34   A    
C32   H14   S    
C36   C38   A    
C35   C37   A    
C24   C27   A    
C43   O25   D    
C17   C21   A    
C18   C22   A    
