data_mof_unit_48528.cif
_audit_creation_date              2013-03-05T15:51:55-0500
_audit_creation_method            fapswitch 2.2
_symmetry_space_group_name_H-M    P1
_symmetry_Int_Tables_number       1
_space_group_crystal_system       triclinic
_cell_length_a                    9.632616
_cell_length_b                    10.736889
_cell_length_c                    17.344566
_cell_angle_alpha                 90.759459
_cell_angle_beta                  85.680491
_cell_angle_gamma                 91.537835
_cell_volume                      1787.99692746

loop_
_atom_site_label
_atom_site_type_symbol
_atom_site_description
_atom_site_fract_x
_atom_site_fract_y
_atom_site_fract_z
_atom_type_partial_charge
O1    O     O_R   0.381190 0.680360 0.500010 -0.587636
O2    O     O_R   0.618760 0.680340 0.500000 -0.537237
C1    C     C_R   0.501158 0.737217 0.500830 0.775495
O3    O     O_R   0.367440 0.500030 0.613600 -0.543625
O4    O     O_R   0.605010 0.500010 0.613590 -0.557207
C2    C     C_R   0.481421 0.499695 0.649737 0.806640
Cu1   Cu    Cu3+1 0.359340 0.500010 0.500010 0.995121
Cu2   Cu    Cu3+1 0.640660 0.499990 0.499990 1.002183
O5    O     O_R   0.381240 0.319660 0.500000 -0.552669
O6    O     O_R   0.618810 0.319640 0.499990 -0.593096
O7    O     O_R   0.394990 0.499990 0.386410 -0.592031
O8    O     O_R   0.632560 0.499970 0.386400 -0.611692
C3    C     C_R   0.498763 0.262936 0.500623 0.765737
C4    C     C_R   0.518312 0.496824 0.350297 0.761668
C5    C     C_R   0.471051 0.497753 0.734266 -0.123160
C6    C     C_R   0.592490 0.500872 0.773779 -0.165273
C7    C     C_R   0.584171 0.499451 0.853716 -0.193550
C8    C     C_R   0.454201 0.491713 0.895982 0.046935
C9    C     C_R   0.330501 0.487213 0.856790 0.355429
C10   C     C_R   0.340582 0.491649 0.775936 -0.207808
C11   C     C_R   0.408397 0.454390 0.148828 -0.139636
C12   C     C_R   0.403195 0.470253 0.228307 -0.200672
C13   C     C_R   0.655825 0.479170 0.222984 -0.199495
C14   C     C_R   0.660889 0.463532 0.142915 -0.145390
C15   C     C_R   0.537192 0.453647 0.105464 0.170577
C16   C     C_2   0.448436 0.497629 0.980693 -0.128964
C17   C     C_2   0.543852 0.444170 0.020995 -0.222619
C18   C     C_R   0.526642 0.483923 0.266044 -0.027579
H1    H     H_    0.694562 0.505599 0.743123 0.219795
H2    H     H_    0.302008 0.470710 0.260098 0.161567
H3    H     H_    0.752466 0.487601 0.250987 0.154965
H4    H     H_    0.630800 0.395960 0.991721 0.165283
H5    H     H_    0.311436 0.441868 0.121562 0.161378
H6    H     H_    0.246281 0.487643 0.745596 0.220059
H7    H     H_    0.363853 0.548314 0.010407 0.177880
H8    H     H_    0.680137 0.507347 0.882337 0.181447
H9    H     H_    0.761036 0.461641 0.110046 0.151515
H10   H     H_    0.429287 0.881953 0.389845 0.139906
C19   C     C_R   0.570592 0.875608 0.638748 -0.073249
H11   H     H_    0.566251 0.775129 0.642176 0.150778
C20   C     C_R   0.606724 0.943223 0.703805 -0.081048
H12   H     H_    0.631769 0.894777 0.755112 0.157970
C21   C     C_R   0.609295 0.072897 0.703127 -0.130280
H13   H     H_    0.636636 0.125154 0.753855 0.152278
C22   C     C_R   0.574377 0.135594 0.637673 -0.093226
H14   H     H_    0.574359 0.236244 0.640258 0.140299
C23   C     C_R   0.538132 0.068742 0.571001 0.126446
C24   C     C_R   0.538489 0.937273 0.571168 0.094090
C25   C     C_R   0.502388 0.871291 0.504311 -0.063445
C26   C     C_R   0.459639 0.933408 0.440365 -0.167108
H15   H     H_    0.424679 0.109207 0.390359 0.124770
C27   C     C_R   0.456710 0.061907 0.440682 -0.190037
C28   C     C_R   0.497204 0.129330 0.504822 -0.022892
C29   C     C_R   0.872657 0.318687 0.411390 -0.113802
H16   H     H_    0.773546 0.328786 0.388332 0.184978
C30   C     C_R   0.948519 0.214026 0.387584 -0.247381
H17   H     H_    0.905774 0.146453 0.348360 0.174051
C31   C     C_R   0.069952 0.188731 0.422868 -0.222447
H18   H     H_    0.111649 0.096129 0.417028 0.185042
C32   C     C_R   0.118150 0.272953 0.477787 0.462249
C33   C     C_R   0.071120 0.395785 0.476563 0.071297
C34   C     C_R   0.928849 0.406754 0.462302 0.137207
N1    N     N_R   0.852190 0.498790 0.499250 -0.247331
C35   C     C_R   0.925933 0.594812 0.532643 0.426912
H19   H     H_    0.128634 0.676814 0.551950 0.182591
C36   C     C_R   0.074148 0.597863 0.527809 -0.079447
N2    N     N_R   0.148060 0.498710 0.499220 -0.223190
N3    N     N_R   0.855665 0.693783 0.573219 0.130803
O9    O     O_R   0.810786 0.677247 0.644993 -0.385673
O10   O     O_R   0.875292 0.806971 0.548027 -0.353896
S1    S     S_3+6 0.123749 0.206309 0.570506 0.029461
O11   O     O_2   0.201067 0.086494 0.564762 -0.302369
O12   O     O_2   0.190034 0.294575 0.625596 -0.279887
O13   O     O_3   0.958653 0.175176 0.604859 -0.510761
H20   H     H_    0.966547 0.133534 0.654880 0.384423
N4    N     N_R   0.195029 0.475226 0.897574 0.113302
O14   O     O_R   0.175604 0.404467 0.957975 -0.372354
O15   O     O_R   0.087024 0.521327 0.868540 -0.353367

loop_
_geom_bond_atom_site_label_1
_geom_bond_atom_site_label_2
_geom_bond_distance
_ccdc_geom_bond_type
C20   H12   1.082612 S    
C9    C10   1.399775 A    
C8    C16   1.466750 S    
C1    C25   1.439769 S    
Cu1   Cu2   2.709826 S    
C19   C20   1.394738 A    
C22   H14   1.081005 S    
Cu1   O7    1.974399 S    
C16   C17   1.341099 D    
C35   N3    1.424674 S    
C9    N4    1.440197 S    
N4    O15   1.301588 A    
O4    C2    1.302977 A    
O7    C4    1.301601 A    
C11   H5    1.082672 S    
C31   C32   1.400670 A    
C5    C6    1.399013 A    
C30   H17   1.082517 S    
C8    C9    1.415006 A    
O5    C3    1.300622 A    
C2    C5    1.462370 S    
N3    O9    1.299544 A    
C26   C27   1.380657 A    
C13   C14   1.394018 A    
C7    H8    1.082560 S    
C23   C28   1.413468 A    
C10   H6    1.083144 S    
C36   N2    1.363691 A    
C12   C18   1.403323 A    
C11   C12   1.384071 A    
C20   C21   1.392039 A    
O3    Cu1   1.977572 S    
C14   H9    1.083476 S    
C3    C28   1.436945 S    
C22   C23   1.414101 A    
C5    C10   1.402188 A    
C29   C30   1.397706 A    
O13   H20   0.990173 S    
H15   C27   1.084286 S    
C14   C15   1.400326 A    
O3    C2    1.304712 A    
C19   H11   1.080768 S    
S1    O12   1.501425 D    
C6    C7    1.383014 A    
C29   C34   1.410397 A    
C32   S1    1.773915 S    
C31   H18   1.082944 S    
C32   C33   1.406865 A    
O1    C1    1.293318 A    
C13   H3    1.083101 S    
C21   H13   1.082692 S    
C34   N1    1.372424 A    
S1    O13   1.682216 S    
C33   N2    1.383236 A    
C23   C24   1.411713 A    
Cu2   O8    1.977572 S    
C7    C8    1.403377 A    
C13   C18   1.404016 A    
N4    O14   1.301415 A    
C21   C22   1.394658 A    
Cu2   O6    1.942179 S    
C24   C25   1.411835 A    
O8    C4    1.305996 A    
H19   C36   1.081281 S    
C27   C28   1.393803 A    
Cu1   O5    1.953471 S    
C11   C15   1.401690 A    
C29   H16   1.071154 S    
C12   H2    1.083200 S    
C17   H4    1.086027 S    
O1    Cu1   1.942179 S    
O2    Cu2   1.953471 S    
O6    C3    1.291685 A    
O4    Cu2   1.974399 S    
H10   C26   1.084260 S    
C15   C17   1.463958 S    
O2    C1    1.300330 A    
C6    H1    1.082278 S    
S1    O11   1.502133 D    
C30   C31   1.394920 A    
C33   C34   1.419038 A    
Cu2   N1    2.037046 S    
Cu1   N2    2.035929 S    
N1    C35   1.381946 A    
C16   H7    1.085684 S    
N3    O10   1.301107 A    
C25   C26   1.395576 A    
C4    C18   1.462408 S    
C35   C36   1.423361 A    
C19   C24   1.412114 A    
