data_mof_unit_56513.cif
_audit_creation_date              2012-12-11T14:04:19-0500
_audit_creation_method            fapswitch 2.2
_symmetry_space_group_name_H-M    P1
_symmetry_Int_Tables_number       1
_space_group_crystal_system       triclinic
_cell_length_a                    19.289313
_cell_length_b                    10.906668
_cell_length_c                    18.722465
_cell_angle_alpha                 89.810487
_cell_angle_beta                  89.277397
_cell_angle_gamma                 89.370702
_cell_volume                      3938.30152846

loop_
_atom_site_label
_atom_site_type_symbol
_atom_type_description
_atom_site_fract_x
_atom_site_fract_y
_atom_site_fract_z
_atom_type_partial_charge
C1    C     C_R   0.240858 0.467005 0.647640 0.535670
C2    C     C_R   0.039977 0.658768 0.559311 -0.046223
C3    C     C_2   0.666409 0.083240 0.481961 0.535307
C4    C     C_R   0.455513 0.154933 0.442237 -0.047867
C5    C     C_R   0.543485 0.167601 0.559953 -0.000672
C6    C     C_R   0.964577 0.897775 0.437446 -0.096941
C7    C     C_R   0.052282 0.886920 0.550906 -0.105607
C8    C     C_R   0.431175 0.375540 0.457314 -0.092634
C9    C     C_R   0.530854 0.395020 0.559829 -0.095245
C10   C     C_R   0.991616 0.005301 0.463913 -0.122555
C11   C     C_R   0.036461 0.999501 0.520265 -0.123052
C12   C     C_R   0.444370 0.489475 0.486848 -0.117507
C13   C     C_R   0.758562 0.459803 0.348998 0.590068
C14   C     C_R   0.496281 0.500034 0.536598 -0.119844
C15   C     C_R   0.025526 0.775477 0.526269 0.003095
C16   C     C_R   0.982489 0.781003 0.465834 0.012644
C17   C     C_R   0.514016 0.277564 0.533460 0.012749
C18   C     C_R   0.467403 0.269709 0.476253 0.002345
C19   C     C_R   0.017707 0.550087 0.523267 0.006313
C20   C     C_R   0.957376 0.567872 0.484775 -0.006093
C21   C     C_R   0.540669 0.064173 0.515595 -0.006262
C22   C     C_R   0.479512 0.046911 0.478296 0.010917
C23   C     C_R   0.024900 0.430756 0.552603 0.074467
C24   C     C_R   0.741413 0.961429 0.650414 0.575805
C25   C     C_R   0.896921 0.525420 0.521063 0.015303
C26   C     C_R   0.600129 0.020474 0.477686 0.014061
C27   C     C_R   0.471275 0.927743 0.450296 0.067893
C28   C     C_R   0.966433 0.375440 0.582396 -0.135468
C29   C     C_R   0.903204 0.433348 0.573485 -0.169162
C30   C     C_R   0.592924 0.925922 0.427335 -0.165079
C31   C     C_R   0.529687 0.868528 0.421395 -0.136392
C32   C     C_2   0.217953 0.814701 0.936992 0.048480
C33   C     C_2   0.756251 0.907422 0.074741 0.072205
C34   C     C_2   0.717966 0.314722 0.936989 0.049028
C35   C     C_R   0.258852 0.964125 0.351331 0.545068
C36   C     C_2   0.256274 0.407356 0.074704 0.072868
C37   C     C_2   0.249727 0.913009 0.080901 -0.050042
C38   C     C_2   0.753714 0.887568 0.910888 -0.058566
C39   C     C_2   0.749727 0.413007 0.080902 -0.048507
C40   C     C_2   0.253730 0.387542 0.910874 -0.057766
C41   C     C_R   0.209139 0.827035 0.640910 0.520700
C42   C     C_R   0.787972 0.835939 0.360121 0.576033
C43   C     C_R   0.710905 0.332785 0.639811 0.571558
C44   C     C_R   0.272582 0.374347 0.351613 0.533126
C45   C     C_2   0.185272 0.893479 0.056995 -0.094719
C46   C     C_2   0.222452 0.770425 0.516349 -0.136090
C47   C     C_2   0.806604 0.918301 0.951615 -0.129190
C48   C     C_2   0.685274 0.393452 0.057000 -0.095006
C49   C     C_2   0.306642 0.418248 0.951583 -0.129467
C50   C     C_2   0.171867 0.869751 0.981117 -0.156375
C51   C     C_2   0.808295 0.887741 0.026618 -0.189937
C52   C     C_2   0.671870 0.369733 0.981120 -0.156936
C53   C     C_2   0.308344 0.387765 0.026599 -0.189376
C54   C     C_2   0.982653 0.664435 0.912517 -0.101691
C55   C     C_2   0.955962 0.656202 0.066637 -0.119699
C56   C     C_2   0.482673 0.164433 0.912534 -0.099227
C57   C     C_2   0.727022 0.803783 0.474143 -0.086320
C58   C     C_2   0.455974 0.156201 0.066646 -0.120251
C59   C     C_2   0.937453 0.567055 0.022072 -0.168489
C60   C     C_2   0.961017 0.564045 0.947483 -0.122775
C61   C     C_2   0.437471 0.067049 0.022084 -0.168717
C62   C     C_2   0.461046 0.064039 0.947502 -0.121245
C63   C     C_R   0.060531 0.650642 0.636176 0.522224
C64   C     C_R   0.938157 0.652525 0.363035 0.592110
C65   C     C_R   0.561349 0.151924 0.636643 0.583864
C66   C     C_R   0.437922 0.150123 0.363818 0.538442
C67   C     C_R   0.239642 0.461163 0.848178 0.568646
C68   C     C_2   0.772689 0.299410 0.525836 -0.085108
C69   C     C_R   0.761201 0.465513 0.149849 0.531745
C70   C     C_R   0.739637 0.961177 0.848187 0.562617
C71   C     C_R   0.261201 0.965511 0.149850 0.535053
C72   C     C_R   0.207343 0.819552 0.859306 0.558619
C73   C     C_R   0.773349 0.872804 0.146973 0.557791
C74   C     C_R   0.707346 0.319558 0.859306 0.557952
C75   C     C_R   0.273362 0.372769 0.146950 0.551443
C76   C     C_R   0.026880 0.652934 0.849366 0.574544
C77   C     C_R   0.937809 0.648160 0.141642 0.560674
C78   C     C_R   0.526893 0.152934 0.849379 0.573399
C79   C     C_2   0.260560 0.302984 0.471714 -0.097618
C80   C     C_R   0.437812 0.148160 0.141644 0.562996
C81   C     C_2   0.226525 0.855205 0.568183 -0.063664
C82   C     C_2   0.772851 0.867024 0.434304 -0.071679
C83   C     C_2   0.725052 0.361539 0.564941 -0.069844
C84   C     C_2   0.255351 0.397797 0.424970 -0.051653
C85   C     C_2   0.240291 0.917677 0.420944 -0.042917
C86   C     C_2   0.761020 0.887811 0.588869 -0.040974
C87   C     C_2   0.739271 0.385353 0.410451 -0.031555
C88   C     C_2   0.258040 0.429426 0.576082 -0.078611
C89   C     C_2   0.240718 0.800564 0.441509 -0.068240
C90   C     C_R   0.955638 0.669734 0.439266 -0.002361
C91   C     C_2   0.712940 0.834272 0.549097 -0.066708
C92   C     C_2   0.787273 0.330458 0.450839 -0.069987
C93   C     C_2   0.250039 0.318890 0.548887 -0.086796
C94   C     C_2   0.278258 0.740163 0.964838 0.574669
C95   C     C_2   0.684366 0.953945 0.060458 0.593668
C96   C     C_2   0.778287 0.240215 0.964824 0.575668
C97   C     C_2   0.184365 0.453703 0.060368 0.593249
C98   C     C_2   0.829557 0.584783 0.511953 0.531912
C99   C     C_2   0.087132 0.356594 0.540850 0.565189
C100  C     C_2   0.405623 0.862838 0.458144 0.574637
Cr1   Cr    Cr6+3 0.113970 0.508630 0.747920 1.021497
Cr2   Cr    Cr6+3 0.887700 0.820070 0.250200 1.023257
Cr3   Cr    Cr6+3 0.612300 0.320070 0.749800 1.019265
Cr4   Cr    Cr6+3 0.387700 0.320070 0.250200 1.022015
Cr5   Cr    Cr6+3 0.886030 0.508630 0.252080 1.050002
Cr6   Cr    Cr6+3 0.613970 0.008630 0.747920 1.048949
Cr7   Cr    Cr6+3 0.386030 0.008630 0.252080 1.024741
Cr8   Cr    Cr6+3 0.269200 0.666740 0.749850 1.077635
Cr9   Cr    Cr6+3 0.730800 0.666740 0.250150 1.049172
Cr10  Cr    Cr6+3 0.769200 0.166740 0.749850 1.053682
Cr11  Cr    Cr6+3 0.230800 0.166740 0.250150 1.068827
Cr12  Cr    Cr6+3 0.112300 0.820070 0.749800 1.010184
H1    H     H_    0.254581 0.727949 0.404295 0.159014
H2    H     H_    0.714215 0.825174 0.930639 0.129623
H3    H     H_    0.794891 0.409564 0.046234 0.106186
H4    H     H_    0.214226 0.325170 0.930637 0.129486
H5    H     H_    0.910550 0.487213 0.042681 0.147244
H6    H     H_    0.966472 0.473909 0.923396 0.180706
H7    H     H_    0.410565 0.987209 0.042692 0.147370
H8    H     H_    0.466511 0.973900 0.923421 0.182013
H9    H     H_    0.984873 0.735525 0.048663 0.112442
H10   H     H_    0.973828 0.755718 0.933877 0.090371
H11   H     H_    0.484891 0.235520 0.048675 0.111794
H12   H     H_    0.660204 0.823181 0.568911 0.142848
H13   H     H_    0.473841 0.255716 0.933891 0.090510
H14   H     H_    0.206610 0.677667 0.529222 0.092748
H15   H     H_    0.696264 0.732047 0.450368 0.173418
H16   H     H_    0.804861 0.229078 0.550504 0.166240
H17   H     H_    0.272364 0.210901 0.452696 0.118070
H18   H     H_    0.216156 0.986830 0.454879 0.099669
H19   H     H_    0.814558 0.892722 0.570427 0.106357
H20   H     H_    0.685452 0.390230 0.428095 0.109710
H21   H     H_    0.284164 0.499266 0.544541 0.103924
H22   H     H_    0.245396 0.947201 0.559055 0.148197
H23   H     H_    0.840385 0.319656 0.431722 0.137787
H24   H     H_    0.801957 0.941675 0.457097 0.133546
H25   H     H_    0.694419 0.434900 0.541408 0.131934
H26   H     H_    0.241982 0.490974 0.440133 0.095552
H27   H     H_    0.977095 0.093152 0.441111 0.130390
H28   H     H_    0.058367 0.082327 0.541114 0.178633
H29   H     H_    0.414081 0.568768 0.471354 0.177694
H30   H     H_    0.508932 0.588919 0.558151 0.129306
H31   H     H_    0.927376 0.910519 0.397144 0.173500
H32   H     H_    0.086517 0.889865 0.592905 0.176699
H33   H     H_    0.389097 0.366295 0.424163 0.159732
H34   H     H_    0.235555 0.241552 0.582241 0.182817
H35   H     H_    0.571918 0.408544 0.596418 0.162830
H36   H     H_    0.969264 0.289611 0.611472 0.106931
H37   H     H_    0.859843 0.403238 0.605328 0.144533
H38   H     H_    0.635326 0.895240 0.393864 0.145237
H39   H     H_    0.526716 0.782395 0.393193 0.109440
H40   H     H_    0.140609 0.909461 0.091822 0.151388
H41   H     H_    0.848428 0.975289 0.931538 0.180698
H42   H     H_    0.640612 0.409409 0.091830 0.150499
H43   H     H_    0.348474 0.475195 0.931483 0.180846
H44   H     H_    0.318314 0.641973 0.046098 0.331311
H45   H     H_    0.124063 0.907980 0.959952 0.128785
H46   H     H_    0.585970 0.972418 0.097323 0.353093
H47   H     H_    0.818355 0.141989 0.046062 0.331662
H48   H     H_    0.085881 0.471617 0.097055 0.353660
H49   H     H_    0.807459 0.594832 0.618135 0.309732
H50   H     H_    0.084530 0.278457 0.639407 0.304876
H51   H     H_    0.415343 0.768212 0.365082 0.301207
H52   H     H_    0.680628 0.094867 0.374641 0.314536
H53   H     H_    0.858854 0.856219 0.044550 0.123564
H54   H     H_    0.624057 0.407932 0.959960 0.128914
H55   H     H_    0.358920 0.356367 0.044551 0.124094
H56   H     H_    0.294893 0.909536 0.046236 0.106344
O1    O     O_R   0.043230 0.549300 0.667990 -0.506922
O2    O     O_R   0.832470 0.905110 0.169660 -0.530230
O3    O     O_R   0.667530 0.405110 0.830340 -0.515412
O4    O     O_R   0.332470 0.405110 0.169660 -0.533366
O5    O     O_R   0.054010 0.748440 0.822860 -0.512424
O6    O     O_R   0.945990 0.748440 0.177140 -0.488955
O7    O     O_R   0.554010 0.248440 0.822860 -0.515000
O8    O     O_R   0.445990 0.248440 0.177140 -0.486921
O9    O     O_3   0.165160 0.665150 0.749190 -0.325691
O10   O     O_3   0.834840 0.665150 0.250810 -0.312571
O11   O     O_3   0.665160 0.165150 0.749190 -0.313486
O12   O     O_R   0.956770 0.549300 0.332010 -0.475357
O13   O     O_3   0.334840 0.165150 0.250810 -0.311338
O14   O     O_R   0.178620 0.457600 0.674100 -0.500271
O15   O     O_R   0.821380 0.457600 0.325900 -0.498606
O16   O     O_R   0.678620 0.957600 0.674100 -0.505169
O17   O     O_R   0.321380 0.957600 0.325900 -0.493833
O18   O     O_R   0.284680 0.542100 0.669460 -0.520033
O19   O     O_R   0.715320 0.542100 0.330540 -0.510452
O20   O     O_R   0.784680 0.042100 0.669460 -0.519010
O21   O     O_R   0.215320 0.042100 0.330540 -0.510911
O22   O     O_R   0.262860 0.790390 0.676650 -0.448523
O23   O     O_R   0.543230 0.049300 0.667990 -0.487173
O24   O     O_R   0.737140 0.790390 0.323350 -0.490150
O25   O     O_R   0.762860 0.290390 0.676650 -0.495677
O26   O     O_R   0.237140 0.290390 0.323350 -0.463637
O27   O     O_R   0.167460 0.907030 0.670940 -0.531945
O28   O     O_R   0.832540 0.907030 0.329060 -0.535616
O29   O     O_R   0.667460 0.407030 0.670940 -0.529348
O30   O     O_R   0.332540 0.407030 0.329060 -0.542931
O31   O     O_R   0.053950 0.750220 0.675100 -0.516028
O32   O     O_R   0.946050 0.750220 0.324900 -0.518543
O33   O     O_R   0.553950 0.250220 0.675100 -0.524936
O34   O     O_R   0.456770 0.049300 0.332010 -0.499555
O35   O     O_R   0.446050 0.250220 0.324900 -0.481688
O36   O     O_R   0.043300 0.547370 0.827390 -0.493918
O37   O     O_R   0.956700 0.547370 0.172610 -0.484906
O38   O     O_R   0.543300 0.047370 0.827390 -0.492789
O39   O     O_R   0.456700 0.047370 0.172610 -0.487366
O40   O     O_R   0.178690 0.455820 0.821860 -0.489693
O41   O     O_R   0.821310 0.455820 0.178140 -0.521636
O42   O     O_R   0.678690 0.955820 0.821860 -0.493264
O43   O     O_R   0.321310 0.955820 0.178140 -0.519800
O44   O     O_R   0.284750 0.540170 0.828860 -0.499229
O45   O     O_R   0.262920 0.788600 0.824420 -0.443174
O46   O     O_R   0.715250 0.540170 0.171140 -0.513769
O47   O     O_R   0.784750 0.040170 0.828860 -0.503197
O48   O     O_R   0.215250 0.040170 0.171140 -0.508848
O49   O     O_2   0.334058 0.739127 0.933030 -0.515108
O50   O     O_R   0.272329 0.677146 0.029636 -0.674747
O51   O     O_2   0.670701 0.011299 0.006196 -0.498877
O52   O     O_R   0.632263 0.935955 0.111964 -0.677455
O53   O     O_2   0.834090 0.239250 0.933023 -0.516881
O54   O     O_R   0.772365 0.177148 0.029606 -0.674458
O55   O     O_2   0.170741 0.511320 0.006187 -0.499297
O56   O     O_R   0.737080 0.788600 0.175580 -0.462376
O57   O     O_R   0.132186 0.435243 0.111729 -0.673493
O58   O     O_2   0.811545 0.611686 0.452099 -0.548827
O59   O     O_R   0.785245 0.608667 0.570025 -0.702236
O60   O     O_2   0.116404 0.362450 0.482977 -0.492806
O61   O     O_R   0.109589 0.271370 0.591727 -0.716526
O62   O     O_2   0.368851 0.885074 0.509972 -0.504557
O63   O     O_R   0.386281 0.771339 0.410413 -0.711975
O64   O     O_2   0.687945 0.109514 0.540426 -0.549294
O65   O     O_R   0.705395 0.112071 0.420852 -0.696019
O66   O     O_R   0.762920 0.288600 0.824420 -0.447557
O67   O     O_R   0.237080 0.288600 0.175580 -0.462411
O68   O     O_R   0.167530 0.905110 0.830340 -0.512841

loop_
_geom_bond_atom_site_label_1
_geom_bond_atom_site_label_2
_ccdc_geom_bond_type
Cr2   O2    S    
C97   O57   S    
C21   C26   A    
C38   C70   S    
C44   O30   A    
C77   O6    A    
C13   O19   A    
C55   C59   D    
C61   H7    S    
C62   H8    S    
C43   C83   S    
C32   C94   S    
C8    H33   S    
C42   C82   S    
C64   C90   S    
Cr5   O10   S    
C9    C14   A    
C14   H30   S    
C56   C78   S    
C81   H22   S    
C32   C72   S    
C46   C89   S    
C54   C60   D    
C1    O18   A    
H48   O57   S    
C7    C11   A    
C24   O20   A    
Cr10  O20   S    
C58   H11   S    
C41   O22   A    
Cr7   O13   S    
C16   C90   A    
Cr10  O11   S    
Cr8   O18   S    
C76   O5    A    
C36   C75   S    
C34   C96   S    
C88   H21   S    
C79   C93   S    
H51   O63   S    
C86   C91   D    
C79   C84   D    
C64   O12   A    
C49   C53   S    
C86   H19   S    
C63   O1    A    
C24   O16   A    
C20   C25   A    
Cr9   O24   S    
C40   C49   D    
C79   H17   S    
Cr11  O13   S    
Cr5   O41   S    
C12   H29   S    
Cr3   O29   S    
Cr8   O44   S    
C94   O50   S    
C48   H42   S    
C36   C53   D    
C52   H54   S    
Cr9   O10   S    
C53   H55   S    
C65   O23   A    
C13   O15   A    
C40   C67   S    
C74   O3    A    
Cr11  O67   S    
C75   O67   A    
C36   C97   S    
C74   O66   A    
C68   H16   S    
Cr12  O31   S    
Cr7   O39   S    
C99   O60   D    
C8    C12   A    
C72   O68   A    
Cr4   O4    S    
C4    C18   A    
C1    C88   S    
C7    C15   A    
C72   O45   A    
H52   O65   S    
C84   H26   S    
C59   C60   S    
C59   H5    S    
C21   C22   A    
Cr3   O3    S    
Cr8   O22   S    
Cr6   O38   S    
Cr6   O23   S    
C33   C95   S    
C7    H32   S    
C99   O61   S    
C46   H14   S    
C17   C18   A    
C37   H56   S    
C100  O63   S    
C50   H45   S    
C25   C29   A    
C89   H1    S    
C27   C100  S    
C28   H36   S    
C15   C16   A    
C69   O46   A    
C27   C31   A    
Cr4   O35   S    
C93   H34   S    
Cr1   O9    S    
Cr11  O48   S    
C80   O8    A    
Cr7   O34   S    
C5    C65   S    
Cr9   O46   S    
C85   C89   D    
C47   C51   S    
C47   H41   S    
Cr12  O68   S    
C20   C90   A    
C9    H35   S    
C94   O49   D    
Cr9   O19   S    
C97   O55   D    
Cr1   O1    S    
C87   H20   S    
C19   C23   A    
C11   H28   S    
C78   O38   A    
Cr12  O27   S    
C57   H15   S    
Cr1   O40   S    
C77   O37   A    
C85   H18   S    
C46   C81   D    
C31   H39   S    
C23   C99   S    
C95   O51   D    
C48   C52   S    
C30   C31   A    
C35   O17   A    
C41   C81   S    
C13   C87   S    
Cr10  O25   S    
Cr3   O7    S    
C95   O52   S    
C39   C69   S    
C65   O33   A    
C67   O44   A    
C43   O29   A    
C56   H13   S    
Cr5   O15   S    
C5    C17   A    
C60   H6    S    
C2    C15   A    
Cr4   O8    S    
Cr6   O16   S    
C38   C47   D    
Cr9   O56   S    
C34   C74   S    
C54   C76   S    
C66   O35   A    
C42   O28   A    
C33   C73   S    
C12   C14   A    
Cr11  O21   S    
C39   H3    S    
C22   C27   A    
C64   O32   A    
C55   C77   S    
C78   O7    A    
Cr2   O10   S    
C56   C62   D    
C51   H53   S    
C92   H23   S    
C69   O41   A    
C23   C28   A    
C70   O47   A    
Cr5   O12   S    
C37   C45   D    
Cr4   O13   S    
C34   C52   D    
Cr6   O11   S    
C83   H25   S    
C87   C92   D    
C2    C63   S    
C98   O59   S    
C9    C17   A    
C4    C22   A    
C88   C93   D    
C28   C29   A    
C57   C91   S    
C73   O56   A    
C2    C19   A    
C68   C83   D    
Cr4   O30   S    
C49   H43   S    
C3    C26   S    
Cr2   O32   S    
Cr8   O45   S    
C44   C84   S    
Cr1   O36   S    
Cr2   O28   S    
C3    O64   D    
C6    C10   A    
C1    O14   A    
C76   O36   A    
Cr5   O37   S    
Cr2   O6    S    
C58   C80   S    
C33   C51   D    
H47   O54   S    
C29   H37   S    
Cr7   O17   S    
C96   O54   S    
C43   O25   A    
C91   H12   S    
C45   H40   S    
C19   C20   A    
C37   C71   S    
Cr10  O47   S    
C73   O2    A    
Cr3   O33   S    
C41   O27   A    
C3    O65   S    
Cr7   O43   S    
C4    C66   S    
C35   C85   S    
C40   H4    S    
C45   C50   S    
C58   C61   D    
C38   H2    S    
C100  O62   D    
C44   O26   A    
C68   C92   S    
C63   O31   A    
Cr8   O9    S    
C32   C50   D    
Cr3   O11   S    
C82   H24   S    
C61   C62   S    
C8    C18   A    
H50   O61   S    
C30   H38   S    
C10   C11   A    
Cr1   O14   S    
Cr11  O26   S    
C6    C16   A    
C66   O34   A    
C42   O24   A    
C25   C98   S    
C54   H10   S    
C80   O39   A    
C5    C21   A    
C35   O21   A    
C96   O53   D    
C10   H27   S    
C75   O4    A    
H46   O52   S    
C57   C82   D    
Cr12  O9    S    
C71   O43   A    
H44   O50   S    
C70   O42   A    
H49   O59   S    
C6    H31   S    
C55   H9    S    
C24   C86   S    
C71   O48   A    
C67   O40   A    
Cr10  O66   S    
Cr12  O5    S    
C39   C48   D    
C98   O58   D    
C26   C30   A    
Cr6   O42   S    
