data_mof_unit_49743.cif
_audit_creation_date              2013-03-05T15:52:25-0500
_audit_creation_method            fapswitch 2.2
_symmetry_space_group_name_H-M    P1
_symmetry_Int_Tables_number       1
_space_group_crystal_system       triclinic
_cell_length_a                    27.770708
_cell_length_b                    10.814297
_cell_length_c                    9.676551
_cell_angle_alpha                 90.566117
_cell_angle_beta                  89.472333
_cell_angle_gamma                 93.286372
_cell_volume                      2901.03898049

loop_
_atom_site_label
_atom_site_type_symbol
_atom_site_description
_atom_site_fract_x
_atom_site_fract_y
_atom_site_fract_z
_atom_type_partial_charge
O1    O     O_R   0.500000 0.319640 0.618810 -0.620154
O2    O     O_R   0.500000 0.319660 0.381240 -0.510874
C1    C     C_R   0.506481 0.264916 0.499061 0.837872
O3    O     O_R   0.430260 0.500010 0.618770 -0.539650
O4    O     O_R   0.430270 0.500030 0.381200 -0.591391
C2    C     C_R   0.407649 0.502052 0.500589 0.891074
Cu1   Cu    Cu3+1 0.500000 0.499990 0.640660 0.993369
Cu2   Cu    Cu3+1 0.500000 0.500010 0.359340 0.998318
O5    O     O_R   0.500000 0.680340 0.618760 -0.604562
O6    O     O_R   0.500000 0.680360 0.381190 -0.606608
O7    O     O_R   0.569730 0.499970 0.618800 -0.557442
O8    O     O_R   0.569740 0.499990 0.381230 -0.589944
C3    C     C_R   0.499251 0.738361 0.501859 0.834732
C4    C     C_R   0.592516 0.499823 0.499479 0.794381
C5    C     C_R   0.174937 0.372961 0.479247 0.598580
O9    O     O_2   0.197094 0.266435 0.496638 -0.507604
N1    N     N_R   0.201599 0.483355 0.475825 -0.438917
C6    C     C_R   0.180189 0.592787 0.456985 0.626555
C7    C     C_R   0.276057 0.541659 0.603291 0.359433
C8    C     C_R   0.327110 0.558374 0.605407 0.238897
C9    C     C_R   0.330402 0.439006 0.390304 -0.245871
C10   C     C_R   0.280459 0.433851 0.382698 -0.160964
C11   C     C_R   0.253170 0.484987 0.488231 0.268044
C12   C     C_R   0.101737 0.481934 0.450186 -0.045575
C13   C     C_R   0.124532 0.370162 0.465438 -0.110782
C14   C     C_R   0.096981 0.257950 0.459464 -0.155975
C15   C     C_R   0.129942 0.594231 0.444477 -0.032993
C16   C     C_R   0.354426 0.500718 0.500356 -0.178534
H1    H     H_    0.350430 0.395304 0.308480 0.194991
H2    H     H_    0.262782 0.389432 0.294486 0.187037
H3    H     H_    0.114744 0.171292 0.458564 0.231552
C17   C     C_R   0.645839 0.498402 0.496611 -0.067506
C18   C     C_R   0.972196 0.373950 0.474923 0.061543
C19   C     C_R   0.977489 0.593691 0.409609 0.037283
C20   C     C_R   0.949572 0.484714 0.445012 0.077270
C21   C     C_R   0.944073 0.276476 0.536417 -0.093967
C22   C     C_R   0.894189 0.279945 0.547865 -0.131579
C23   C     C_R   0.870915 0.383717 0.503686 -0.033849
C24   C     C_R   0.898639 0.487353 0.454352 -0.048688
C25   C     C_R   0.875498 0.594254 0.416558 -0.032165
C26   C     C_R   0.825023 0.594549 0.425885 0.546900
N2    N     N_R   0.798629 0.492182 0.472315 -0.457730
C27   C     C_R   0.820530 0.387928 0.511430 0.558364
C28   C     C_R   0.723612 0.488528 0.609416 -0.201265
C29   C     C_R   0.673036 0.490036 0.619023 0.373775
C30   C     C_R   0.670044 0.504668 0.368122 -0.271558
C31   C     C_R   0.720042 0.502580 0.360428 -0.104692
C32   C     C_R   0.747024 0.494491 0.480773 0.311056
O10   O     O_2   0.793599 0.288288 0.556489 -0.524482
C33   C     C_R   0.022700 0.368095 0.453522 -0.092760
C34   C     C_R   0.050810 0.481543 0.441276 0.039733
C35   C     C_R   0.028410 0.594768 0.420428 0.061325
C36   C     C_R   0.046893 0.255073 0.444974 0.400602
H4    H     H_    0.744986 0.482662 0.701962 0.144180
H5    H     H_    0.874027 0.201421 0.592967 0.196978
H6    H     H_    0.960470 0.198387 0.580746 0.202375
O11   O     O_2   0.207535 0.699857 0.449503 -0.498136
C37   C     C_R   0.107520 0.705372 0.426758 -0.105671
H7    H     H_    0.128367 0.793111 0.423135 0.208527
C38   C     C_R   0.953291 0.698703 0.368636 -0.170404
C39   C     C_R   0.903183 0.698434 0.371216 -0.114804
O12   O     O_2   0.802520 0.696803 0.390447 -0.530347
C40   C     C_R   0.057730 0.705814 0.414717 -0.181142
H8    H     H_    0.972196 0.781868 0.331386 0.170081
H9    H     H_    0.650357 0.511030 0.272604 0.197170
H10   H     H_    0.886258 0.781206 0.339328 0.202249
H11   H     H_    0.737907 0.506844 0.260492 0.159808
H12   H     H_    0.043006 0.795406 0.406285 0.186747
C41   C     C_R   0.545860 0.131615 0.735329 -0.157518
H13   H     H_    0.564675 0.221607 0.724787 0.179052
C42   C     C_R   0.547658 0.073377 0.861088 -0.022773
H14   H     H_    0.567487 0.120519 0.942652 0.242071
C43   C     C_R   0.522778 0.959253 0.880276 -0.078696
H15   H     H_    0.520313 0.917733 0.981476 0.206971
C44   C     C_R   0.502328 0.895717 0.767198 -0.155962
H16   H     H_    0.482242 0.810086 0.789437 0.216465
C45   C     C_R   0.507948 0.944894 0.632413 0.098915
C46   C     C_R   0.522626 0.071539 0.622984 0.039762
C47   C     C_R   0.517177 0.133046 0.498273 -0.220424
C48   C     C_R   0.518239 0.063528 0.375995 0.408731
H17   H     H_    0.509427 0.884219 0.284271 0.208481
C49   C     C_R   0.508721 0.936152 0.380535 -0.285367
C50   C     C_R   0.501861 0.874935 0.506896 -0.143742
H18   H     H_    0.443565 0.365105 0.131468 0.169138
C51   C     C_R   0.566347 0.659905 0.142942 -0.136771
H19   H     H_    0.568153 0.670064 0.252081 0.189508
C52   C     C_R   0.600031 0.734774 0.071069 -0.182687
H20   H     H_    0.625996 0.794333 0.126711 0.170861
C53   C     C_R   0.599861 0.735361 0.928551 -0.169169
H21   H     H_    0.625400 0.796226 0.872904 0.164535
C54   C     C_R   0.566146 0.660545 0.856820 -0.077744
H22   H     H_    0.567464 0.672042 0.747933 0.191953
C55   C     C_R   0.532550 0.578678 0.925305 0.130044
C56   C     C_R   0.532587 0.578476 0.074365 0.184881
N3    N     N_R   0.500460 0.501210 0.147910 -0.237819
C57   C     C_R   0.468976 0.425972 0.075456 0.064413
C58   C     C_R   0.468682 0.424517 0.929145 0.518834
N4    N     N_R   0.500480 0.501290 0.852040 -0.262420
O13   O     O_3   0.247271 0.580288 0.710399 -0.671737
H23   H     H_    0.265332 0.573997 0.797568 0.376258
S1    S     S_3+6 0.544736 0.124335 0.224237 -0.038767
O14   O     O_2   0.505162 0.152223 0.126534 -0.294892
O15   O     O_2   0.576051 0.239970 0.251214 -0.284608
O16   O     O_3   0.579470 0.016366 0.156447 -0.607861
H24   H     H_    0.605754 0.009063 0.223923 0.351021
O17   O     O_3   0.434838 0.342796 0.870424 -0.702404
H25   H     H_    0.438568 0.343693 0.770159 0.381060
O18   O     O_3   0.649949 0.482579 0.746000 -0.717537
H26   H     H_    0.674298 0.477917 0.819817 0.326943
S2    S     S_3+6 0.019753 0.112539 0.382450 -0.027822
O19   O     O_2   0.008583 0.026781 0.501253 -0.327568
O20   O     O_2   0.974422 0.133051 0.304158 -0.281719
O21   O     O_3   0.058914 0.045763 0.275445 -0.524320
H27   H     H_    0.040505 0.973183 0.235135 0.368586
S3    S     S_3+6 0.355082 0.665153 0.725700 0.032345
O22   O     O_2   0.372546 0.595066 0.846988 -0.244535
O23   O     O_2   0.397220 0.735480 0.659146 -0.310103
O24   O     O_3   0.316294 0.768500 0.782935 -0.465170
H28   H     H_    0.307667 0.814702 0.699669 0.377086

loop_
_geom_bond_atom_site_label_1
_geom_bond_atom_site_label_2
_geom_bond_distance
_ccdc_geom_bond_type
C36   S2    1.779560 S    
C28   C32   1.399397 A    
C52   H20   1.082473 S    
C55   C56   1.442420 A    
Cu1   N4    2.045501 S    
C26   N2    1.369438 A    
C20   C24   1.418409 A    
N3    C57   1.355168 A    
C12   C15   1.408142 A    
C1    C47   1.473195 S    
H17   C49   1.083554 S    
Cu1   Cu2   2.722209 S    
C45   C46   1.409957 A    
Cu1   O7    1.946045 S    
N1    C11   1.437390 S    
C21   C22   1.391319 A    
H18   C57   1.082494 S    
C23   C24   1.407697 A    
O7    C4    1.311545 A    
C5    C13   1.405919 A    
O17   H25   0.974868 S    
C45   C50   1.430775 A    
C8    S3    1.782984 S    
C5    O9    1.349471 S    
C18   C21   1.408780 A    
O18   H26   0.991703 S    
N1    C6    1.368992 A    
C19   C20   1.416201 A    
C43   H15   1.081282 S    
C41   C42   1.378370 A    
O5    C3    1.299882 A    
S2    O19   1.503136 D    
O24   H28   0.990702 S    
C39   H10   1.083388 S    
C2    C16   1.477303 S    
O13   H23   0.990208 S    
S3    O23   1.502100 D    
O6    C3    1.320557 A    
C53   C54   1.388179 A    
C29   O18   1.381584 S    
C12   C34   1.417442 A    
C14   H3    1.083700 S    
S1    O15   1.503751 D    
C9    C10   1.387486 A    
C19   C38   1.414128 A    
C43   C44   1.394190 A    
C41   C46   1.403970 A    
C41   H13   1.083154 S    
Cu2   N3    2.046000 S    
C26   O12   1.349658 S    
O3    Cu1   1.950231 S    
C31   H11   1.082978 S    
O16   H24   0.990846 S    
C13   C14   1.397964 A    
C58   N4    1.393482 A    
C51   C52   1.388006 A    
C33   C36   1.429434 A    
C34   C35   1.421784 A    
S1    O14   1.501772 D    
C12   C13   1.405896 A    
C30   H9    1.082966 S    
C48   C49   1.388700 A    
C54   H22   1.062235 S    
C42   C43   1.392638 A    
C7    O13   1.379200 S    
C46   C47   1.397286 A    
C27   O10   1.349601 S    
C8    C16   1.423033 A    
C18   C33   1.420748 A    
C51   H19   1.062055 S    
C9    H1    1.083607 S    
C35   C40   1.412975 A    
C25   C39   1.398987 A    
C38   C39   1.391354 A    
O1    C1    1.311551 A    
C7    C11   1.405028 A    
C44   H16   1.075877 S    
C22   C23   1.399153 A    
C21   H6    1.076737 S    
C28   H4    1.083308 S    
C54   C55   1.413837 A    
C51   C56   1.414228 A    
C6    O11   1.349992 S    
C31   C32   1.396737 A    
Cu2   O8    1.950226 S    
S3    O24   1.682529 S    
C57   C58   1.415811 A    
C33   C34   1.421272 A    
C17   C29   1.417096 A    
N2    C32   1.436303 S    
C44   C45   1.417282 A    
S2    O21   1.682519 S    
C58   O17   1.375478 S    
O3    C2    1.310686 A    
C25   C26   1.403975 A    
C9    C16   1.404472 A    
O8    C4    1.312575 A    
S1    O16   1.681185 S    
C52   C53   1.379212 A    
N2    C27   1.369527 A    
C14   C36   1.397835 A    
C24   C25   1.407507 A    
C28   C29   1.407778 A    
O21   H27   0.990561 S    
C37   C40   1.388957 A    
C5    N1    1.368780 A    
C3    C50   1.474920 S    
C30   C31   1.391240 A    
C10   H2    1.083009 S    
O1    Cu1   1.959707 S    
C17   C30   1.408329 A    
O2    Cu2   1.963918 S    
C6    C15   1.402736 A    
C4    C17   1.481782 S    
C15   C37   1.397706 A    
O4    Cu2   1.946048 S    
C40   H12   1.077111 S    
C19   C35   1.418326 A    
C48   S1    1.753298 S    
C38   H8    1.078527 S    
C7    C8    1.419262 A    
O2    C1    1.308447 A    
C37   H7    1.083510 S    
C42   H14   1.074221 S    
O4    C2    1.310529 A    
C18   C20   1.417689 A    
C56   N3    1.383913 A    
S2    O20   1.503605 D    
C47   C48   1.396565 A    
C22   H5    1.083238 S    
Cu1   O5    1.963918 S    
C23   C27   1.403858 A    
Cu2   O6    1.959707 S    
C49   C50   1.402462 A    
C10   C11   1.394842 A    
C53   H21   1.082898 S    
C55   N4    1.382269 A    
S3    O22   1.502447 D    
