data_mof_unit_39861.cif
_audit_creation_date              2012-12-11T15:29:49-0500
_audit_creation_method            fapswitch 2.2
_symmetry_space_group_name_H-M    P1
_symmetry_Int_Tables_number       1
_space_group_crystal_system       triclinic
_cell_length_a                    13.490623
_cell_length_b                    13.511207
_cell_length_c                    27.574452
_cell_angle_alpha                 90.582665
_cell_angle_beta                  89.902609
_cell_angle_gamma                 60.134014
_cell_volume                      4358.25765246

loop_
_atom_site_label
_atom_site_type_symbol
_atom_type_description
_atom_site_fract_x
_atom_site_fract_y
_atom_site_fract_z
_atom_type_partial_charge
C1    C     C_R   0.620115 0.101146 0.569920 0.543844
C2    C     C_1   0.649257 0.704657 0.657876 -0.058001
C3    C     C_3   0.105698 0.115771 0.738850 -0.151118
C4    C     C_R   0.599415 0.779707 0.568560 0.542558
C5    C     C_3   0.202819 0.053908 0.776769 -0.094366
C6    C     C_1   0.100332 0.199278 0.900584 -0.015151
C7    C     C_1   0.226084 0.138939 0.616060 -0.023149
C8    C     C_3   0.056160 0.228214 0.769384 -0.111092
C9    C     C_3   0.153832 0.166282 0.806374 0.003302
C10   C     C_3   0.134474 0.260613 0.741440 0.155626
C11   C     C_3   0.181627 0.151505 0.710660 0.074906
C12   C     C_1   0.630672 0.732368 0.616041 -0.020240
C13   C     C_3   0.230689 0.202258 0.778899 -0.071399
C14   C     C_3   0.276558 0.091873 0.748262 0.155644
C15   C     C_1   0.130173 0.179774 0.858672 -0.059878
C16   C     C_R   0.276266 0.122263 0.568854 0.539502
C17   C     C_1   0.199008 0.146717 0.658102 -0.045017
C18   C     C_3   0.691577 0.243379 0.737323 -0.074281
C19   C     C_3   0.591344 0.283316 0.773372 0.178120
C20   C     C_1   0.692109 0.206498 0.901513 -0.013962
C21   C     C_1   0.634822 0.133775 0.617822 -0.020013
C22   C     C_3   0.765426 0.142426 0.771465 -0.119078
C23   C     C_3   0.675582 0.566745 0.766627 -0.107757
C24   C     C_3   0.663770 0.185001 0.807186 0.056799
C25   C     C_3   0.723222 0.067935 0.745526 -0.116823
C26   C     C_3   0.649129 0.169035 0.712238 0.027592
C27   C     C_3   0.621631 0.110931 0.781866 -0.132060
C28   C     C_R   0.622046 0.100079 0.431545 0.542733
C29   C     C_3   0.546884 0.211688 0.747770 -0.096017
C30   C     C_1   0.675430 0.195525 0.859454 -0.053996
C31   C     C_1   0.642455 0.153539 0.659930 -0.067749
C32   C     C_R   0.640112 0.722356 0.382989 0.024102
C33   C     C_R   0.722965 0.736220 0.357891 -0.126108
C34   C     C_3   0.681432 0.648948 0.803975 0.046101
C35   C     C_R   0.735561 0.718438 0.308284 -0.123882
C36   C     C_R   0.668342 0.682786 0.283299 0.037789
C37   C     C_R   0.594056 0.657414 0.309108 -0.121376
C38   C     C_R   0.579265 0.678025 0.358774 -0.130485
C39   C     C_R   0.575787 0.704465 0.203177 -0.121941
C40   C     C_R   0.602009 0.776805 0.430473 0.541946
C41   C     C_R   0.584646 0.681630 0.153660 -0.131002
C42   C     C_R   0.788837 0.611107 0.157323 -0.126990
C43   C     C_R   0.780420 0.631255 0.206813 -0.124201
C44   C     C_R   0.674635 0.673834 0.230367 0.036636
C45   C     C_3   0.576109 0.670287 0.741386 -0.086280
C46   C     C_R   0.692197 0.629726 0.131002 0.023347
C47   C     C_R   0.225764 0.137150 0.383472 0.024402
C48   C     C_R   0.248815 0.041304 0.354925 -0.126502
C49   C     C_R   0.224742 0.053069 0.305768 -0.122455
C50   C     C_R   0.174941 0.161125 0.284607 0.036591
C51   C     C_R   0.143929 0.258024 0.313891 -0.118813
C52   C     C_R   0.279222 0.119901 0.430981 0.541812
C53   C     C_R   0.169996 0.246020 0.363016 -0.127176
C54   C     C_R   0.174582 0.251335 0.206107 -0.120517
C55   C     C_R   0.147109 0.269244 0.157174 -0.129646
C56   C     C_3   0.663890 0.681695 0.709903 0.056799
C57   C     C_R   0.093938 0.122156 0.158594 -0.125956
C58   C     C_R   0.119537 0.105671 0.207530 -0.122294
C59   C     C_R   0.156901 0.172371 0.232003 0.036622
C60   C     C_R   0.102912 0.207386 0.133528 0.022912
C61   C     C_R   0.641500 0.139186 0.385049 0.023056
C62   C     C_R   0.549516 0.231782 0.362193 -0.125025
C63   C     C_R   0.556775 0.252017 0.313468 -0.121475
C64   C     C_3   0.763182 0.578532 0.734354 -0.112733
C65   C     C_R   0.656799 0.181333 0.287079 0.036961
C66   C     C_R   0.752328 0.095230 0.310958 -0.120342
C67   C     C_3   0.582220 0.751808 0.779565 -0.085276
C68   C     C_R   0.744588 0.073875 0.359646 -0.128934
C69   C     C_R   0.715575 0.097758 0.204080 -0.119281
C70   C     C_R   0.727413 0.110084 0.154793 -0.127590
C71   C     C_R   0.618820 0.316028 0.164876 -0.127306
C72   C     C_R   0.608677 0.303727 0.214255 -0.122667
C73   C     C_R   0.659976 0.194543 0.234434 0.035473
C74   C     C_R   0.682248 0.219324 0.135238 0.024245
C75   C     C_R   0.050225 0.234781 0.948017 0.545474
C76   C     C_3   0.769224 0.660264 0.772632 -0.108087
C77   C     C_R   0.712285 0.561367 0.946370 0.546238
C78   C     C_3   0.669774 0.763719 0.747382 -0.090550
C79   C     C_R   0.722737 0.224050 0.949178 0.545352
C80   C     C_R   0.047588 0.243883 0.086375 0.542007
C81   C     C_R   0.709175 0.572378 0.084219 0.540481
C82   C     C_R   0.719743 0.233503 0.087462 0.540295
C83   C     C_1   0.698761 0.604523 0.898304 -0.013174
C84   C     C_3   0.073229 0.460948 0.756355 -0.314965
C85   C     C_3   0.454261 0.479599 0.752464 -0.320962
C86   C     C_3   0.445321 0.039449 0.696436 -0.286472
C87   C     C_1   0.690312 0.628814 0.856118 -0.057721
Cr1   Cr    Cr6+3 0.417550 0.169090 0.500530 1.019764
Cr2   Cr    Cr6+3 0.669180 0.913420 0.499920 1.018369
Cr3   Cr    Cr6+3 0.413260 0.917540 0.499520 1.019471
Cr4   Cr    Cr6+3 0.909770 0.175810 0.018240 1.020072
Cr5   Cr    Cr6+3 0.913300 0.427650 0.016090 1.018675
Cr6   Cr    Cr6+3 0.657770 0.431010 0.016900 1.021812
H1    H     H_    0.847134 0.658622 0.786499 0.097271
H2    H     H_    0.836487 0.507166 0.715093 0.103337
H3    H     H_    0.492528 0.741627 0.220477 0.101556
H4    H     H_    0.508889 0.697864 0.133804 0.124266
H5    H     H_    0.793297 0.738840 0.289287 0.098521
H6    H     H_    0.858016 0.606712 0.226892 0.099882
H7    H     H_    0.873042 0.571088 0.140724 0.133709
H8    H     H_    0.544554 0.625537 0.290678 0.099218
H9    H     H_    0.515787 0.665654 0.377595 0.123556
H10   H     H_    0.293105 0.956061 0.369673 0.134132
H11   H     H_    0.206751 0.301314 0.223969 0.102827
H12   H     H_    0.283114 0.236410 0.795017 0.094588
H13   H     H_    0.155412 0.334949 0.138527 0.124851
H14   H     H_    0.670409 0.843617 0.739491 0.099273
H15   H     H_    0.250239 0.976885 0.283990 0.100034
H16   H     H_    0.104612 0.044618 0.226640 0.100695
H17   H     H_    0.059677 0.073291 0.141370 0.133301
H18   H     H_    0.102176 0.342693 0.298591 0.102771
H19   H     H_    0.151142 0.321059 0.384482 0.123550
H20   H     H_    0.468874 0.283896 0.380901 0.131363
H21   H     H_    0.752570 0.012592 0.218661 0.104741
H22   H     H_    0.776294 0.034502 0.132414 0.122845
H23   H     H_    0.964574 0.286733 0.778254 0.108139
H24   H     H_    0.481917 0.318928 0.295921 0.099930
H25   H     H_    0.565686 0.379682 0.236908 0.101541
H26   H     H_    0.508139 0.820788 0.799498 0.110113
H27   H     H_    0.584489 0.401341 0.150705 0.134344
H28   H     H_    0.831725 0.042006 0.291584 0.101528
H29   H     H_    0.817051 0.002685 0.376580 0.124696
H30   H     H_    0.496374 0.675542 0.727682 0.105449
H31   H     H_    0.678591 0.485299 0.775380 0.136871
H32   H     H_    0.233439 0.967508 0.791671 0.111395
H33   H     H_    0.054392 0.080697 0.722419 0.108222
H34   H     H_    0.718991 0.298687 0.719009 0.095432
H35   H     H_    0.035465 0.394074 0.695221 0.246163
H36   H     H_    0.040057 0.543798 0.737648 0.138353
H37   H     H_    0.152424 0.442934 0.775768 0.151977
H38   H     H_    0.008353 0.467306 0.782974 0.143741
H39   H     H_    0.470458 0.406282 0.819882 0.252723
H40   H     H_    0.409187 0.567432 0.768014 0.141442
H41   H     H_    0.389723 0.459606 0.737500 0.141628
H42   H     H_    0.511686 0.476366 0.722821 0.151502
H43   H     H_    0.445581 0.004449 0.769791 0.234075
H44   H     H_    0.538574 0.004148 0.700636 0.129808
H45   H     H_    0.456068 0.244027 0.738377 0.105523
H46   H     H_    0.405635 0.132549 0.690216 0.151353
H47   H     H_    0.432509 0.996991 0.664374 0.171583
H48   H     H_    0.593912 0.056205 0.800454 0.099538
H49   H     H_    0.778290 0.978065 0.733290 0.107769
H50   H     H_    0.855326 0.113186 0.781713 0.107281
H51   H     H_    0.771303 0.770343 0.375657 0.132734
N1    N     N_2   0.097813 0.371678 0.721108 -0.517919
N2    N     N_2   0.519439 0.399835 0.789996 -0.523775
N3    N     N_2   0.397585 0.016685 0.739094 -0.527941
O1    O     O_R   0.301780 0.195490 0.553940 -0.505516
O2    O     O_R   0.636050 0.541380 0.962520 -0.505708
O3    O     O_R   0.666480 0.323610 0.968170 -0.493445
O4    O     O_R   0.522450 0.158840 0.550250 -0.495189
O5    O     O_R   0.817280 0.156800 0.072180 -0.520030
O6    O     O_R   0.005110 0.187160 0.067410 -0.504962
O7    O     O_R   0.026450 0.340060 0.069950 -0.522342
O8    O     O_R   0.808300 0.527240 0.065170 -0.506172
O9    O     O_R   0.634070 0.548770 0.069460 -0.522239
O10   O     O_R   0.664650 0.330470 0.067300 -0.504454
O11   O     O_3   0.826940 0.344820 0.017080 -0.244728
O12   O     O_R   0.658840 0.818280 0.449970 -0.505657
O13   O     O_R   0.694460 0.003360 0.553820 -0.507100
O14   O     O_R   0.657750 0.819520 0.549120 -0.495269
O15   O     O_R   0.501990 0.803120 0.552700 -0.507382
O16   O     O_R   0.318230 0.023430 0.549370 -0.495782
O17   O     O_R   0.302950 0.194150 0.446980 -0.519686
O18   O     O_R   0.523540 0.157600 0.451100 -0.504145
O19   O     O_R   0.695630 0.002030 0.446860 -0.521809
O20   O     O_R   0.503160 0.801780 0.445740 -0.521762
O21   O     O_R   0.319320 0.022190 0.450230 -0.504755
O22   O     O_3   0.499990 0.000010 0.499990 -0.245390
O23   O     O_R   0.819250 0.149410 0.965240 -0.508191
O24   O     O_R   0.006940 0.180310 0.968270 -0.493749
O25   O     O_R   0.028420 0.332670 0.963010 -0.508068
O26   O     O_R   0.810130 0.520390 0.966030 -0.496078

loop_
_geom_bond_atom_site_label_1
_geom_bond_atom_site_label_2
_ccdc_geom_bond_type
C83   C87   T    
C63   C65   A    
C1    C21   S    
C23   C45   S    
Cr3   O20   S    
C27   C29   S    
C58   H16   S    
C40   O12   A    
Cr6   O2    S    
C25   H49   S    
C18   C26   S    
C24   C27   S    
C2    C12   T    
C86   N3    S    
C3    H33   S    
C56   C78   S    
C80   O6    A    
C39   C41   A    
C20   C30   T    
C84   N1    S    
C45   H30   S    
C29   H45   S    
C21   C31   T    
C62   C63   A    
C81   O9    A    
C71   H27   S    
Cr3   O15   S    
C50   C59   S    
C27   H48   S    
C79   O23   A    
C54   H11   S    
C36   C37   A    
C76   C78   S    
Cr4   O6    S    
Cr4   O5    S    
C63   H24   S    
C11   C14   S    
H35   N1    S    
C66   C68   A    
C77   C83   S    
C84   H36   S    
C65   C73   S    
Cr5   O11   S    
C18   C19   S    
C42   C46   A    
C49   C50   A    
C4    O15   A    
C9    C13   S    
C70   C74   A    
Cr4   O11   S    
C86   H44   S    
C76   H1    S    
C6    C15   T    
C60   C80   S    
C35   C36   A    
C45   C56   S    
C8    C9    S    
C7    C17   T    
C22   C25   S    
C22   H50   S    
C45   C67   S    
C77   O26   A    
C41   C46   A    
C56   C64   S    
C69   C73   A    
C32   C38   A    
C4    C12   S    
C35   H5    S    
C61   C62   A    
C20   C79   S    
C86   H47   S    
C85   H41   S    
C47   C53   A    
C28   C61   S    
C26   C31   S    
C16   O16   A    
C55   C60   A    
Cr6   O3    S    
Cr6   O11   S    
C67   C78   S    
C74   C82   S    
Cr2   O14   S    
Cr2   O12   S    
C49   H15   S    
C54   C59   A    
C1    O13   A    
C33   H51   S    
Cr1   O1    S    
Cr2   O19   S    
C69   H21   S    
C19   N2    S    
C55   H13   S    
C6    C75   S    
C85   N2    S    
C62   H20   S    
C13   H12   S    
C3    C8    S    
C68   H29   S    
C82   O10   A    
C57   C60   A    
C25   C26   S    
Cr1   O17   S    
C48   H10   S    
C14   N3    S    
C78   H14   S    
C51   C53   A    
C43   C44   A    
C5    C9    S    
C37   C38   A    
C42   H7    S    
C18   H34   S    
C46   C81   S    
C47   C48   A    
C85   H40   S    
C23   C34   S    
C50   C51   A    
C64   C76   S    
C66   H28   S    
Cr6   O10   S    
C5    C14   S    
C39   C44   A    
C28   O18   A    
C85   H42   S    
C79   O3    A    
C86   H46   S    
C53   H19   S    
C23   C64   S    
C52   O17   A    
C65   C66   A    
C75   O24   A    
Cr5   O26   S    
Cr1   O4    S    
C22   C24   S    
C36   C44   S    
C42   C43   A    
C77   O2    A    
C19   C29   S    
Cr2   O13   S    
C54   C55   A    
C11   C17   S    
C51   H18   S    
Cr1   O22   S    
Cr4   O23   S    
Cr3   O21   S    
C18   C22   S    
Cr6   O9    S    
C7    C16   S    
C64   H2    S    
C43   H6    S    
C72   C73   A    
C3    C5    S    
C10   C13   S    
C34   C67   S    
C71   C74   A    
C57   H17   S    
C80   O7    A    
C47   C52   S    
C28   O19   A    
C70   H22   S    
C25   C27   S    
C84   H38   S    
C81   O8    A    
Cr4   O24   S    
Cr3   O16   S    
C16   O1    A    
H39   N2    S    
C32   C33   A    
C19   C24   S    
C58   C59   A    
Cr2   O22   S    
C71   C72   A    
C38   H9    S    
C2    C56   S    
C52   O21   A    
C37   H8    S    
C61   C68   A    
C57   C58   A    
Cr5   O25   S    
C48   C49   A    
Cr3   O22   S    
C84   H37   S    
C33   C35   A    
C5    H32   S    
C1    O4    A    
Cr5   O8    S    
C41   H4    S    
C34   C87   S    
C32   C40   S    
C9    C15   S    
C69   C70   A    
C24   C30   S    
C39   H3    S    
H43   N3    S    
C3    C11   S    
C10   C11   S    
C8    H23   S    
C10   N1    S    
C40   O20   A    
C26   C29   S    
C8    C10   S    
Cr1   O18   S    
C72   H25   S    
C75   O25   A    
C4    O14   A    
Cr5   O7    S    
C13   C14   S    
C23   H31   S    
C67   H26   S    
C82   O5    A    
C34   C76   S    
