data_mof_unit_41394.cif
_audit_creation_date              2013-03-05T16:48:43-0500
_audit_creation_method            fapswitch 2.2
_symmetry_space_group_name_H-M    P1
_symmetry_Int_Tables_number       1
_space_group_crystal_system       triclinic
_cell_length_a                    27.717357
_cell_length_b                    8.95443
_cell_length_c                    8.085368
_cell_angle_alpha                 89.98522
_cell_angle_beta                  90.464885
_cell_angle_gamma                 88.57852
_cell_volume                      2006.04901779

loop_
_atom_site_label
_atom_site_type_symbol
_atom_site_description
_atom_site_fract_x
_atom_site_fract_y
_atom_site_fract_z
_atom_type_partial_charge
O1    O     O_R   0.500000 0.285350 0.636850 -0.619979
O2    O     O_R   0.500000 0.714650 0.363150 -0.620273
O3    O     O_R   0.500000 0.714650 0.636850 -0.615095
O4    O     O_R   0.500000 0.285350 0.363150 -0.615731
C1    C     C_R   0.500099 0.217866 0.500016 0.919293
C2    C     C_R   0.499897 0.782134 0.499984 0.918690
O5    O     O_R   0.428760 0.500000 0.636860 -0.563202
O6    O     O_R   0.571240 0.500000 0.363140 -0.562566
O7    O     O_R   0.571240 0.500000 0.636860 -0.563305
O8    O     O_R   0.428760 0.500000 0.363140 -0.565219
C3    C     C_R   0.405584 0.503244 0.499306 0.957773
C4    C     C_R   0.594459 0.497226 0.500824 0.952124
Zn1   Zn    Zn3+2 0.500000 0.500000 0.682780 1.103527
Zn2   Zn    Zn3+2 0.500000 0.500000 0.317220 1.102253
C5    C     C_R   0.180290 0.422499 0.554346 0.616093
C6    C     C_R   0.819340 0.611882 0.469940 0.618460
C7    C     C_R   0.174320 0.662574 0.426409 0.605119
C8    C     C_R   0.826841 0.364262 0.577888 0.571025
O9    O     O_2   0.208768 0.312094 0.618449 -0.448020
O10   O     O_2   0.790170 0.725315 0.416938 -0.443554
O11   O     O_2   0.197454 0.778110 0.358819 -0.484384
O12   O     O_2   0.805438 0.234811 0.614669 -0.473374
N1    N     N_R   0.200912 0.547671 0.494334 -0.345965
N2    N     N_R   0.799540 0.480508 0.516145 -0.346130
C9    C     C_R   0.277702 0.573169 0.639807 -0.162202
C10   C     C_R   0.722681 0.475507 0.659191 -0.174105
C11   C     C_R   0.276743 0.516250 0.346780 -0.161469
C12   C     C_R   0.723820 0.469394 0.359685 -0.161392
C13   C     C_R   0.327689 0.556885 0.643031 0.592617
C14   C     C_R   0.672621 0.483849 0.656339 0.592521
C15   C     C_R   0.326714 0.499703 0.348408 0.591262
C16   C     C_R   0.673654 0.477712 0.355142 0.591467
C17   C     C_R   0.252275 0.551690 0.492342 0.091645
C18   C     C_R   0.748284 0.469989 0.511423 0.095639
C19   C     C_R   0.101365 0.530155 0.489256 -0.191803
C20   C     C_R   0.898646 0.507082 0.534669 -0.193210
C21   C     C_R   0.130110 0.407785 0.546973 -0.125613
C22   C     C_R   0.869521 0.628726 0.478258 -0.100153
C23   C     C_R   0.123444 0.658698 0.425583 -0.150252
C24   C     C_R   0.876989 0.378341 0.598045 -0.147811
C25   C     C_R   0.108415 0.271286 0.584368 0.459530
C26   C     C_R   0.891053 0.765092 0.439795 0.364965
C27   C     C_R   0.094153 0.772852 0.352257 0.338717
C28   C     C_R   0.905964 0.270453 0.682840 0.330872
C29   C     C_R   0.352741 0.518435 0.497294 -0.366887
C30   C     C_R   0.647455 0.486943 0.503823 -0.370863
H1    H     H_    0.256756 0.497089 0.233379 0.196205
H2    H     H_    0.743860 0.466140 0.245234 0.189444
H3    H     H_    0.258466 0.598914 0.752772 0.195873
H4    H     H_    0.741804 0.477705 0.776517 0.189242
C31   C     C_R   0.978387 0.391043 0.580813 -0.019359
C32   C     C_R   0.021538 0.645628 0.439465 0.013796
C33   C     C_R   0.970914 0.644952 0.466670 0.035768
C34   C     C_R   0.028861 0.391362 0.551649 -0.046232
C35   C     C_R   0.949418 0.513737 0.525883 -0.068338
C36   C     C_R   0.050494 0.523342 0.495551 -0.065172
C37   C     C_R   0.956659 0.279289 0.678226 0.404877
C38   C     C_R   0.043709 0.758329 0.345313 0.497828
C39   C     C_R   0.941549 0.776005 0.454426 0.394825
C40   C     C_R   0.058412 0.260172 0.565584 0.381984
C41   C     C_1   0.500032 0.065123 0.500020 -0.137943
C42   C     C_1   0.499962 0.934876 0.499980 -0.137811
N3    N     N_1   0.500000 0.500000 0.073640 0.024648
N4    N     N_1   0.500000 0.500000 0.926360 0.025533
F1    F     F_    0.349186 0.461861 0.205234 -0.582749
F2    F     F_    0.651132 0.478708 0.205399 -0.576961
F3    F     F_    0.351212 0.578755 0.788671 -0.584569
F4    F     F_    0.649223 0.491434 0.803101 -0.576333
O13   O     O_3   0.136821 0.146739 0.623389 -0.681522
H5    H     H_    0.116277 0.066059 0.664923 0.376289
O14   O     O_3   0.862591 0.887601 0.394486 -0.655056
H6    H     H_    0.882298 0.957262 0.329712 0.348743
O15   O     O_3   0.113732 0.897375 0.282151 -0.703978
H7    H     H_    0.131003 0.949121 0.372366 0.399857
O16   O     O_3   0.885957 0.160428 0.777984 -0.724753
H8    H     H_    0.859467 0.207654 0.842711 0.372258
O17   O     O_3   0.985616 0.190652 0.780932 -0.708204
H9    H     H_    0.966219 0.116850 0.840357 0.394299
O18   O     O_3   0.015703 0.845619 0.238349 -0.716711
H10   H     H_    0.036243 0.910289 0.170744 0.388593
O19   O     O_3   0.962262 0.912818 0.478688 -0.715252
H11   H     H_    0.937599 0.985249 0.519913 0.355990
O20   O     O_3   0.040456 0.120046 0.538502 -0.702316
H12   H     H_    0.012698 0.132163 0.461356 0.376169

loop_
_geom_bond_atom_site_label_1
_geom_bond_atom_site_label_2
_geom_bond_distance
_ccdc_geom_bond_type
C27   O15   1.376154 S    
O15   H7    0.990671 S    
O3    C2    1.260663 A    
O19   H11   0.990382 S    
C33   C39   1.414446 A    
C34   C40   1.419238 A    
O17   H9    0.989077 S    
C11   C17   1.395807 A    
C5    O9    1.350351 S    
C7    N1    1.363452 A    
O1    C1    1.260750 A    
C16   F2    1.357610 S    
C19   C21   1.415497 A    
C22   C26   1.408162 A    
O13   H5    0.991122 S    
C10   H4    1.083312 S    
C40   O20   1.378188 S    
C7    C23   1.411406 A    
C8    C24   1.406942 A    
C5    C21   1.401099 A    
O7    Zn1   2.012143 S    
C27   C38   1.408064 A    
C13   F3    1.357972 S    
C10   C18   1.394819 A    
N1    C17   1.425223 S    
C31   C37   1.421836 A    
C24   C28   1.414428 A    
O3    Zn1   1.957520 S    
C6    O10   1.349981 S    
C5    N1    1.361788 A    
C12   C18   1.397027 A    
C6    N2    1.363726 A    
O4    Zn2   1.957521 S    
O2    C2    1.260751 A    
O5    C3    1.279802 A    
C33   C35   1.415549 A    
C9    C13   1.389593 A    
C34   C36   1.414639 A    
C11   C15   1.389246 A    
C37   O17   1.385978 S    
C12   C16   1.390803 A    
C4    C30   1.469494 S    
O8    Zn2   2.012146 S    
C23   C27   1.416398 A    
N2    C18   1.426319 S    
N3    N4    1.190812 T    
C13   C29   1.410961 A    
C28   O16   1.379702 S    
C19   C23   1.415678 A    
O16   H8    0.991344 S    
O20   H12   0.990367 S    
C20   C24   1.410977 A    
C28   C37   1.410105 A    
O6    C4    1.281265 A    
C1    C41   1.367773 S    
C32   C38   1.419002 A    
C38   O18   1.385690 S    
C10   C14   1.387698 A    
C8    N2    1.363766 A    
C3    C29   1.467560 S    
O1    Zn1   1.957709 S    
C32   C33   1.422223 A    
C25   O13   1.383986 S    
C11   H1    1.083322 S    
C15   F1    1.358053 S    
C12   H2    1.083164 S    
O6    Zn2   2.006222 S    
C19   C36   1.414176 A    
C8    O12   1.349382 S    
C16   C30   1.410875 A    
C14   C30   1.411761 A    
C39   O19   1.379161 S    
C25   C40   1.399036 A    
O4    C1    1.260666 A    
C26   C39   1.409445 A    
C31   C34   1.420713 A    
C2    C42   1.367766 S    
C20   C22   1.412916 A    
O14   H6    0.991518 S    
C20   C35   1.412385 A    
Zn1   N4    1.969434 S    
Zn2   N3    1.969434 S    
C26   O14   1.382800 S    
C31   C35   1.413925 A    
C21   C25   1.409322 A    
C41   C42   1.166334 T    
O2    Zn2   1.957708 S    
O7    C4    1.278790 A    
C9    H3    1.083305 S    
O8    C3    1.279129 A    
O18   H10   0.989674 S    
O5    Zn1   2.006225 S    
C15   C29   1.410564 A    
C9    C17   1.395873 A    
C14   F4    1.357811 S    
C32   C36   1.413881 A    
C6    C22   1.403826 A    
C7    O11   1.348496 S    
