data_mof_unit_17064.cif
_audit_creation_date              2012-12-10T17:39:22-0500
_audit_creation_method            fapswitch 2.2
_symmetry_space_group_name_H-M    P1
_symmetry_Int_Tables_number       1
_space_group_crystal_system       triclinic
_cell_length_a                    12.303017
_cell_length_b                    13.19691
_cell_length_c                    27.755412
_cell_angle_alpha                 78.320133
_cell_angle_beta                  101.566846
_cell_angle_gamma                 116.678383
_cell_volume                      3912.22971007

loop_
_atom_site_label
_atom_site_type_symbol
_atom_type_description
_atom_site_fract_x
_atom_site_fract_y
_atom_site_fract_z
_atom_type_partial_charge
C1    C     C_R   0.854425 0.286368 0.506164 0.889009
C2    C     C_R   0.039069 0.422582 0.732038 -0.082926
C3    C     C_R   0.005397 0.498447 0.747083 0.253543
C4    C     C_R   0.034528 0.506115 0.900728 -0.046310
C5    C     C_R   0.953221 0.406387 0.879336 -0.022859
C6    C     C_R   0.883846 0.308747 0.909443 -0.143162
C7    C     C_R   0.103794 0.604375 0.870111 -0.025739
C8    C     C_R   0.993739 0.490641 0.645679 -0.147233
C9    C     C_R   0.021060 0.521657 0.353845 -0.181529
C10   C     C_R   0.996594 0.406477 0.035386 -0.001004
C11   C     C_R   0.128036 0.613688 0.024561 0.059528
C12   C     C_R   0.997456 0.496443 0.592488 0.776088
C13   C     C_R   0.065672 0.510999 0.055526 0.072103
C14   C     C_R   0.946710 0.304947 0.068178 -0.303045
C15   C     C_R   0.953888 0.306063 0.119138 0.456817
C16   C     C_R   0.013067 0.411280 0.138609 -0.076092
C17   C     C_R   0.071122 0.513226 0.106988 -0.120724
C18   C     C_R   0.133328 0.618064 0.126758 -0.023601
C19   C     C_R   0.131564 0.620599 0.176848 0.606895
C20   C     C_R   0.015150 0.418358 0.188927 0.592074
C21   C     C_R   0.944690 0.510704 0.266131 -0.258383
C22   C     C_R   0.923757 0.506503 0.314330 -0.103503
C23   C     C_R   0.145175 0.713347 0.493563 0.818651
C24   C     C_R   0.140230 0.550998 0.342247 0.236931
C25   C     C_R   0.156604 0.546894 0.293615 0.372228
C26   C     C_R   0.058245 0.527729 0.255931 0.267773
C27   C     C_R   0.980025 0.406248 0.983240 0.066411
C28   C     C_R   0.046359 0.507590 0.952624 0.070382
C29   C     C_R   0.123976 0.610447 0.973296 0.037841
C30   C     C_R   0.896704 0.308467 0.960327 -0.200548
C31   C     C_R   0.184419 0.703622 0.891147 -0.135052
C32   C     C_R   0.190608 0.716800 0.045930 -0.198283
C33   C     C_R   0.192810 0.718717 0.095932 -0.134751
C34   C     C_R   0.004366 0.505640 0.407170 0.891104
C35   C     C_R   0.194435 0.706865 0.941656 -0.201437
C36   C     C_R   0.264553 0.028455 0.449259 0.040416
C37   C     C_R   0.226645 0.835249 0.487577 -0.065343
C38   C     C_R   0.809835 0.094671 0.552347 -0.429386
C39   C     C_R   0.724503 0.993948 0.575653 0.483730
C40   C     C_R   0.599106 0.963828 0.562032 0.415055
C41   C     C_R   0.557805 0.023631 0.518832 -0.190035
C42   C     C_R   0.645290 0.124572 0.495471 -0.037001
C43   C     C_R   0.433026 0.986073 0.497694 0.000638
C44   C     C_R   0.392780 0.062190 0.463410 0.042640
C45   C     C_R   0.942578 0.406735 0.828012 0.544965
C46   C     C_R   0.481830 0.162555 0.440713 0.258393
C47   C     C_R   0.606264 0.182744 0.452161 0.346209
C48   C     C_R   0.350078 0.871320 0.505943 -0.200249
C49   C     C_R   0.183074 0.914868 0.461931 -0.261696
C50   C     C_R   0.770495 0.164455 0.515321 -0.086261
C51   C     C_R   0.342288 0.321772 0.575009 -0.295073
C52   C     C_R   0.765022 0.653326 0.437371 -0.042254
C53   C     C_R   0.671671 0.691010 0.425472 0.339868
C54   C     C_R   0.565496 0.631210 0.448608 -0.180396
C55   C     C_R   0.552706 0.536434 0.485033 -0.082408
C56   C     C_R   0.092116 0.600478 0.819028 0.553050
C57   C     C_R   0.652176 0.503952 0.496857 0.274781
C58   C     C_R   0.447009 0.475064 0.511271 -0.006791
C59   C     C_R   0.443769 0.383554 0.548782 0.162402
C60   C     C_R   0.542468 0.355018 0.560483 -0.276210
C61   C     C_R   0.644796 0.414893 0.535707 -0.157178
C62   C     C_R   0.343719 0.500292 0.502308 0.018165
C63   C     C_R   0.243797 0.350584 0.564197 0.096932
C64   C     C_R   0.963588 0.568803 0.711391 -0.093738
C65   C     C_R   0.958219 0.565242 0.661060 -0.254231
C66   C     C_R   0.030466 0.415301 0.681862 0.387866
Cu1   Cu    Cu3+1 0.098270 0.475420 0.511360 0.971486
Cu2   Cu    Cu3+1 0.901730 0.524580 0.488640 0.953411
H1    H     H_    0.936330 0.627031 0.722690 0.170088
H2    H     H_    0.240354 0.779833 0.868574 0.190366
H3    H     H_    0.235694 0.798760 0.024694 0.140402
H4    H     H_    0.240553 0.800324 0.110236 0.186120
H5    H     H_    0.260506 0.785996 0.954886 0.142757
H6    H     H_    0.085856 0.887558 0.449620 0.153509
H7    H     H_    0.069745 0.366979 0.759670 0.170475
H8    H     H_    0.382312 0.807746 0.524492 0.204342
H9    H     H_    0.906247 0.123957 0.566573 0.166475
H10   H     H_    0.164721 0.302700 0.584005 0.139486
H11   H     H_    0.541582 0.286473 0.589781 0.160214
H12   H     H_    0.339166 0.251538 0.603658 0.154663
H13   H     H_    0.337847 0.567837 0.474372 0.168377
H14   H     H_    0.847832 0.699033 0.419771 0.116687
H15   H     H_    0.818886 0.231565 0.893792 0.190404
H16   H     H_    0.495897 0.662726 0.438143 0.171399
H17   H     H_    0.717231 0.389728 0.549501 0.195261
H18   H     H_    0.870891 0.498766 0.235793 0.172700
H19   H     H_    0.903639 0.222424 0.055243 0.135585
H20   H     H_    0.836819 0.230901 0.980517 0.145094
H21   H     H_    0.928933 0.622782 0.634104 0.185331
N1    N     N_R   0.012564 0.502489 0.799032 -0.456908
N2    N     N_R   0.071267 0.521989 0.206429 -0.442478
N3    N     N_R   0.246290 0.438210 0.528570 -0.193862
N4    N     N_R   0.754320 0.561170 0.471730 -0.212662
O1    O     O_R   0.972510 0.318140 0.514280 -0.609107
O2    O     O_2   0.960254 0.323124 0.220219 -0.481994
O3    O     O_2   0.160880 0.693355 0.789708 -0.529014
O4    O     O_2   0.187415 0.721091 0.195666 -0.516454
O5    O     O_R   0.806530 0.359640 0.495100 -0.569111
O6    O     O_R   0.082990 0.479270 0.579320 -0.558758
O7    O     O_R   0.917010 0.520770 0.560140 -0.600723
O8    O     O_R   0.193470 0.640360 0.504900 -0.576816
O9    O     O_R   0.027490 0.681860 0.485720 -0.594475
O10   O     O_R   0.082990 0.479230 0.439860 -0.544665
O11   O     O_R   0.917010 0.520730 0.420680 -0.573551
O12   O     O_2   0.862646 0.312131 0.807169 -0.532213
O13   O     O_3   0.056342 0.332430 0.670075 -0.716369
H22   H     H_    0.008230 0.308653 0.637920 0.314969
O14   O     O_3   0.239329 0.586136 0.378650 -0.754402
H23   H     H_    0.313782 0.638996 0.362863 0.338822
O15   O     O_3   0.265674 0.557715 0.282037 -0.710688
H24   H     H_    0.310929 0.533787 0.312364 0.319862
O16   O     O_3   0.446804 0.233599 0.403973 -0.744488
H25   H     H_    0.515586 0.311067 0.402329 0.343594
C67   C     C_R   0.211138 0.107145 0.421126 0.191389
C68   C     C_R   0.229634 0.204605 0.440758 -0.099729
C69   C     C_R   0.177118 0.277373 0.414541 -0.130692
C70   C     C_R   0.104760 0.252766 0.368965 -0.082174
C71   C     C_R   0.085334 0.155675 0.349344 -0.105163
C72   C     C_R   0.138005 0.082852 0.375310 -0.150717
H26   H     H_    0.284732 0.224014 0.476202 0.130601
H27   H     H_    0.192193 0.352571 0.429608 0.183502
H28   H     H_    0.063251 0.308491 0.348898 0.146316
H29   H     H_    0.029221 0.136712 0.314053 0.174032
H30   H     H_    0.122187 0.007805 0.359697 0.130639
O17   O     O_3   0.521458 0.882476 0.594348 -0.682513
H31   H     H_    0.454677 0.904513 0.595013 0.321912
O18   O     O_3   0.760845 0.929032 0.615247 -0.664483
H32   H     H_    0.851683 0.961516 0.620524 0.318445
O19   O     O_3   0.689426 0.252166 0.419484 -0.727910
H33   H     H_    0.644351 0.247527 0.385692 0.337380
O20   O     O_3   0.681829 0.786275 0.391705 -0.723013
H34   H     H_    0.762339 0.819430 0.379051 0.311211
C73   C     C_R   0.799129 0.488826 0.319625 0.195502
C74   C     C_R   0.779120 0.580249 0.327863 -0.099907
C75   C     C_R   0.659584 0.570454 0.323520 -0.158898
C76   C     C_R   0.559477 0.469689 0.311068 -0.084163
C77   C     C_R   0.578652 0.379226 0.301839 -0.135377
C78   C     C_R   0.697938 0.389254 0.305430 -0.173093
H35   H     H_    0.856025 0.660379 0.335703 0.114714
H36   H     H_    0.644387 0.641871 0.328612 0.171619
H37   H     H_    0.467176 0.462294 0.307826 0.159444
H38   H     H_    0.501184 0.301770 0.291406 0.169621
H39   H     H_    0.711684 0.319836 0.296628 0.158750
O21   O     O_3   0.902911 0.204946 0.150135 -0.667781
H40   H     H_    0.864448 0.139524 0.130600 0.319337

loop_
_geom_bond_atom_site_label_1
_geom_bond_atom_site_label_2
_ccdc_geom_bond_type
C10   C27   A    
C58   C62   A    
C21   C26   A    
C60   H11   S    
C8    C66   A    
C46   O16   S    
C41   C42   A    
C48   H8    S    
C77   H38   S    
C36   C67   S    
C54   H16   S    
C67   C68   A    
C19   O4    S    
Cu1   O10   S    
C75   C76   A    
C53   C54   A    
O14   H23   S    
C65   H21   S    
C47   O19   S    
C3    N1    S    
C28   C29   A    
C1    O1    A    
Cu2   O9    S    
C14   H19   S    
C78   H39   S    
C5    C6    A    
C9    C22   A    
C23   O9    A    
O13   H22   S    
C15   C16   A    
C69   C70   A    
C18   C19   A    
C51   H12   S    
C12   O6    A    
C33   H4    S    
C46   C47   A    
C31   H2    S    
C45   O12   S    
C16   C17   A    
C62   N3    A    
C63   N3    A    
Cu1   O1    S    
C24   O14   S    
C26   N2    S    
C43   C48   A    
C67   C72   A    
C8    C12   S    
C42   C47   A    
C56   N1    A    
C73   C78   A    
C59   C60   A    
C57   N4    A    
C21   C22   A    
C71   C72   A    
C27   C30   A    
C41   C43   A    
C7    C56   A    
C66   O13   S    
C4    C7    A    
O16   H25   S    
C4    C28   A    
C44   C46   A    
C32   H3    S    
C75   H36   S    
C20   N2    A    
C7    C31   A    
C69   H27   S    
C22   C73   S    
Cu1   Cu2   S    
C38   C39   A    
C24   C25   A    
C10   C14   A    
C39   C40   A    
C76   C77   A    
C58   C59   A    
C23   C37   S    
C5    C45   A    
C34   O11   A    
O15   H24   S    
C60   C61   A    
C39   O18   S    
C70   H28   S    
Cu2   O7    S    
C76   H37   S    
C73   C74   A    
C37   C49   A    
C16   C20   A    
C17   C18   A    
C51   C63   A    
C52   N4    A    
C64   H1    S    
C37   C48   A    
C52   H14   S    
C45   N1    A    
C61   H17   S    
C25   O15   S    
C42   C50   A    
C53   O20   S    
C40   C41   A    
C6    C30   A    
C62   H13   S    
C11   C32   A    
C55   C57   A    
C43   C44   A    
O17   H31   S    
C31   C35   A    
C36   C44   A    
C51   C59   A    
C30   H20   S    
O18   H32   S    
C74   H35   S    
C52   C53   A    
Cu1   O8    S    
O19   H33   S    
C1    C50   S    
C56   O3    S    
C54   C55   A    
C35   H5    S    
C6    H15   S    
C14   C15   A    
C20   O2    S    
Cu2   O11   S    
C4    C5    A    
C2    C66   A    
C10   C13   A    
C1    O5    A    
C21   H18   S    
C9    C24   A    
C57   C61   A    
C74   C75   A    
C38   C50   A    
C38   H9    S    
Cu1   O6    S    
C77   C78   A    
C29   C35   A    
Cu2   N4    S    
C13   C17   A    
O21   H40   S    
C64   C65   A    
C2    C3    A    
C25   C26   A    
C70   C71   A    
C32   C33   A    
C11   C13   A    
C23   O8    A    
C40   O17   S    
C34   O10   A    
Cu1   N3    S    
C9    C34   S    
C72   H30   S    
C71   H29   S    
C3    C64   A    
O20   H34   S    
C18   C33   A    
Cu2   O5    S    
C12   O7    A    
C19   N2    A    
C2    H7    S    
C15   O21   S    
C8    C65   A    
C11   C29   A    
C68   H26   S    
C55   C58   A    
C27   C28   A    
C49   H6    S    
C36   C49   A    
C68   C69   A    
C63   H10   S    
