data_mof_unit_61603.cif
_audit_creation_date              2012-12-10T20:11:55-0500
_audit_creation_method            fapswitch 2.2
_symmetry_space_group_name_H-M    P1
_symmetry_Int_Tables_number       1
_space_group_crystal_system       triclinic
_cell_length_a                    13.654342
_cell_length_b                    18.438316
_cell_length_c                    19.280497
_cell_angle_alpha                 90.373846
_cell_angle_beta                  90.133466
_cell_angle_gamma                 82.889734
_cell_volume                      4816.67971716

loop_
_atom_site_label
_atom_site_type_symbol
_atom_type_description
_atom_site_fract_x
_atom_site_fract_y
_atom_site_fract_z
_atom_type_partial_charge
C1    C     C_R   0.502306 0.500032 0.634252 0.974740
C2    C     C_R   0.497699 0.499967 0.365747 0.974524
C3    C     C_R   0.436015 0.454946 0.253799 0.324026
C4    C     C_R   0.564096 0.545016 0.746180 0.325365
C5    C     C_R   0.494805 0.499784 0.290679 -0.265523
C6    C     C_R   0.505241 0.500211 0.709318 -0.265822
C7    C     C_R   0.568637 0.450745 0.036688 0.271049
C8    C     C_R   0.431530 0.549258 0.963310 0.271047
C9    C     C_R   0.569665 0.450296 0.963873 0.426999
C10   C     C_R   0.430500 0.549706 0.036125 0.426939
C11   C     C_R   0.501046 0.499589 0.928374 -0.070459
C12   C     C_R   0.499116 0.500411 0.071624 -0.070442
C13   C     C_R   0.433409 0.279721 0.460322 -0.003039
C14   C     C_R   0.566662 0.720274 0.539617 -0.007113
C15   C     C_R   0.432228 0.203640 0.459200 0.329716
C16   C     C_R   0.568183 0.796325 0.540454 0.337835
C17   C     C_R   0.500584 0.158460 0.499687 -0.056960
C18   C     C_R   0.500103 0.841478 0.499743 0.034510
C19   C     C_R   0.568605 0.191798 0.540392 0.333565
C20   C     C_R   0.431895 0.808159 0.459197 0.341649
C21   C     C_R   0.566763 0.268180 0.539669 -0.046358
C22   C     C_R   0.433393 0.731807 0.460203 -0.050045
C23   C     C_R   0.685892 0.486906 0.499982 0.913558
C24   C     C_R   0.314108 0.513094 0.500018 0.914053
C25   C     C_R   0.559419 0.031923 0.450700 0.416172
C26   C     C_R   0.442482 0.966772 0.547739 0.409701
C27   C     C_R   0.558351 0.955635 0.451407 0.376719
C28   C     C_R   0.442932 0.044036 0.547529 0.314742
C29   C     C_R   0.500389 0.922771 0.499492 -0.106576
C30   C     C_R   0.501228 0.076962 0.499168 -0.130097
C31   C     C_1   0.210626 0.523284 0.500455 -0.079848
C32   C     C_1   0.789374 0.476716 0.499546 -0.081677
C33   C     C_2   0.019348 0.531583 0.501364 0.288017
C34   C     C_2   0.980651 0.468417 0.498638 0.287462
C35   C     C_1   0.876953 0.470265 0.499090 0.097117
C36   C     C_1   0.123046 0.529735 0.500911 0.098303
C37   C     C_R   0.551904 0.545672 0.255592 -0.266214
C38   C     C_R   0.448131 0.454344 0.744423 -0.264813
C39   C     C_R   0.553310 0.546201 0.183844 0.453904
C40   C     C_R   0.446770 0.453810 0.816171 0.453751
C41   C     C_R   0.496704 0.500571 0.146882 -0.029718
C42   C     C_R   0.503435 0.499415 0.853116 -0.029921
C43   C     C_R   0.437434 0.455259 0.181393 0.383727
C44   C     C_R   0.562722 0.544700 0.818586 0.383649
H1    H     H_    0.618897 0.293904 0.570837 0.189711
H2    H     H_    0.381231 0.706085 0.429059 0.189999
H3    H     H_    0.596710 0.580326 0.284101 0.221866
H4    H     H_    0.403279 0.419711 0.715926 0.222550
H5    H     H_    0.380899 0.314432 0.429387 0.221987
H6    H     H_    0.619080 0.685571 0.570628 0.221953
N1    N     N_R   0.499990 0.310560 0.500020 -0.154544
N2    N     N_R   0.500010 0.689440 0.499980 -0.154247
O1    O     O_R   0.500000 0.439160 0.601820 -0.619308
O2    O     O_R   0.500000 0.560840 0.398180 -0.620413
O3    O     O_R   0.500040 0.560790 0.601820 -0.574532
O4    O     O_R   0.499960 0.439210 0.398180 -0.577622
O5    O     O_R   0.640320 0.430440 0.499980 -0.615696
O6    O     O_R   0.359680 0.569560 0.500020 -0.612986
O7    O     O_R   0.640370 0.552060 0.499990 -0.593352
O8    O     O_R   0.359630 0.447940 0.500010 -0.592376
Zn1   Zn    Zn3+2 0.499970 0.418790 0.500000 1.027865
Zn2   Zn    Zn3+2 0.500030 0.581210 0.500000 1.031547
Cl1   Cl    Cl    0.053066 0.382195 0.494232 -0.452790
Cl2   Cl    Cl    0.946933 0.617804 0.505770 -0.452621
Cl3   Cl    Cl    0.656588 0.139576 0.592376 -0.416754
Cl4   Cl    Cl    0.344362 0.860318 0.406813 -0.410249
O9    O     O_3   0.618398 0.059757 0.401734 -0.612586
H7    H     H_    0.613625 0.113514 0.405934 0.356970
O10   O     O_3   0.386880 0.931854 0.593906 -0.660806
H8    H     H_    0.349494 0.967709 0.625180 0.408865
Cl5   Cl    Cl    0.631289 0.901000 0.390718 -0.346639
Cl6   Cl    Cl    0.370817 0.100826 0.607509 -0.422472
Cl7   Cl    Cl    0.627436 0.603990 0.141571 -0.402062
Cl8   Cl    Cl    0.372626 0.396052 0.858468 -0.402459
Cl9   Cl    Cl    0.364893 0.399196 0.133729 -0.347292
Cl10  Cl    Cl    0.635334 0.600731 0.866227 -0.346598
Cl11  Cl    Cl    0.356449 0.401484 0.297141 -0.446368
Cl12  Cl    Cl    0.643687 0.598437 0.702811 -0.443411
Cl13  Cl    Cl    0.652927 0.390014 0.085178 -0.439639
Cl14  Cl    Cl    0.347242 0.609992 0.914821 -0.438410
O11   O     O_3   0.635600 0.403373 0.925161 -0.669117
H9    H     H_    0.679961 0.371666 0.955870 0.410494
O12   O     O_3   0.364563 0.596629 0.074837 -0.668880
H10   H     H_    0.320208 0.628342 0.044128 0.410513
Cl15  Cl    Cl    0.344835 0.166727 0.406764 -0.381001
Cl16  Cl    Cl    0.655968 0.833180 0.592594 -0.377305

loop_
_geom_bond_atom_site_label_1
_geom_bond_atom_site_label_2
_ccdc_geom_bond_type
O6    Zn2   S    
C5    C37   A    
C27   C29   A    
N1    Zn1   S    
O11   H9    S    
C39   C41   A    
C23   O7    A    
C3    C43   A    
C22   N2    A    
C19   C21   A    
C33   Cl2   S    
O3    Zn2   S    
C10   O12   S    
C33   C36   S    
C11   C42   S    
C15   C17   A    
C34   C35   S    
C44   Cl10  S    
C1    O1    A    
C13   N1    A    
O1    Zn1   S    
C14   N2    A    
C25   O9    S    
C6    C38   A    
C37   H3    S    
C38   H4    S    
C15   Cl15  S    
C40   C42   A    
C24   O6    A    
C16   Cl16  S    
C17   C30   S    
C41   C43   A    
C28   Cl6   S    
C42   C44   A    
C21   H1    S    
C43   Cl9   S    
C7    C12   A    
C1    C6    S    
C32   C35   T    
C4    C6    A    
C2    O2    A    
O2    Zn2   S    
O9    H7    S    
O8    Zn1   S    
C4    Cl12  S    
C12   C41   S    
O12   H10   S    
C24   O8    A    
C33   C34   D    
C18   C29   S    
C9    C11   A    
C10   C12   A    
C13   H5    S    
C16   C18   A    
C22   H2    S    
C20   C22   A    
C13   C15   A    
C14   C16   A    
C2    C5    S    
C3    Cl11  S    
C21   N1    A    
C27   Cl5   S    
C7    Cl13  S    
C20   Cl4   S    
C25   C30   A    
C23   O5    A    
O7    Zn2   S    
O4    Zn1   S    
C3    C5    A    
O5    Zn1   S    
C25   C27   A    
C4    C44   A    
C26   C28   A    
C23   C32   S    
C28   C30   A    
C1    O3    A    
C24   C31   S    
C37   C39   A    
N2    Zn2   S    
C38   C40   A    
C14   H6    S    
C8    C11   A    
C34   Cl1   S    
C17   C19   A    
C40   Cl8   S    
C19   Cl3   S    
C18   C20   A    
C39   Cl7   S    
O10   H8    S    
C7    C9    A    
C26   C29   A    
C8    C10   A    
C8    Cl14  S    
C26   O10   S    
C31   C36   T    
C2    O4    A    
C9    O11   S    
