data_mof_unit_18553.cif
_audit_creation_date              2012-12-11T17:23:18-0500
_audit_creation_method            fapswitch 2.2
_symmetry_space_group_name_H-M    P1
_symmetry_Int_Tables_number       1
_space_group_crystal_system       triclinic
_cell_length_a                    22.113211
_cell_length_b                    7.102331
_cell_length_c                    19.67129
_cell_angle_alpha                 89.529843
_cell_angle_beta                  99.40578
_cell_angle_gamma                 89.761913
_cell_volume                      3047.79532306

loop_
_atom_site_label
_atom_site_type_symbol
_atom_type_description
_atom_site_fract_x
_atom_site_fract_y
_atom_site_fract_z
_atom_type_partial_charge
O1    O     O_R   0.443980 0.494320 0.557430 -0.528017
O2    O     O_R   0.556020 0.994320 0.442570 -0.527210
O3    O     O_R   0.441210 0.822520 0.414610 -0.541538
O4    O     O_R   0.558790 0.322520 0.585390 -0.537836
C1    C     C_R   0.425629 0.655803 0.390299 0.693084
C2    C     C_R   0.573514 0.153863 0.610796 0.695156
O5    O     O_R   0.436920 0.823940 0.555180 -0.533575
O6    O     O_R   0.563080 0.323940 0.444820 -0.534299
O7    O     O_R   0.551700 0.995760 0.584140 -0.534756
O8    O     O_R   0.448300 0.495760 0.415860 -0.533178
C3    C     C_R   0.420468 0.655059 0.573554 0.714056
C4    C     C_R   0.578702 0.155571 0.425598 0.717550
O9    O     O_3   0.537660 0.661290 0.509340 -0.369785
O10   O     O_3   0.462340 0.161290 0.490660 -0.371906
V1    V     V_3+5 0.493010 0.935560 0.498270 1.448340
V2    V     V_3+5 0.506990 0.435560 0.501730 1.452923
C5    C     C_R   0.749341 0.930937 0.207673 0.020581
C6    C     C_R   0.236150 0.413001 0.775634 0.019369
C7    C     C_R   0.797104 0.068158 0.209774 0.049582
C8    C     C_R   0.189410 0.554798 0.774090 0.045499
C9    C     C_R   0.800802 0.214642 0.258370 0.151219
C10   C     C_R   0.186877 0.703307 0.725504 0.148941
C11   C     C_R   0.756790 0.233109 0.301467 -0.205098
C12   C     C_R   0.232698 0.724012 0.684521 -0.207250
H1    H     H_    0.760420 0.347865 0.337853 0.166548
H2    H     H_    0.230469 0.842209 0.649007 0.167752
C13   C     C_R   0.708526 0.106048 0.298358 0.047825
C14   C     C_R   0.281333 0.595825 0.689221 0.047140
C15   C     C_R   0.704865 0.954348 0.252132 0.134212
C16   C     C_R   0.282267 0.437854 0.733244 0.130736
C17   C     C_1   0.841666 0.068206 0.162621 0.007076
C18   C     C_1   0.147778 0.562795 0.824992 0.007372
C19   C     C_1   0.663400 0.130544 0.343996 0.048154
C20   C     C_1   0.329885 0.625429 0.647883 0.050164
C21   C     C_1   0.625094 0.145453 0.381465 -0.143373
C22   C     C_1   0.371137 0.643161 0.614169 -0.141497
C23   C     C_1   0.878568 0.067935 0.123038 -0.175832
C24   C     C_1   0.114921 0.567055 0.869193 -0.187874
C25   C     C_R   0.626632 0.047818 0.798102 -0.172282
C26   C     C_R   0.374161 0.633124 0.200799 -0.170773
H3    H     H_    0.539858 0.076842 0.732317 0.136762
H4    H     H_    0.460064 0.661764 0.267409 0.140637
H5    H     H_    0.603910 0.015123 0.841281 0.130096
H6    H     H_    0.397576 0.641171 0.156819 0.122619
C27   C     C_R   0.614518 0.136216 0.677769 -0.046837
C28   C     C_R   0.384822 0.647294 0.323897 -0.050661
C29   C     C_R   0.911189 0.123238 0.763597 -0.197174
C30   C     C_R   0.089488 0.559439 0.236892 -0.197887
C31   C     C_R   0.875832 0.124857 0.697694 0.103280
C32   C     C_R   0.125235 0.534916 0.301934 0.100879
C33   C     C_R   0.813776 0.066867 0.689558 0.063034
C34   C     C_R   0.189305 0.503137 0.306889 0.066528
C35   C     C_R   0.783436 0.072799 0.748471 0.031157
C36   C     C_R   0.218372 0.558903 0.249786 0.032552
C37   C     C_R   0.820706 0.059886 0.814883 0.014200
C38   C     C_R   0.180945 0.572621 0.183393 0.003495
C39   C     C_R   0.718075 0.086091 0.744104 0.050283
C40   C     C_R   0.282786 0.596242 0.255389 0.059578
C41   C     C_R   0.691175 0.049964 0.804038 0.105917
C42   C     C_R   0.309882 0.609239 0.194616 0.085408
C43   C     C_R   0.729227 0.018661 0.868476 0.062562
C44   C     C_R   0.272888 0.600715 0.128879 0.063040
C45   C     C_R   0.792916 0.030301 0.873160 -0.209689
C46   C     C_R   0.208871 0.588757 0.124329 -0.182480
C47   C     C_R   0.678604 0.142133 0.682640 -0.216082
C48   C     C_R   0.321113 0.628847 0.319471 -0.228348
C49   C     C_R   0.589165 0.085944 0.735568 -0.151043
C50   C     C_R   0.410905 0.647652 0.264507 -0.139544
C51   C     C_R   0.885371 0.077609 0.821683 -0.106486
C52   C     C_R   0.115989 0.566415 0.177393 -0.106714
H7    H     H_    0.696703 0.192186 0.638370 0.101357
H8    H     H_    0.302374 0.644575 0.366151 0.107104
H9    H     H_    0.959863 0.152285 0.769504 0.135487
H10   H     H_    0.039967 0.565185 0.232215 0.137802
H11   H     H_    0.821003 0.016617 0.923532 0.105426
H12   H     H_    0.180158 0.591363 0.074369 0.099800
O11   O     O_R   0.051730 0.724670 0.084120 -0.534019
O12   O     O_R   0.948270 0.224670 0.915880 -0.536486
O13   O     O_R   0.063080 0.393540 0.944820 -0.540070
O14   O     O_R   0.936920 0.893540 0.055180 -0.539764
C53   C     C_R   0.075768 0.561572 0.922005 0.709150
C54   C     C_R   0.922494 0.061524 0.075856 0.720284
O15   O     O_R   0.058800 0.395030 0.085390 -0.534817
O16   O     O_R   0.941200 0.895030 0.914610 -0.536148
O17   O     O_R   0.943980 0.223310 0.057440 -0.526656
O18   O     O_R   0.056020 0.723310 0.942560 -0.531042
C55   C     C_R   0.073766 0.562735 0.110511 0.703330
C56   C     C_R   0.927152 0.064713 0.888829 0.701322
O19   O     O_3   0.962360 0.556290 0.990650 -0.370587
O20   O     O_3   0.037640 0.056290 0.009350 -0.371944
V3    V     V_3+5 0.006980 0.281990 0.001730 1.428491
V4    V     V_3+5 0.993020 0.781990 0.998270 1.425833
I1    I     I_    0.630488 0.759522 0.250938 -0.488581
I2    I     I_    0.355578 0.236859 0.735146 -0.486702
C57   C     C_3   0.788697 0.950896 0.625712 -0.381320
C58   C     C_3   0.761302 0.761241 0.643658 -0.295073
C59   C     C_3   0.746272 0.637131 0.580162 -0.755684
H13   H     H_    0.712908 0.709634 0.539959 0.235590
H14   H     H_    0.788562 0.603374 0.558910 0.228658
H15   H     H_    0.725735 0.503301 0.594594 0.210451
H16   H     H_    0.794619 0.685239 0.683010 0.195618
H17   H     H_    0.718461 0.783169 0.664995 0.210189
H18   H     H_    0.755942 0.032023 0.587922 0.161666
H19   H     H_    0.826793 0.912932 0.597904 0.183227
C60   C     C_3   0.220519 0.371604 0.364674 -0.380981
C61   C     C_3   0.258939 0.212334 0.339913 -0.297183
C62   C     C_3   0.288003 0.088192 0.400322 -0.739339
H20   H     H_    0.315778 0.174649 0.440617 0.234099
H21   H     H_    0.252058 0.012626 0.422985 0.217943
H22   H     H_    0.318824 0.983455 0.382077 0.219800
H23   H     H_    0.229112 0.124280 0.301837 0.198423
H24   H     H_    0.296465 0.267332 0.314706 0.213087
H25   H     H_    0.246889 0.451205 0.407651 0.164260
H26   H     H_    0.185130 0.295743 0.388072 0.178284
C63   C     C_3   0.905701 0.187237 0.637046 -0.381219
C64   C     C_3   0.927556 0.392319 0.645026 -0.293892
C65   C     C_3   0.953709 0.459825 0.581950 -0.729598
H27   H     H_    0.993314 0.370405 0.574204 0.243624
H28   H     H_    0.918046 0.454719 0.535153 0.225531
H29   H     H_    0.969542 0.607491 0.589615 0.231038
H30   H     H_    0.888417 0.485129 0.651887 0.198624
H31   H     H_    0.963702 0.405962 0.691078 0.209742
H32   H     H_    0.945140 0.092626 0.633089 0.199829
H33   H     H_    0.873010 0.179971 0.587930 0.175421
C66   C     C_3   0.093128 0.536780 0.364691 -0.383421
C67   C     C_3   0.059941 0.724875 0.371049 -0.292956
C68   C     C_3   0.029938 0.727742 0.435675 -0.717963
H34   H     H_    0.995758 0.612938 0.433957 0.243942
H35   H     H_    0.065087 0.710201 0.482593 0.232743
H36   H     H_    0.006120 0.864627 0.438710 0.224457
H37   H     H_    0.093353 0.842254 0.373596 0.194969
H38   H     H_    0.023679 0.748848 0.325590 0.213687
H39   H     H_    0.059693 0.419285 0.360712 0.195612
H40   H     H_    0.126138 0.517628 0.413162 0.175276
C69   C     C_3   0.741513 0.756750 0.161422 -0.327916
C70   C     C_3   0.789819 0.710530 0.116237 -0.302066
C71   C     C_3   0.774581 0.527690 0.077194 -0.763828
H41   H     H_    0.771690 0.409151 0.113591 0.251866
H42   H     H_    0.730095 0.542942 0.042051 0.222674
H43   H     H_    0.810858 0.495102 0.046062 0.224144
H44   H     H_    0.790555 0.822974 0.077208 0.185600
H45   H     H_    0.835677 0.694963 0.148568 0.241067
H46   H     H_    0.739559 0.632151 0.195594 0.228140
H47   H     H_    0.696460 0.769175 0.127003 0.196564
C72   C     C_3   0.241857 0.234477 0.820622 -0.318444
C73   C     C_3   0.191748 0.189269 0.863540 -0.297569
C74   C     C_3   0.203743 0.001126 0.900538 -0.767059
H48   H     H_    0.208184 0.888815 0.863049 0.254142
H49   H     H_    0.246667 0.008203 0.938646 0.228550
H50   H     H_    0.165062 0.967093 0.928032 0.228716
H51   H     H_    0.191932 0.294705 0.904312 0.195379
H52   H     H_    0.146193 0.185022 0.830080 0.238834
H53   H     H_    0.243790 0.112987 0.785727 0.226298
H54   H     H_    0.286282 0.239689 0.856353 0.195989
I3    I     I_    0.873682 0.412490 0.271393 -0.500202
I4    I     I_    0.113419 0.901169 0.710051 -0.504964
C75   C     C_3   0.704021 0.984259 0.934689 -0.363597
C76   C     C_3   0.683456 0.169697 0.963432 -0.318495
C77   C     C_3   0.665241 0.140751 0.034280 -0.744494
H55   H     H_    0.628649 0.033214 0.031952 0.238805
H56   H     H_    0.705683 0.095005 0.071872 0.231924
H57   H     H_    0.647902 0.275369 0.052240 0.228652
H58   H     H_    0.721678 0.272150 0.967924 0.201181
H59   H     H_    0.643879 0.230870 0.928034 0.201549
H60   H     H_    0.666219 0.880325 0.926926 0.169059
H61   H     H_    0.740011 0.918970 0.973682 0.173947
C78   C     C_3   0.303547 0.613516 0.065081 -0.356974
C79   C     C_3   0.262856 0.592202 0.995312 -0.343127
C80   C     C_3   0.301807 0.609977 0.938238 -0.735918
H62   H     H_    0.328163 0.743358 0.943073 0.233380
H63   H     H_    0.334158 0.489248 0.940305 0.233998
H64   H     H_    0.271970 0.612327 0.887730 0.228212
H65   H     H_    0.240850 0.452091 0.993062 0.194483
H66   H     H_    0.226945 0.702942 0.988160 0.199166
H67   H     H_    0.326704 0.752433 0.065591 0.178879
H68   H     H_    0.338736 0.499802 0.068757 0.181441

loop_
_geom_bond_atom_site_label_1
_geom_bond_atom_site_label_2
_ccdc_geom_bond_type
C66   H40   S    
O15   C55   A    
O11   V4    S    
O14   V4    S    
C67   C68   S    
C26   C42   A    
C2    C27   S    
C58   H17   S    
C13   C15   A    
C62   H21   S    
C80   H62   S    
C60   C61   S    
C57   C58   S    
O1    C3    A    
C6    C72   S    
C7    C17   S    
C2    O7    A    
C59   H13   S    
O17   V3    S    
C69   C70   S    
C29   C31   A    
C10   I4    S    
C13   C19   S    
O5    C3    A    
C71   H42   S    
C75   C76   S    
C64   H31   S    
C60   H25   S    
C3    C22   S    
C74   H49   S    
C12   H2    S    
C28   C48   A    
C65   H28   S    
C8    C18   S    
C39   C41   A    
C61   C62   S    
C40   C42   A    
C63   C64   S    
C5    C15   A    
C64   C65   S    
C42   C44   A    
C43   C45   A    
C29   C51   A    
C70   H45   S    
C5    C7    A    
C28   C50   A    
O12   C56   A    
C40   C48   A    
C48   H8    S    
C74   H48   S    
C34   C36   A    
C31   C33   A    
C37   C45   A    
C5    C69   S    
C32   C34   A    
C62   H20   S    
C38   C46   A    
C6    C16   A    
C18   C24   T    
O19   V3    S    
C44   C46   A    
C53   O18   A    
C76   H59   S    
C72   H53   S    
C69   H46   S    
C44   C78   S    
O2    C4    A    
O6    V2    S    
C58   H16   S    
H4    C50   S    
C80   H63   S    
C25   C49   A    
C52   C55   S    
C59   H14   S    
C57   H18   S    
C72   C73   S    
C61   H23   S    
C35   C37   A    
C46   H12   S    
C79   H65   S    
C71   H43   S    
C36   C38   A    
C41   C43   A    
C63   H32   S    
C64   H30   S    
C73   C74   S    
C30   H10   S    
C60   H26   S    
C74   H50   S    
C29   H9    S    
O4    C2    A    
C65   H29   S    
C75   H60   S    
C78   C79   S    
O13   C53   A    
C35   C39   A    
C61   H24   S    
O5    V1    S    
C47   H7    S    
C17   C23   T    
O19   V4    S    
O16   C56   A    
O4    V2    S    
C79   H66   S    
C68   H35   S    
C27   C49   A    
C70   H44   S    
C43   C75   S    
O20   V4    S    
C77   H55   S    
C67   H38   S    
O6    C4    A    
C25   C41   A    
C58   C59   S    
C77   H56   S    
C9    I3    S    
C77   H57   S    
O1    V2    S    
C4    C21   S    
O2    V1    S    
C37   C51   A    
C51   C56   S    
C76   H58   S    
C73   H52   S    
C72   H54   S    
O14   C54   A    
C79   C80   S    
C31   C63   S    
C8    C10   A    
C34   C60   S    
C11   C13   A    
C9    C11   A    
C24   C53   S    
C27   C47   A    
C76   C77   S    
C62   H22   S    
C10   C12   A    
C23   C54   S    
C68   H34   S    
C59   H15   S    
O3    V1    S    
C57   H19   S    
C78   H67   S    
C32   C66   S    
C36   C40   A    
C66   H39   S    
C69   H47   S    
C63   H33   S    
C7    C9    A    
O13   V3    S    
C12   C14   A    
C30   C52   A    
C70   C71   S    
O3    C1    A    
C75   H61   S    
C25   H5    S    
O12   V3    S    
C54   O17   A    
O15   V3    S    
C71   H41   S    
C38   C52   A    
C14   C16   A    
O7    V1    S    
C68   H36   S    
C1    O8    A    
C16   I2    S    
O8    V2    S    
C65   H27   S    
C15   I1    S    
O20   V3    S    
C66   C67   S    
C45   H11   S    
C67   H37   S    
C39   C47   A    
C30   C32   A    
C19   C21   T    
C20   C22   T    
C6    C8    A    
C11   H1    S    
H3    C49   S    
C14   C20   S    
C73   H51   S    
C26   H6    S    
O11   C55   A    
C26   C50   A    
O9    V2    S    
O10   V1    S    
O18   V4    S    
C80   H64   S    
O16   V4    S    
C33   C35   A    
C33   C57   S    
C78   H68   S    
C1    C28   S    
