data_mof_unit_26176.cif
_audit_creation_date              2012-12-10T17:48:23-0500
_audit_creation_method            fapswitch 2.2
_symmetry_space_group_name_H-M    P1
_symmetry_Int_Tables_number       1
_space_group_crystal_system       triclinic
_cell_length_a                    13.874512
_cell_length_b                    14.686083
_cell_length_c                    14.68517
_cell_angle_alpha                 115.062825
_cell_angle_beta                  105.868332
_cell_angle_gamma                 72.348142
_cell_volume                      2546.22994337

loop_
_atom_site_label
_atom_site_type_symbol
_atom_type_description
_atom_site_fract_x
_atom_site_fract_y
_atom_site_fract_z
_atom_type_partial_charge
C1    C     C_R   0.514611 0.118716 0.688201 0.811585
C2    C     C_R   0.430311 0.509846 0.873190 -0.243848
C3    C     C_R   0.529441 0.386169 0.106494 0.119186
C4    C     C_R   0.419751 0.614556 0.893485 0.116676
C5    C     C_R   0.319964 0.302939 0.336754 0.060746
C6    C     C_R   0.653130 0.722450 0.692622 0.060717
C7    C     C_R   0.353285 0.215657 0.362951 0.073915
C8    C     C_R   0.631831 0.797766 0.650728 0.071676
C9    C     C_R   0.487677 0.284900 0.488441 0.013590
C10   C     C_R   0.518217 0.710581 0.510026 0.024837
C11   C     C_R   0.454390 0.380354 0.474563 -0.040429
C12   C     C_R   0.482576 0.881373 0.311711 0.810348
C13   C     C_R   0.528845 0.635031 0.550464 -0.029858
C14   C     C_R   0.368594 0.387750 0.396439 0.039370
C15   C     C_R   0.601953 0.638978 0.640061 0.040024
C16   C     C_R   0.687010 0.986905 0.503984 0.822645
C17   C     C_R   0.312991 0.013042 0.495951 0.818663
C18   C     C_R   0.502936 0.467451 0.533553 -0.009911
C19   C     C_R   0.470700 0.555467 0.504044 -0.020661
C20   C     C_R   0.378019 0.563923 0.433578 0.228462
C21   C     C_R   0.577256 0.474512 0.624490 0.250959
C22   C     C_R   0.330070 0.480821 0.381213 -0.240885
C23   C     C_R   0.493838 0.359304 0.925062 0.036589
C24   C     C_R   0.621641 0.560332 0.676578 -0.258102
C25   C     C_1   0.207629 0.020470 0.493591 -0.175610
C26   C     C_1   0.792383 0.979241 0.506089 -0.179515
C27   C     C_2   0.013130 0.034118 0.489725 -0.162774
C28   C     C_2   0.986907 0.965126 0.509521 -0.161673
C29   C     C_1   0.881228 0.972366 0.507831 0.001104
C30   C     C_1   0.118801 0.027082 0.491627 0.003066
C31   C     C_R   0.514755 0.185568 0.796145 -0.102757
C32   C     C_R   0.470885 0.814387 0.203299 -0.099669
C33   C     C_R   0.518057 0.210809 0.971634 0.247990
C34   C     C_R   0.466383 0.642086 0.075281 0.038292
C35   C     C_R   0.451805 0.785775 0.024303 0.246320
C36   C     C_R   0.517949 0.146518 0.868679 -0.225570
C37   C     C_R   0.466066 0.849912 0.127701 -0.228111
C38   C     C_R   0.503243 0.290708 0.824753 -0.251167
C39   C     C_R   0.468481 0.712331 0.176479 -0.249188
C40   C     C_3   0.233817 0.306850 0.246763 -0.425725
C41   C     C_3   0.200014 0.205535 0.178019 -0.869662
C42   C     C_3   0.727086 0.731164 0.793120 -0.424493
C43   C     C_3   0.774209 0.826400 0.845041 -0.874111
C44   C     C_3   0.288418 0.665095 0.326665 -0.729794
C45   C     C_R   0.512624 0.318525 0.002488 0.035412
C46   C     C_3   0.701958 0.344630 0.680701 -0.732066
C47   C     C_3   0.567207 0.345550 0.193447 -0.344567
C48   C     C_3   0.609007 0.418842 0.297958 -0.884964
C49   C     C_3   0.374867 0.655392 0.807002 -0.347695
C50   C     C_3   0.317152 0.586864 0.709368 -0.879757
C51   C     C_3   0.588710 0.078972 0.046542 -0.746719
C52   C     C_3   0.381743 0.916444 0.948550 -0.739681
C53   C     C_R   0.446697 0.681036 0.996190 0.038197
C54   C     C_R   0.470168 0.467384 0.949377 0.036394
C55   C     C_R   0.482954 0.534369 0.051789 0.036820
C56   C     C_R   0.517677 0.491517 0.127997 -0.227028
Cu1   Cu    Cu3+1 0.526370 0.916390 0.524860 0.935046
Cu2   Cu    Cu3+1 0.473630 0.083610 0.475140 0.932517
H1    H     H_    0.044523 0.903025 0.527056 0.154218
H2    H     H_    0.673253 0.563658 0.747371 0.146718
H3    H     H_    0.473529 0.706619 0.436632 0.176117
H4    H     H_    0.556875 0.266120 0.536756 0.197004
H5    H     H_    0.666310 0.863965 0.688482 0.153386
H6    H     H_    0.315980 0.151343 0.324202 0.148798
H7    H     H_    0.266658 0.144034 0.149022 0.247682
H8    H     H_    0.162538 0.181882 0.219850 0.249762
H9    H     H_    0.143225 0.216275 0.111538 0.250154
H10   H     H_    0.165557 0.365219 0.276057 0.208780
H11   H     H_    0.260083 0.331364 0.197271 0.210174
H12   H     H_    0.955510 0.096219 0.472203 0.154402
H13   H     H_    0.821077 0.827735 0.795398 0.252356
H14   H     H_    0.713301 0.897743 0.863989 0.246692
H15   H     H_    0.825270 0.824041 0.917260 0.251217
H16   H     H_    0.685491 0.731735 0.848263 0.202533
H17   H     H_    0.791286 0.662339 0.779214 0.212548
H18   H     H_    0.268835 0.699494 0.474813 0.258261
H19   H     H_    0.274247 0.745932 0.332906 0.239323
H20   H     H_    0.215653 0.637809 0.290943 0.224155
H21   H     H_    0.347634 0.617515 0.277378 0.231582
H22   H     H_    0.574543 0.439651 0.744826 0.260420
H23   H     H_    0.466033 0.689841 0.236531 0.148135
H24   H     H_    0.706411 0.283734 0.708538 0.234698
H25   H     H_    0.756118 0.393891 0.734551 0.227091
H26   H     H_    0.725344 0.306918 0.604252 0.236213
H27   H     H_    0.674082 0.444636 0.292780 0.256257
H28   H     H_    0.547673 0.486187 0.328417 0.253739
H29   H     H_    0.637066 0.378376 0.352330 0.252737
H30   H     H_    0.503209 0.321896 0.203596 0.229311
H31   H     H_    0.631449 0.277809 0.172381 0.234140
H32   H     H_    0.370148 0.515877 0.669137 0.259116
H33   H     H_    0.255353 0.566700 0.727193 0.258267
H34   H     H_    0.504590 0.317724 0.767462 0.167590
H35   H     H_    0.281537 0.629001 0.656787 0.247575
H36   H     H_    0.317699 0.728117 0.834843 0.233539
H37   H     H_    0.437446 0.671061 0.785789 0.230395
H38   H     H_    0.437612 0.161963 0.034988 0.253270
H39   H     H_    0.586866 0.066666 0.115550 0.237367
H40   H     H_    0.666250 0.090112 0.052497 0.240428
H41   H     H_    0.573796 0.009272 0.978879 0.229546
H42   H     H_    0.529544 0.825943 0.950918 0.250910
H43   H     H_    0.381451 0.928298 0.878655 0.238037
H44   H     H_    0.401785 0.984465 0.015735 0.227141
H45   H     H_    0.474067 0.927805 0.149239 0.161039
H46   H     H_    0.303518 0.910011 0.947040 0.238061
H47   H     H_    0.518960 0.065712 0.844870 0.163545
H48   H     H_    0.539102 0.539702 0.205376 0.161362
H49   H     H_    0.405011 0.460951 0.796842 0.168443
H50   H     H_    0.258901 0.491717 0.330100 0.151658
N1    N     N_R   0.433980 0.209250 0.437830 -0.214924
N2    N     N_R   0.566020 0.790750 0.562170 -0.211821
N3    N     N_2   0.323172 0.661061 0.427638 -0.444896
N4    N     N_2   0.597696 0.404805 0.674668 -0.466189
N5    N     N_2   0.510951 0.168874 0.040441 -0.460621
N6    N     N_2   0.456102 0.823385 0.950960 -0.459831
O1    O     O_R   0.534760 0.019630 0.662610 -0.598242
O2    O     O_R   0.465240 0.980370 0.337390 -0.590726
O3    O     O_R   0.490220 0.160840 0.620610 -0.577073
O4    O     O_R   0.509780 0.839160 0.379390 -0.587134
O5    O     O_R   0.663260 0.919400 0.523940 -0.575016
O6    O     O_R   0.336740 0.080600 0.476060 -0.578839
O7    O     O_R   0.618720 0.060610 0.481950 -0.580884
O8    O     O_R   0.381280 0.939390 0.518050 -0.564855

loop_
_geom_bond_atom_site_label_1
_geom_bond_atom_site_label_2
_ccdc_geom_bond_type
C43   H15   S    
C55   C56   A    
C11   C18   A    
C51   H39   S    
C43   H14   S    
C23   C45   A    
C46   N4    S    
C4    C53   A    
C35   C53   A    
C18   C21   A    
C33   C45   A    
C19   C20   A    
Cu1   O1    S    
C52   H44   S    
C42   H17   S    
C51   N5    S    
C16   C26   S    
C44   H19   S    
C35   C37   A    
C11   C14   A    
Cu2   N1    S    
C38   H34   S    
C2    H49   S    
C1    C31   S    
C33   C36   A    
C35   N6    S    
C18   C19   A    
C32   C39   A    
C17   O6    A    
Cu1   O8    S    
C46   H24   S    
C50   H32   S    
C52   H46   S    
Cu1   N2    S    
C49   H36   S    
Cu1   O5    S    
C51   H40   S    
C6    C15   A    
C34   C55   A    
C12   C32   S    
C27   C30   S    
Cu2   O2    S    
C47   H31   S    
C51   H41   S    
C52   H43   S    
C42   H16   S    
C40   H11   S    
C13   C19   A    
C34   C39   A    
H42   N6    S    
C39   H23   S    
C41   H9    S    
C2    C54   A    
C16   O5    A    
C5    C7    A    
C6    C8    A    
C3    C45   A    
Cu2   O3    S    
C7    N1    A    
C9    N1    A    
C2    C4    A    
C16   O7    A    
C8    N2    A    
C20   N3    S    
C3    C56   A    
C17   O8    A    
C47   C48   S    
C24   H2    S    
H22   N4    S    
Cu2   O6    S    
C48   H29   S    
C1    O3    A    
C32   C37   A    
C49   H37   S    
C9    C11   A    
C56   H48   S    
C5    C14   A    
C27   H12   S    
C26   C29   T    
C12   O4    A    
C15   C24   A    
C20   C22   A    
C13   C15   A    
C6    C42   S    
C48   H28   S    
H38   N5    S    
C21   C24   A    
C10   H3    S    
C42   C43   S    
C28   C29   S    
C21   N4    S    
C23   C54   A    
C37   H45   S    
C28   H1    S    
C25   C30   T    
C54   C55   A    
C40   C41   S    
Cu2   O7    S    
C43   H13   S    
C36   H47   S    
C31   C36   A    
C44   H21   S    
C10   C13   A    
C41   H7    S    
C50   H35   S    
C41   H8    S    
C52   N6    S    
C23   C38   A    
C33   N5    S    
C9    H4    S    
C31   C38   A    
C4    C49   S    
C17   C25   S    
C47   H30   S    
C14   C22   A    
C44   H20   S    
Cu1   Cu2   S    
H18   N3    S    
C22   H50   S    
C3    C47   S    
C10   N2    A    
C7    H6    S    
C46   H26   S    
C8    H5    S    
C46   H25   S    
C44   N3    S    
C50   H33   S    
C34   C53   A    
C49   C50   S    
C40   H10   S    
C5    C40   S    
C27   C28   D    
C48   H27   S    
C1    O1    A    
Cu1   O4    S    
C12   O2    A    
