data_mof_unit_55934.cif
_audit_creation_date              2012-12-10T20:31:08-0500
_audit_creation_method            fapswitch 2.2
_symmetry_space_group_name_H-M    P1
_symmetry_Int_Tables_number       1
_space_group_crystal_system       triclinic
_cell_length_a                    14.945739
_cell_length_b                    10.684166
_cell_length_c                    9.863065
_cell_angle_alpha                 90.087869
_cell_angle_beta                  89.841926
_cell_angle_gamma                 89.807387
_cell_volume                      1574.94463839

loop_
_atom_site_label
_atom_site_type_symbol
_atom_type_description
_atom_site_fract_x
_atom_site_fract_y
_atom_site_fract_z
_atom_type_partial_charge
Br1   Br    Br    0.747986 0.717040 0.308988 -0.572621
C1    C     C_R   0.497859 0.260005 0.500028 0.874108
C2    C     C_R   0.185182 0.428226 0.593024 -0.263746
C3    C     C_R   0.231524 0.501811 0.500099 -0.056450
C4    C     C_R   0.326919 0.499797 0.500116 0.877570
C5    C     C_R   0.187184 0.578027 0.407300 -0.265071
C6    C     C_R   0.486971 0.063693 0.623283 0.024792
C7    C     C_R   0.485278 0.128567 0.500799 -0.113787
C8    C     C_R   0.466927 0.064679 0.379731 -0.200429
C9    C     C_R   0.466421 0.935272 0.379732 -0.201836
C10   C     C_R   0.483948 0.871350 0.500940 -0.079872
C11   C     C_R   0.485350 0.936160 0.623343 0.103024
C12   C     C_R   0.907587 0.591227 0.410434 0.064978
C13   C     C_3   0.547533 0.926268 0.741510 -0.531333
C14   C     C_3   0.549327 0.068691 0.742352 -0.183682
C15   C     C_R   0.423000 0.477319 0.071558 0.209659
C16   C     C_R   0.497414 0.739974 0.500092 0.903482
C17   C     C_R   0.574207 0.532742 0.071559 -0.099848
C18   C     C_R   0.574189 0.532970 0.927737 -0.095040
C19   C     C_R   0.422951 0.477490 0.929021 0.220719
C20   C     C_3   0.367797 0.361642 0.923328 -0.507559
C21   C     C_3   0.368157 0.361220 0.077314 -0.499035
C22   C     C_R   0.673073 0.504252 0.499818 0.953954
C23   C     C_R   0.952215 0.355359 0.682574 -0.181874
C24   C     C_R   0.813972 0.593913 0.413108 0.188163
C25   C     C_R   0.768693 0.511011 0.499876 -0.134001
C26   C     C_R   0.814260 0.433185 0.589495 -0.298692
C27   C     C_R   0.906507 0.433019 0.591691 0.117552
C28   C     C_R   0.953571 0.510619 0.500725 0.014966
C29   C     C_2   0.640044 0.121583 0.709784 0.468936
C30   C     C_R   0.045093 0.354148 0.683819 -0.220718
C31   C     C_R   0.092554 0.429606 0.593198 0.123057
C32   C     C_R   0.046858 0.507750 0.500698 0.077691
C33   C     C_R   0.094633 0.582786 0.408121 0.123904
C34   C     C_R   0.049390 0.661439 0.318400 -0.235053
C35   C     C_R   0.956570 0.666393 0.320016 -0.158064
H1    H     H_    0.458246 0.886307 0.284317 0.172499
H2    H     H_    0.777481 0.371591 0.656725 0.206222
H3    H     H_    0.405317 0.280707 0.121232 0.209704
H4    H     H_    0.916105 0.295789 0.752602 0.167780
H5    H     H_    0.079763 0.293928 0.754876 0.149943
H6    H     H_    0.221328 0.368439 0.662908 0.141818
H7    H     H_    0.224924 0.635170 0.336624 0.149569
H8    H     H_    0.085824 0.719412 0.247182 0.152188
H9    H     H_    0.924196 0.728206 0.248590 0.199418
H10   H     H_    0.458846 0.113476 0.284382 0.165048
H11   H     H_    0.676348 0.090563 0.620251 0.065052
H12   H     H_    0.513776 0.886286 0.832134 0.207655
H13   H     H_    0.612142 0.880361 0.714333 0.205434
H14   H     H_    0.517231 0.110137 0.833971 0.176378
H15   H     H_    0.634654 0.556896 0.125071 0.198465
H16   H     H_    0.634552 0.557802 0.873618 0.166580
H17   H     H_    0.300415 0.379704 0.880225 0.197898
H18   H     H_    0.404332 0.281186 0.877550 0.212717
H19   H     H_    0.301017 0.378609 0.122466 0.207852
N1    N     N_R   0.499390 0.499140 0.142800 -0.116421
N2    N     N_R   0.499390 0.499180 0.857150 -0.110931
O1    O     O_R   0.500010 0.316790 0.614690 -0.607919
O2    O     O_R   0.500000 0.316760 0.385350 -0.622354
O3    O     O_R   0.367850 0.499990 0.614680 -0.624610
O4    O     O_R   0.367840 0.499950 0.385340 -0.629294
O5    O     O_R   0.500000 0.683240 0.614650 -0.623270
O6    O     O_R   0.499990 0.683210 0.385310 -0.609410
O7    O     O_R   0.632160 0.500050 0.614660 -0.619577
O8    O     O_R   0.632150 0.500010 0.385320 -0.591803
O9    O     O_2   0.673288 0.199992 0.784082 -0.583655
Zn1   Zn    Zn3+2 0.500010 0.500020 0.653130 0.969048
Zn2   Zn    Zn3+2 0.499990 0.499980 0.346870 0.970132

loop_
_geom_bond_atom_site_label_1
_geom_bond_atom_site_label_2
_ccdc_geom_bond_type
Br1   C24   S    
C10   C11   A    
C15   N1    A    
C2    H6    S    
C21   H19   S    
C1    O1    A    
O2    Zn2   S    
C8    C9    A    
O1    Zn1   S    
C30   C31   A    
C13   C14   S    
C17   N1    A    
C15   C19   A    
O8    Zn2   S    
C5    C33   A    
C31   C32   A    
C22   O8    A    
C6    C14   S    
C32   C33   A    
C24   C25   A    
C23   C30   A    
C4    O4    A    
C8    H10   S    
C29   O9    D    
C20   C21   S    
C16   O6    A    
C20   H17   S    
C34   H8    S    
O4    Zn2   S    
C12   C24   A    
C25   C26   A    
C20   H18   S    
C1    O2    A    
O5    Zn1   S    
N2    Zn1   S    
C9    H1    S    
C21   H3    S    
C12   C28   A    
C27   C28   A    
C23   H4    S    
C11   C13   S    
C17   H15   S    
C17   C18   A    
C5    H7    S    
C2    C31   A    
C16   O5    A    
C1    C7    S    
C6    C11   A    
C22   C25   S    
C13   H13   S    
C6    C7    A    
C9    C10   A    
C26   H2    S    
C2    C3    A    
O7    Zn1   S    
C28   C32   A    
C29   H11   S    
C35   H9    S    
C19   C20   S    
C12   C35   A    
C3    C5    A    
C33   C34   A    
C14   C29   S    
C14   H14   S    
C26   C27   A    
O6    Zn2   S    
C22   O7    A    
C13   H12   S    
C30   H5    S    
C4    O3    A    
C19   N2    A    
N1    Zn2   S    
C3    C4    S    
C18   H16   S    
C18   N2    A    
C10   C16   S    
C23   C27   A    
O3    Zn1   S    
C15   C21   S    
C7    C8    A    
C34   C35   A    
