data_mof_unit_40816.cif
_audit_creation_date              2012-12-10T19:33:09-0500
_audit_creation_method            fapswitch 2.2
_symmetry_space_group_name_H-M    P1
_symmetry_Int_Tables_number       1
_space_group_crystal_system       triclinic
_cell_length_a                    8.701558
_cell_length_b                    15.905597
_cell_length_c                    17.01765
_cell_angle_alpha                 95.183939
_cell_angle_beta                  93.567706
_cell_angle_gamma                 83.12006
_cell_volume                      2325.62836447

loop_
_atom_site_label
_atom_site_type_symbol
_atom_type_description
_atom_site_fract_x
_atom_site_fract_y
_atom_site_fract_z
_atom_type_partial_charge
C1    C     C_R   0.503617 0.489644 0.349098 0.802249
C2    C     C_R   0.509288 0.509171 0.651821 0.817541
C3    C     C_R   0.392748 0.770000 0.489909 0.195785
C4    C     C_R   0.567205 0.240215 0.544999 0.235640
C5    C     C_R   0.403658 0.858481 0.504584 0.030565
C6    C     C_R   0.543451 0.154261 0.548652 0.060868
C7    C     C_R   0.549603 0.887956 0.516446 0.318085
C8    C     C_R   0.472864 0.110769 0.482707 0.280693
C9    C     C_R   0.675698 0.828043 0.537451 -0.068865
C10   C     C_R   0.393137 0.160907 0.424538 -0.061649
C11   C     C_R   0.655502 0.740698 0.535417 -0.039878
C12   C     C_R   0.394104 0.250365 0.432074 -0.031542
C13   C     C_R   0.205324 0.522259 0.500969 0.875551
C14   C     C_R   0.794739 0.477787 0.499743 0.862168
C15   C     C_2   0.039322 0.534094 0.501301 -0.365445
C16   C     C_2   0.960818 0.466148 0.500595 -0.359803
C17   C     C_R   0.504930 0.483103 0.263131 -0.092530
C18   C     C_R   0.527675 0.510221 0.739085 -0.139711
C19   C     C_R   0.372409 0.518094 0.222086 -0.318523
C20   C     C_R   0.478701 0.440999 0.772379 -0.302936
C21   C     C_R   0.360529 0.509888 0.140392 0.161551
C22   C     C_R   0.498349 0.431581 0.852583 0.172665
C23   C     C_R   0.483356 0.467873 0.097864 0.277977
C24   C     C_R   0.565254 0.494125 0.903008 0.280982
C25   C     C_R   0.616824 0.428450 0.138060 0.134615
C26   C     C_R   0.620333 0.562567 0.871259 0.094806
C27   C     C_R   0.628290 0.436043 0.221790 0.003243
C28   C     C_R   0.600741 0.572715 0.789151 0.063490
Cu1   Cu    Cu3+1 0.492520 0.415770 0.496210 0.917533
Cu2   Cu    Cu3+1 0.507480 0.584230 0.503790 0.915402
H1    H     H_    0.981777 0.598621 0.501578 0.157317
H2    H     H_    0.018548 0.401660 0.500392 0.162816
H3    H     H_    0.426065 0.392040 0.735368 0.204013
H4    H     H_    0.275235 0.549970 0.253624 0.158379
H5    H     H_    0.751812 0.696967 0.554899 0.148188
H6    H     H_    0.329510 0.288569 0.388944 0.155396
N1    N     N_2   0.468103 0.466556 0.014704 -0.166618
N2    N     N_2   0.581744 0.490479 0.985940 -0.160219
N3    N     N_R   0.518730 0.710760 0.509500 -0.193310
N4    N     N_R   0.481270 0.289240 0.490500 -0.204079
N5    N     N_2   0.568357 0.977030 0.517043 -0.190207
N6    N     N_2   0.468463 0.019917 0.475909 -0.187279
O1    O     O_R   0.493000 0.421040 0.382520 -0.587713
O2    O     O_R   0.507000 0.578960 0.617480 -0.576516
O3    O     O_R   0.505640 0.563310 0.388930 -0.584151
O4    O     O_R   0.494360 0.436690 0.611070 -0.600449
O5    O     O_R   0.269980 0.445280 0.497530 -0.566544
O6    O     O_R   0.730020 0.554720 0.502470 -0.586162
O7    O     O_R   0.282610 0.587550 0.503940 -0.598201
O8    O     O_R   0.717390 0.412450 0.496060 -0.608485
I1    I     I_    0.437060 0.315930 0.889242 -0.221605
I2    I     I_    0.153677 0.563429 0.082739 -0.276201
I3    I     I_    0.793523 0.351919 0.072205 -0.272010
I4    I     I_    0.737895 0.648234 0.952197 -0.300347
C29   C     C_3   0.771026 0.394425 0.265866 -0.389079
C30   C     C_3   0.903833 0.450423 0.272282 -0.321516
C31   C     C_3   0.055416 0.401507 0.301397 -0.816460
H7    H     H_    0.038869 0.371082 0.355917 0.239457
H8    H     H_    0.097223 0.351460 0.255332 0.266741
H9    H     H_    0.144902 0.445613 0.314710 0.238169
H10   H     H_    0.921046 0.473204 0.213966 0.262727
H11   H     H_    0.874194 0.506866 0.314362 0.216281
H12   H     H_    0.746088 0.381216 0.326260 0.204152
H13   H     H_    0.808229 0.330776 0.236432 0.225991
C32   C     C_3   0.664553 0.647968 0.758178 -0.362231
C33   C     C_3   0.559648 0.732157 0.774694 -0.323629
C34   C     C_3   0.407703 0.737490 0.724706 -0.729319
H14   H     H_    0.430323 0.737445 0.661393 0.266486
H15   H     H_    0.341643 0.683877 0.733641 0.256491
H16   H     H_    0.336020 0.797865 0.742596 0.230728
H17   H     H_    0.531905 0.741602 0.837829 0.248895
H18   H     H_    0.623266 0.785651 0.762541 0.202809
H19   H     H_    0.780559 0.654725 0.787346 0.185174
H20   H     H_    0.692106 0.638260 0.695392 0.198861
C35   C     C_3   0.704086 0.271169 0.595170 -0.320616
C36   C     C_3   0.860242 0.241967 0.557485 -0.408631
C37   C     C_3   0.926423 0.151548 0.573672 -0.730180
H21   H     H_    0.928662 0.143007 0.637785 0.279996
H22   H     H_    0.857852 0.104523 0.539978 0.264510
H23   H     H_    0.047406 0.139576 0.554838 0.253277
H24   H     H_    0.848871 0.247362 0.492624 0.226598
H25   H     H_    0.945890 0.285041 0.582589 0.215114
H26   H     H_    0.696896 0.339745 0.604672 0.220886
H27   H     H_    0.707483 0.252482 0.656404 0.203755
C38   C     C_3   0.239528 0.747279 0.449121 -0.340604
C39   C     C_3   0.255818 0.699259 0.366772 -0.303493
C40   C     C_3   0.129412 0.731576 0.306509 -0.863723
H28   H     H_    0.012985 0.725072 0.327034 0.257537
H29   H     H_    0.137357 0.799301 0.297878 0.270166
H30   H     H_    0.144061 0.694006 0.248750 0.270586
H31   H     H_    0.370246 0.705420 0.343585 0.243067
H32   H     H_    0.243686 0.631544 0.370964 0.231422
H33   H     H_    0.168961 0.718292 0.488547 0.186456
H34   H     H_    0.162185 0.805629 0.438432 0.209259
I5    I     I_    0.583623 0.099757 0.660822 -0.342485
I6    I     I_    0.200077 0.945516 0.532498 -0.495016
C41   C     C_3   0.828930 0.855856 0.569610 -0.368738
C42   C     C_3   0.844618 0.851090 0.659504 -0.358046
C43   C     C_3   0.995021 0.881912 0.694962 -0.750121
H35   H     H_    0.095691 0.843050 0.667822 0.258680
H36   H     H_    0.997228 0.949845 0.685149 0.287258
H37   H     H_    0.003887 0.875440 0.759554 0.244283
H38   H     H_    0.745552 0.890997 0.687391 0.253563
H39   H     H_    0.842868 0.784372 0.673701 0.201960
H40   H     H_    0.924775 0.813870 0.541069 0.191258
H41   H     H_    0.839657 0.921768 0.555848 0.249277
C44   C     C_3   0.302203 0.121676 0.354955 -0.371448
C45   C     C_3   0.127515 0.138500 0.366782 -0.356096
C46   C     C_3   0.033829 0.104795 0.294502 -0.792485
H42   H     H_    0.056167 0.137204 0.241890 0.260651
H43   H     H_    0.064911 0.035184 0.282704 0.263475
H44   H     H_    0.908278 0.117258 0.305336 0.242502
H45   H     H_    0.100157 0.106566 0.418705 0.253317
H46   H     H_    0.091806 0.207829 0.377944 0.207012
H47   H     H_    0.329603 0.149234 0.300393 0.197986
H48   H     H_    0.336086 0.052045 0.345913 0.230558

loop_
_geom_bond_atom_site_label_1
_geom_bond_atom_site_label_2
_ccdc_geom_bond_type
C40   H28   S    
C3    C38   S    
N5    N6    D    
Cu2   O3    S    
C29   C30   S    
C1    O3    A    
C41   C42   S    
C38   C39   S    
C30   C31   S    
Cu1   Cu2   S    
Cu1   O5    S    
C22   C24   A    
Cu2   O6    S    
C19   C21   A    
C24   C26   A    
C39   H31   S    
C46   H43   S    
C27   C29   S    
C35   H27   S    
C31   H8    S    
C2    C18   S    
C15   C16   D    
C32   H19   S    
C45   C46   S    
C45   H46   S    
C4    C35   S    
C38   H33   S    
C1    O1    A    
C33   H18   S    
C43   H35   S    
C2    O2    A    
C29   H12   S    
C24   N2    S    
C44   C45   S    
C12   H6    S    
C18   C20   A    
C37   H21   S    
C41   H40   S    
C23   C25   A    
C33   C34   S    
C3    N3    A    
Cu1   O1    S    
Cu2   O2    S    
C10   C44   S    
C26   I4    S    
Cu1   O8    S    
C37   H22   S    
C34   H14   S    
C17   C27   A    
C4    N4    A    
C18   C28   A    
C36   C37   S    
C4    C6    A    
C46   H44   S    
C36   H25   S    
C5    C7    A    
C39   C40   S    
C31   H9    S    
C14   O6    A    
C23   N1    S    
C2    O4    A    
C32   H20   S    
C34   H15   S    
C45   H45   S    
C12   N4    A    
C35   C36   S    
N1    N2    D    
C38   H34   S    
C33   H17   S    
C29   H13   S    
C6    I5    S    
C11   N3    A    
C9    C11   A    
C44   H47   S    
C10   C12   A    
C13   O7    A    
C20   H3    S    
C43   H36   S    
Cu2   O7    S    
C20   C22   A    
C32   C33   S    
C13   C15   S    
C14   C16   S    
C16   H2    S    
C41   H41   S    
C5    I6    S    
C13   O5    A    
C37   H23   S    
C7    C9    A    
C9    C41   S    
C26   C28   A    
C8    N6    S    
C3    C5    A    
C19   H4    S    
C36   H24   S    
C6    C8    A    
C15   H1    S    
C25   C27   A    
C1    C17   S    
Cu1   O4    S    
C34   H16   S    
C21   C23   A    
C28   C32   S    
C39   H32   S    
C46   H42   S    
C35   H26   S    
C31   H7    S    
C14   O8    A    
C42   H39   S    
Cu1   N4    S    
C11   H5    S    
C17   C19   A    
Cu2   N3    S    
C30   H11   S    
C7    N5    S    
C44   H48   S    
C43   H37   S    
C8    C10   A    
C42   C43   S    
C40   H30   S    
C40   H29   S    
C30   H10   S    
C21   I2    S    
C25   I3    S    
C42   H38   S    
C22   I1    S    
