data_mof_unit_14486.cif
_audit_creation_date              2012-12-10T17:56:42-0500
_audit_creation_method            fapswitch 2.2
_symmetry_space_group_name_H-M    P1
_symmetry_Int_Tables_number       1
_space_group_crystal_system       triclinic
_cell_length_a                    10.846435
_cell_length_b                    9.612949
_cell_length_c                    10.893196
_cell_angle_alpha                 91.328678
_cell_angle_beta                  91.648219
_cell_angle_gamma                 90.584816
_cell_volume                      1134.95007099

loop_
_atom_site_label
_atom_site_type_symbol
_atom_type_description
_atom_site_fract_x
_atom_site_fract_y
_atom_site_fract_z
_atom_type_partial_charge
C1    C     C_R   0.262402 0.499379 0.499322 0.803879
C2    C     C_R   0.737736 0.500176 0.498702 0.789487
C3    C     C_R   0.937392 0.622024 0.474367 -0.139957
C4    C     C_R   0.064855 0.622174 0.476840 -0.117126
C5    C     C_R   0.417900 0.071583 0.426958 0.018865
C6    C     C_R   0.583168 0.077974 0.570895 0.023594
C7    C     C_R   0.416915 0.922907 0.428109 0.026217
C8    C     C_R   0.589090 0.930455 0.563395 0.062626
C9    C     C_R   0.505945 0.499165 0.263158 0.797214
C10   C     C_R   0.500710 0.501450 0.737727 0.797454
C11   C     C_R   0.720632 0.618605 0.129148 -0.119182
C12   C     C_R   0.691845 0.651304 0.882482 -0.081186
C13   C     C_R   0.827041 0.632842 0.059509 -0.066575
C14   C     C_R   0.812268 0.646896 0.931994 -0.074154
C15   C     C_R   0.604111 0.569029 0.939503 0.028922
C16   C     C_R   0.611280 0.563442 0.069196 0.031874
C17   C     C_R   0.512590 0.498825 0.130035 -0.073948
C18   C     C_R   0.505378 0.504170 0.872314 -0.070959
C19   C     C_R   0.416883 0.431928 0.061823 -0.157718
C20   C     C_R   0.414487 0.432427 0.934222 -0.173135
C21   C     C_R   0.063329 0.374505 0.515214 -0.163121
C22   C     C_R   0.935579 0.374988 0.514726 -0.152362
C23   C     C_R   0.871840 0.499363 0.495995 -0.032121
C24   C     C_R   0.128526 0.498524 0.497386 -0.023073
Cu1   Cu    Cu3+1 0.500000 0.640660 0.500000 0.993001
Cu2   Cu    Cu3+1 0.500000 0.359340 0.500000 0.979096
H1    H     H_    0.342533 0.380436 0.107774 0.172149
H2    H     H_    0.339543 0.379749 0.883576 0.152068
H3    H     H_    0.110764 0.277583 0.530725 0.159339
H4    H     H_    0.887185 0.278112 0.529584 0.164697
H5    H     H_    0.890996 0.718095 0.455172 0.179791
H6    H     H_    0.113117 0.719111 0.461910 0.164003
N1    N     N_R   0.500000 0.852070 0.500000 -0.200653
N2    N     N_R   0.500000 0.147940 0.500000 -0.212724
O1    O     O_R   0.319640 0.618740 0.499990 -0.586634
O2    O     O_R   0.680360 0.618740 0.500010 -0.575269
O3    O     O_R   0.319620 0.381170 0.499990 -0.588422
O4    O     O_R   0.680380 0.381170 0.500010 -0.592558
O5    O     O_R   0.500000 0.618810 0.319650 -0.570031
O6    O     O_R   0.500000 0.618810 0.680350 -0.578326
O7    O     O_R   0.499970 0.381240 0.319640 -0.575166
O8    O     O_R   0.500030 0.381240 0.680360 -0.573317
C25   C     C_1   0.714281 0.714332 0.232435 0.276186
N3    N     N_1   0.710349 0.796859 0.311128 -0.273655
C26   C     C_1   0.646554 0.790461 0.865392 0.305884
N4    N     N_1   0.608722 0.902052 0.856452 -0.288283
C27   C     C_1   0.947008 0.649395 0.119822 0.256882
N5    N     N_1   0.042995 0.661855 0.167942 -0.251561
C28   C     C_1   0.916281 0.677533 0.856806 0.303739
N6    N     N_1   0.000244 0.701364 0.797225 -0.257311
C29   C     C_1   0.332069 0.142321 0.346841 0.303348
N7    N     N_1   0.262613 0.197661 0.282315 -0.298877
C30   C     C_1   0.666357 0.154591 0.654371 0.327971
N8    N     N_1   0.732880 0.214573 0.722229 -0.285246
C31   C     C_1   0.335110 0.846684 0.343803 0.299136
N9    N     N_1   0.270068 0.786682 0.274749 -0.259267
C32   C     C_1   0.701223 0.869004 0.608171 0.300015
N10   N     N_1   0.793894 0.825250 0.644227 -0.305520

loop_
_geom_bond_atom_site_label_1
_geom_bond_atom_site_label_2
_ccdc_geom_bond_type
C15   C18   A    
C25   N3    T    
Cu2   O3    S    
C11   C25   S    
C7    C31   S    
C8    C32   S    
C10   O8    A    
C19   H1    S    
C11   C16   A    
C2    O4    A    
C9    O7    A    
C19   C20   A    
C12   C15   A    
C1    O3    A    
C31   N9    T    
C5    N2    A    
Cu1   Cu2   S    
Cu2   O7    S    
C21   C22   A    
Cu1   O5    S    
C3    H5    S    
C11   C13   A    
Cu2   O8    S    
C32   N10   T    
C4    H6    S    
C20   H2    S    
C21   H3    S    
Cu1   O1    S    
C9    C17   S    
C17   C19   A    
C10   C18   S    
C18   C20   A    
C8    N1    A    
Cu1   O6    S    
C4    C24   A    
C16   C17   A    
C6    C30   S    
C14   C28   S    
Cu1   N1    S    
C7    N1    A    
Cu1   O2    S    
C15   C16   A    
C27   N5    T    
C6    N2    A    
C9    O5    A    
C1    O1    A    
C1    C24   S    
C10   O6    A    
C28   N6    T    
C21   C24   A    
C2    O2    A    
C2    C23   S    
C5    C7    A    
C22   C23   A    
C5    C29   S    
C6    C8    A    
C22   H4    S    
C13   C14   A    
C3    C23   A    
C26   N4    T    
C13   C27   S    
Cu2   N2    S    
Cu2   O4    S    
C3    C4    A    
C29   N7    T    
C30   N8    T    
C12   C14   A    
C12   C26   S    
