data_mof_unit_23771.cif
_audit_creation_date              2012-12-10T17:23:45-0500
_audit_creation_method            fapswitch 2.2
_symmetry_space_group_name_H-M    P1
_symmetry_Int_Tables_number       1
_space_group_crystal_system       triclinic
_cell_length_a                    9.591463
_cell_length_b                    10.843039
_cell_length_c                    17.343255
_cell_angle_alpha                 94.154503
_cell_angle_beta                  85.840707
_cell_angle_gamma                 90.213989
_cell_volume                      1794.22936904

loop_
_atom_site_label
_atom_site_type_symbol
_atom_type_description
_atom_site_fract_x
_atom_site_fract_y
_atom_site_fract_z
_atom_type_partial_charge
C1    C     C_R   0.499241 0.738018 0.506720 0.883128
C2    C     C_R   0.343038 0.468448 0.774103 -0.159190
C3    C     C_R   0.413111 0.435554 0.146906 -0.147528
C4    C     C_R   0.406050 0.454084 0.226979 -0.210355
C5    C     C_R   0.656948 0.486115 0.222569 -0.200541
C6    C     C_R   0.663760 0.468620 0.142016 -0.168915
C7    C     C_R   0.541553 0.445914 0.103724 0.192759
C8    C     C_2   0.444769 0.473457 0.979000 -0.220217
C9    C     C_2   0.550363 0.436991 0.018720 -0.230036
C10   C     C_R   0.527521 0.480731 0.265434 -0.026553
C11   C     C_R   0.330210 0.897168 0.633900 0.336820
C12   C     C_R   0.481820 0.494056 0.649408 0.862107
C13   C     C_R   0.235291 0.971046 0.681298 -0.139667
C14   C     C_R   0.226770 0.096363 0.672732 -0.214085
C15   C     C_R   0.314737 0.149479 0.617566 -0.178861
C16   C     C_R   0.405493 0.076104 0.564774 0.062196
C17   C     C_R   0.410105 0.945955 0.570550 0.026189
C18   C     C_R   0.499686 0.873400 0.515242 -0.095173
C19   C     C_R   0.590931 0.931249 0.462642 -0.206288
C20   C     C_R   0.590928 0.058126 0.460288 -0.198056
C21   C     C_R   0.497006 0.130399 0.509069 -0.063022
C22   C     C_R   0.868630 0.334071 0.395559 -0.149447
C23   C     C_R   0.499347 0.262918 0.501828 0.746331
C24   C     C_R   0.947283 0.252500 0.344598 -0.214294
C25   C     C_R   0.091080 0.251956 0.344893 -0.209598
C26   C     C_R   0.157143 0.333073 0.396092 -0.149641
C27   C     C_R   0.081173 0.417981 0.448856 0.207559
C28   C     C_R   0.931546 0.418257 0.448727 0.213232
C29   C     C_R   0.919987 0.577892 0.548862 -0.068442
C30   C     C_R   0.067947 0.577912 0.548804 -0.059099
C31   C     C_R   0.518350 0.496092 0.350090 0.766717
C32   C     C_R   0.472270 0.487903 0.733552 0.004671
C33   C     C_R   0.593309 0.502269 0.774034 -0.181339
C34   C     C_R   0.585549 0.497252 0.853878 -0.142798
C35   C     C_R   0.456649 0.476193 0.894420 0.188903
C36   C     C_R   0.335350 0.463293 0.854246 -0.165020
Cu1   Cu    Cu3+1 0.359340 0.500010 0.500010 0.955844
Cu2   Cu    Cu3+1 0.640660 0.499990 0.499990 0.947845
H1    H     H_    0.694040 0.519055 0.744248 0.152504
H2    H     H_    0.763914 0.475523 0.109467 0.123351
H3    H     H_    0.660707 0.877286 0.421352 0.153783
H4    H     H_    0.174111 0.932642 0.728789 0.168914
H5    H     H_    0.157336 0.153904 0.712015 0.152597
H6    H     H_    0.311745 0.248879 0.619027 0.167352
H7    H     H_    0.661765 0.099971 0.418155 0.140888
H8    H     H_    0.859732 0.641723 0.588896 0.147564
H9    H     H_    0.759080 0.327175 0.390781 0.191972
H10   H     H_    0.895982 0.189183 0.304591 0.147808
H11   H     H_    0.305270 0.446272 0.258654 0.158563
H12   H     H_    0.152222 0.188279 0.305070 0.151431
H13   H     H_    0.267847 0.325505 0.391641 0.195555
H14   H     H_    0.118192 0.641812 0.588766 0.177509
H15   H     H_    0.752409 0.504595 0.251097 0.157232
H16   H     H_    0.648768 0.406385 0.988691 0.143567
H17   H     H_    0.234879 0.448497 0.884908 0.121054
H18   H     H_    0.317890 0.412585 0.119266 0.123666
H19   H     H_    0.248211 0.457173 0.744016 0.149727
H20   H     H_    0.346482 0.504479 0.008955 0.145733
H21   H     H_    0.680088 0.512877 0.883576 0.124116
N1    N     N_R   0.852190 0.498790 0.499250 -0.202565
N2    N     N_R   0.148060 0.498710 0.499220 -0.203907
O1    O     O_R   0.381190 0.680360 0.500010 -0.551210
O2    O     O_R   0.618760 0.680340 0.500000 -0.576342
O3    O     O_R   0.367440 0.500030 0.613600 -0.559710
O4    O     O_R   0.605010 0.500010 0.613590 -0.586678
O5    O     O_R   0.381240 0.319660 0.500000 -0.613950
O6    O     O_R   0.618810 0.319640 0.499990 -0.594470
O7    O     O_R   0.394990 0.499990 0.386410 -0.601645
O8    O     O_R   0.632560 0.499970 0.386400 -0.605278
Cl1   Cl    Cl    0.365442 0.756766 0.670820 -0.695267

loop_
_geom_bond_atom_site_label_1
_geom_bond_atom_site_label_2
_ccdc_geom_bond_type
Cu1   N2    S    
C24   C25   A    
C29   N1    A    
C16   C21   A    
C2    H19   S    
C12   O4    A    
C4    H11   S    
C31   O7    A    
C19   C20   A    
C14   C15   A    
Cu2   O4    S    
C29   H8    S    
Cu1   O5    S    
Cu1   O3    S    
C21   C23   S    
Cu1   O1    S    
C1    C18   S    
Cu2   O8    S    
C5    C10   A    
C36   H17   S    
C22   C28   A    
C13   C14   A    
Cu2   O6    S    
C2    C32   A    
C11   C13   A    
C26   C27   A    
C29   C30   A    
Cu2   N1    S    
C1    O2    A    
C23   O5    A    
C5    H15   S    
C13   H4    S    
Cu1   Cu2   S    
C15   H6    S    
C33   C34   A    
C6    C7    A    
C3    C7    A    
C2    C36   A    
C28   N1    A    
C5    C6    A    
C12   O3    A    
C16   C17   A    
C22   C24   A    
C8    C35   S    
C11   Cl1   S    
C12   C32   S    
C4    C10   A    
C15   C16   A    
C24   H10   S    
Cu1   O7    S    
C20   H7    S    
C31   O8    A    
C6    H2    S    
C18   C19   A    
C20   C21   A    
C1    O1    A    
C17   C18   A    
C34   C35   A    
C3    H18   S    
C30   N2    A    
C23   O6    A    
C27   C28   A    
C7    C9    S    
C30   H14   S    
C25   H12   S    
C14   H5    S    
C9    H16   S    
C27   N2    A    
C8    H20   S    
C25   C26   A    
C26   H13   S    
C34   H21   S    
C10   C31   S    
C33   H1    S    
C22   H9    S    
C11   C17   A    
C3    C4    A    
C19   H3    S    
C32   C33   A    
C8    C9    D    
Cu2   O2    S    
C35   C36   A    
