data_mof_unit_10280.cif
_audit_creation_date              2012-12-11T14:40:30-0500
_audit_creation_method            fapswitch 2.2
_symmetry_space_group_name_H-M    P1
_symmetry_Int_Tables_number       1
_space_group_crystal_system       triclinic
_cell_length_a                    19.56526
_cell_length_b                    11.190632
_cell_length_c                    19.209546
_cell_angle_alpha                 89.229378
_cell_angle_beta                  97.31276
_cell_angle_gamma                 89.697936
_cell_volume                      4171.19356427

loop_
_atom_site_label
_atom_site_type_symbol
_atom_type_description
_atom_site_fract_x
_atom_site_fract_y
_atom_site_fract_z
_atom_type_partial_charge
C1    C     C_R   0.729915 0.943295 0.355141 0.546189
C2    C     C_3   0.280542 0.320696 0.555294 -0.008685
C3    C     C_3   0.453526 0.579686 0.626119 -0.331905
C4    C     C_3   0.082879 0.008797 0.432684 0.025731
C5    C     C_3   0.042402 0.078259 0.372292 -0.333631
C6    C     C_3   0.914677 0.010619 0.564447 0.031075
C7    C     C_3   0.954571 0.078460 0.624422 -0.333132
C8    C     C_3   0.754599 0.158628 0.650304 0.040477
C9    C     C_3   0.791915 0.139898 0.724100 -0.320088
C10   C     C_3   0.256440 0.154090 0.353898 0.035290
C11   C     C_3   0.221440 0.140853 0.279022 -0.325573
C12   C     C_3   0.248490 0.656641 0.650642 0.035304
C13   C     C_3   0.220214 0.819061 0.445731 -0.009871
C14   C     C_3   0.283950 0.639099 0.725274 -0.321775
C15   C     C_3   0.756979 0.649245 0.354690 0.032946
C16   C     C_3   0.720919 0.640553 0.279923 -0.324567
C17   C     C_3   0.717345 0.188183 0.030735 0.007460
C18   C     C_3   0.786285 0.177254 0.001592 -0.344457
C19   C     C_3   0.390315 0.273676 0.051940 0.052715
C20   C     C_3   0.339204 0.198246 0.085987 -0.371584
C21   C     C_3   0.217336 0.688160 0.030725 0.007472
C22   C     C_3   0.286220 0.677331 0.001464 -0.344445
C23   C     C_3   0.890304 0.773670 0.051963 0.052600
C24   C     C_3   0.781163 0.820177 0.555143 -0.007722
C25   C     C_3   0.839192 0.698244 0.086012 -0.371497
C26   C     C_3   0.587204 0.407387 0.876119 -0.002445
C27   C     C_3   0.590133 0.383881 0.798508 -0.324296
C28   C     C_3   0.575504 0.470066 0.046578 0.028047
C29   C     C_3   0.565071 0.565827 0.099625 -0.354468
C30   C     C_3   0.087219 0.907381 0.876150 -0.002492
C31   C     C_3   0.090207 0.883824 0.798551 -0.324394
C32   C     C_3   0.075478 0.970042 0.046659 0.028977
C33   C     C_3   0.065060 0.065641 0.099817 -0.355251
C34   C     C_3   0.486733 0.904218 0.077189 0.026825
C35   C     C_3   0.691247 0.436848 0.472639 0.302961
C36   C     C_3   0.456146 0.850998 0.139663 -0.359891
C37   C     C_3   0.520474 0.888164 0.901266 0.006426
C38   C     C_3   0.534889 0.754297 0.902163 -0.395011
C39   C     C_3   0.986746 0.404214 0.077248 0.026856
C40   C     C_3   0.956216 0.351068 0.139780 -0.359821
C41   C     C_3   0.020300 0.388075 0.901371 0.006335
C42   C     C_3   0.034613 0.254164 0.902393 -0.395113
C43   C     C_3   0.304184 0.439639 0.526262 0.291897
C44   C     C_3   0.194011 0.937370 0.472214 0.297895
C45   C     C_3   0.804418 0.938895 0.525377 0.291784
C46   C     C_3   0.762973 0.461975 0.511930 -0.136073
C47   C     C_3   0.231838 0.456003 0.485546 -0.124836
C48   C     C_3   0.266138 0.957549 0.511997 -0.127188
C49   C     C_R   0.270874 0.946542 0.643070 0.558722
C50   C     C_3   0.732034 0.953752 0.484440 -0.121936
C51   C     C_3   0.791668 0.342232 0.489625 -0.125257
C52   C     C_3   0.209150 0.332661 0.509799 -0.119441
C53   C     C_3   0.291510 0.834936 0.490457 -0.121810
C54   C     C_3   0.709897 0.830521 0.509517 -0.128337
C55   C     C_3   0.765195 0.278703 0.552565 0.300302
C56   C     C_3   0.239800 0.273358 0.448755 0.290703
C57   C     C_3   0.262784 0.775693 0.553473 0.299558
C58   C     C_3   0.740781 0.770656 0.448867 0.277156
C59   C     C_3   0.741131 0.397343 0.575814 0.006601
C60   C     C_R   0.229532 0.444728 0.355938 0.551113
C61   C     C_3   0.258171 0.394948 0.423644 0.023541
C62   C     C_3   0.241836 0.897041 0.575836 0.017522
C63   C     C_3   0.758587 0.892074 0.422711 0.025631
C64   C     C_3   0.571082 0.247062 0.953817 0.196521
C65   C     C_3   0.531239 0.283435 0.014509 0.171657
C66   C     C_3   0.071066 0.747063 0.953839 0.196506
C67   C     C_3   0.031220 0.783421 0.014529 0.171733
C68   C     C_3   0.602600 0.141373 0.000854 0.236824
C69   C     C_3   0.472236 0.200682 0.985600 0.257024
C70   C     C_3   0.102578 0.641362 0.000865 0.236779
C71   C     C_R   0.770668 0.446383 0.643191 0.557434
C72   C     C_3   0.972215 0.700673 0.985613 0.257010
C73   C     C_3   0.561018 0.176962 0.061765 -0.111959
C74   C     C_3   0.512424 0.165156 0.923778 -0.049103
C75   C     C_3   0.060997 0.676940 0.061774 -0.111926
C76   C     C_3   0.012407 0.665164 0.923788 -0.049048
C77   C     C_R   0.535203 0.180043 0.337347 0.537476
C78   C     C_R   0.465210 0.180584 0.663027 0.517349
C79   C     C_R   0.035068 0.679990 0.337251 0.536841
C80   C     C_R   0.965171 0.680577 0.662985 0.517481
C81   C     C_3   0.503659 0.093388 0.028689 0.218887
C82   C     C_3   0.694643 0.253626 0.509619 -0.180922
C83   C     C_3   0.544063 0.058741 0.968754 0.219061
C84   C     C_3   0.003637 0.593369 0.028696 0.218661
C85   C     C_3   0.044039 0.558738 0.968757 0.219072
C86   C     C_1   0.786363 0.487095 0.917549 0.026828
C87   C     C_1   0.236805 0.418224 0.097777 0.001673
C88   C     C_1   0.286366 0.987110 0.917547 0.026656
C89   C     C_1   0.736802 0.918223 0.097775 0.001861
C90   C     C_1   0.765457 0.460251 0.048695 -0.089308
C91   C     C_1   0.248430 0.395157 0.965799 0.040492
C92   C     C_1   0.265451 0.960254 0.048691 -0.089355
C93   C     C_3   0.310996 0.257564 0.493258 -0.200824
C94   C     C_1   0.748429 0.895170 0.965795 0.040494
C95   C     C_1   0.777106 0.478326 0.978226 -0.015078
C96   C     C_1   0.242227 0.402245 0.037334 0.008365
C97   C     C_1   0.277104 0.978336 0.978223 -0.015003
C98   C     C_1   0.742223 0.902247 0.037331 0.008429
C99   C     C_1   0.754235 0.428958 0.106444 -0.079538
C100  C     C_1   0.255142 0.387258 0.905135 0.043492
C101  C     C_1   0.254231 0.928959 0.106442 -0.079718
C102  C     C_1   0.755139 0.887277 0.905129 0.043457
C103  C     C_R   0.722063 0.303801 0.367709 0.578584
C104  C     C_3   0.191787 0.755823 0.509943 -0.194314
C105  C     C_R   0.278393 0.304183 0.633098 0.578148
C106  C     C_R   0.221951 0.803389 0.367622 0.579440
C107  C     C_R   0.778474 0.804207 0.633065 0.577169
C108  C     C_R   0.722594 0.951137 0.165160 0.515405
C109  C     C_R   0.296656 0.999802 0.845232 0.580997
C110  C     C_R   0.222593 0.451142 0.165159 0.515535
C111  C     C_R   0.796651 0.499789 0.845234 0.581780
C112  C     C_R   0.568644 0.183660 0.139199 0.573942
C113  C     C_R   0.472042 0.177735 0.856417 0.561053
C114  C     C_R   0.068642 0.683657 0.139202 0.575730
C115  C     C_3   0.811997 0.756598 0.493522 -0.199381
C116  C     C_R   0.972037 0.677736 0.856421 0.561128
C117  C     C_R   0.738905 0.368855 0.168916 0.512464
C118  C     C_R   0.263525 0.358568 0.835336 0.546673
C119  C     C_R   0.238903 0.868852 0.168913 0.514053
C120  C     C_R   0.763518 0.858595 0.835326 0.547594
C121  C     C_1   0.488052 0.173630 0.596318 -0.027392
C122  C     C_1   0.514118 0.171853 0.404907 -0.017958
C123  C     C_1   0.987835 0.673552 0.596180 -0.026556
C124  C     C_1   0.013664 0.671549 0.404678 -0.029051
C125  C     C_1   0.505062 0.168991 0.465174 -0.073925
C126  C     C_3   0.720603 0.321015 0.445620 0.003429
C127  C     C_1   0.498119 0.169894 0.536411 -0.079519
C128  C     C_1   0.004518 0.668612 0.464928 -0.080564
C129  C     C_1   0.997722 0.669658 0.536213 -0.079358
C130  C     C_3   0.668778 0.373272 0.537171 -0.188109
C131  C     C_3   0.330842 0.380584 0.463470 -0.180069
C132  C     C_3   0.169252 0.878512 0.536867 -0.184031
C133  C     C_3   0.831284 0.879243 0.462837 -0.174971
C134  C     C_3   0.588992 0.549401 0.456309 0.023497
C135  C     C_3   0.547665 0.638617 0.407084 -0.343392
C136  C     C_3   0.414258 0.511419 0.565963 0.029419
Cr1   Cr    Cr6+3 0.765830 0.160660 0.268180 0.980692
Cr2   Cr    Cr6+3 0.384070 0.324050 0.751550 0.984441
Cr3   Cr    Cr6+3 0.115930 0.824050 0.248450 0.967437
Cr4   Cr    Cr6+3 0.884070 0.824050 0.751550 0.983312
Cr5   Cr    Cr6+3 0.234170 0.160660 0.731820 0.984638
Cr6   Cr    Cr6+3 0.265830 0.660660 0.268180 0.981838
Cr7   Cr    Cr6+3 0.734170 0.660660 0.731820 0.980649
Cr8   Cr    Cr6+3 0.612110 0.009150 0.248770 0.984148
Cr9   Cr    Cr6+3 0.387890 0.009150 0.751230 0.980799
Cr10  Cr    Cr6+3 0.112110 0.509150 0.248770 0.988240
Cr11  Cr    Cr6+3 0.887890 0.509150 0.751230 0.980400
Cr12  Cr    Cr6+3 0.615930 0.324050 0.248450 0.987699
H1    H     H_    0.657905 0.180011 0.512818 0.100417
H2    H     H_    0.697647 0.030389 0.473887 0.103165
H3    H     H_    0.479366 0.762098 0.154049 0.075059
H4    H     H_    0.466230 0.909967 0.185780 0.182948
H5    H     H_    0.530564 0.923685 0.849315 0.170156
H6    H     H_    0.465603 0.901755 0.909302 0.162243
H7    H     H_    0.525648 0.714277 0.953263 0.138322
H8    H     H_    0.500361 0.710969 0.859602 0.092341
H9    H     H_    0.589275 0.737209 0.893995 0.168381
H10   H     H_    0.043958 0.402734 0.089294 0.193393
H11   H     H_    0.971083 0.347110 0.031360 0.137411
H12   H     H_    0.899711 0.340806 0.126462 0.164052
H13   H     H_    0.790525 0.545159 0.519060 0.113169
H14   H     H_    0.979472 0.262204 0.154207 0.073752
H15   H     H_    0.966307 0.410117 0.185862 0.183050
H16   H     H_    0.030315 0.423363 0.849340 0.170131
H17   H     H_    0.965461 0.401847 0.909492 0.162139
H18   H     H_    0.025469 0.214352 0.953579 0.138356
H19   H     H_    0.999961 0.210763 0.859955 0.091891
H20   H     H_    0.088951 0.236903 0.894107 0.168234
H21   H     H_    0.198368 0.534097 0.476016 0.104540
H22   H     H_    0.843349 0.328412 0.472847 0.139896
H23   H     H_    0.157935 0.311649 0.525819 0.142277
H24   H     H_    0.343004 0.815929 0.474455 0.139121
H25   H     H_    0.658672 0.809684 0.525552 0.129901
H26   H     H_    0.603650 0.593167 0.507753 0.122450
H27   H     H_    0.555167 0.471396 0.462746 0.117404
H28   H     H_    0.534493 0.598924 0.354423 0.156655
H29   H     H_    0.351208 0.187508 0.495001 0.101942
H30   H     H_    0.499252 0.662381 0.428325 0.074523
H31   H     H_    0.577689 0.721428 0.401976 0.197402
H32   H     H_    0.427703 0.550133 0.515898 0.108030
H33   H     H_    0.431237 0.416382 0.570920 0.143589
H34   H     H_    0.441737 0.542840 0.677162 0.161280
H35   H     H_    0.509797 0.571069 0.623948 0.063988
H36   H     H_    0.438960 0.675816 0.622064 0.183624
H37   H     H_    0.070735 0.047776 0.482680 0.109495
H38   H     H_    0.066083 0.914059 0.429549 0.142069
H39   H     H_    0.053399 0.041809 0.321358 0.162123
H40   H     H_    0.153859 0.683695 0.512400 0.101506
H41   H     H_    0.986336 0.070700 0.375675 0.076245
H42   H     H_    0.056969 0.174059 0.374834 0.178166
H43   H     H_    0.928021 0.049195 0.514284 0.110255
H44   H     H_    0.931493 0.915478 0.569385 0.141900
H45   H     H_    0.943963 0.040442 0.675571 0.157432
H46   H     H_    0.010700 0.070603 0.621229 0.069013
H47   H     H_    0.939735 0.174473 0.621153 0.187729
H48   H     H_    0.735050 0.071507 0.629474 0.178879
H49   H     H_    0.709073 0.216802 0.655085 0.080800
H50   H     H_    0.806924 0.227285 0.747562 0.172173
H51   H     H_    0.852036 0.685990 0.495727 0.103890
H52   H     H_    0.757325 0.094356 0.757409 0.102846
H53   H     H_    0.839025 0.085008 0.723109 0.183400
H54   H     H_    0.275634 0.065272 0.374375 0.172355
H55   H     H_    0.301970 0.212770 0.351502 0.083799
H56   H     H_    0.208289 0.230202 0.255428 0.153058
H57   H     H_    0.256783 0.095052 0.247003 0.093085
H58   H     H_    0.173318 0.088713 0.278132 0.194751
H59   H     H_    0.229340 0.569192 0.629918 0.176999
H60   H     H_    0.202964 0.715796 0.653634 0.082637
H61   H     H_    0.297697 0.727050 0.748746 0.170441
H62   H     H_    0.620781 0.384280 0.561752 0.091028
H63   H     H_    0.248648 0.593069 0.757601 0.102096
H64   H     H_    0.331684 0.585177 0.725742 0.187411
H65   H     H_    0.775798 0.559175 0.373169 0.172185
H66   H     H_    0.802940 0.707144 0.352911 0.085957
H67   H     H_    0.708472 0.731269 0.258016 0.152792
H68   H     H_    0.755283 0.595465 0.246561 0.091757
H69   H     H_    0.672280 0.589724 0.278781 0.200299
H70   H     H_    0.725395 0.173534 0.088089 0.158895
H71   H     H_    0.697541 0.278998 0.018958 0.168072
H72   H     H_    0.778045 0.181648 0.943323 0.178089
H73   H     H_    0.378696 0.399168 0.439871 0.098553
H74   H     H_    0.821257 0.250188 0.021167 0.110789
H75   H     H_    0.813461 0.093308 0.019292 0.134909
H76   H     H_    0.372759 0.367613 0.045185 0.147782
H77   H     H_    0.435876 0.276398 0.092032 0.198629
H78   H     H_    0.361503 0.109981 0.102209 0.215684
H79   H     H_    0.327135 0.241408 0.134668 0.075165
H80   H     H_    0.291388 0.187543 0.049397 0.161526
H81   H     H_    0.225475 0.673435 0.088070 0.158963
H82   H     H_    0.197503 0.778980 0.019033 0.168027
H83   H     H_    0.277899 0.681911 0.943198 0.178036
H84   H     H_    0.121086 0.895425 0.560213 0.093361
H85   H     H_    0.321223 0.750203 0.021077 0.110767
H86   H     H_    0.313403 0.593333 0.019036 0.135042
H87   H     H_    0.872754 0.867610 0.045214 0.147678
H88   H     H_    0.935866 0.776376 0.092054 0.198688
H89   H     H_    0.861493 0.609981 0.102236 0.215736
H90   H     H_    0.827123 0.741410 0.134690 0.075134
H91   H     H_    0.791377 0.687540 0.049422 0.161522
H92   H     H_    0.618657 0.488134 0.889420 0.130930
H93   H     H_    0.534086 0.430024 0.886451 0.167662
H94   H     H_    0.566087 0.297242 0.783058 0.173257
H95   H     H_    0.879134 0.897536 0.439163 0.094406
H96   H     H_    0.563075 0.456759 0.765965 0.088241
H97   H     H_    0.644544 0.379617 0.787991 0.167584
H98   H     H_    0.585463 0.516302 0.997768 0.124019
H99   H     H_    0.621173 0.415704 0.066629 0.151080
H100  H     H_    0.554734 0.524422 0.150028 0.177125
H101  H     H_    0.611980 0.621761 0.109267 0.098415
H102  H     H_    0.520724 0.623504 0.078606 0.130445
H103  H     H_    0.118651 0.988147 0.889464 0.130960
H104  H     H_    0.034088 0.930009 0.886445 0.167619
H105  H     H_    0.063232 0.956730 0.765984 0.088326
H106  H     H_    0.297139 0.037602 0.517406 0.107012
H107  H     H_    0.144623 0.879428 0.788089 0.167358
H108  H     H_    0.066119 0.797241 0.783083 0.173011
H109  H     H_    0.085419 0.016404 0.997877 0.123911
H110  H     H_    0.121157 0.915654 0.066640 0.151399
H111  H     H_    0.054734 0.024108 0.150189 0.174119
H112  H     H_    0.111968 0.121557 0.109507 0.098306
H113  H     H_    0.020715 0.123364 0.078868 0.130627
H114  H     H_    0.543941 0.902706 0.089283 0.193603
H115  H     H_    0.471095 0.847195 0.031256 0.137521
H116  H     H_    0.399644 0.840798 0.126304 0.163946
O1    O     O_R   0.783230 0.287800 0.346510 -0.530455
O2    O     O_R   0.454570 0.285140 0.836900 -0.508755
O3    O     O_R   0.045430 0.785140 0.163100 -0.509378
O4    O     O_R   0.954570 0.785140 0.836900 -0.508827
O5    O     O_R   0.677850 0.374730 0.185500 -0.535600
O6    O     O_R   0.322150 0.374730 0.814500 -0.493474
O7    O     O_R   0.177850 0.874730 0.185500 -0.535242
O8    O     O_R   0.822150 0.874730 0.814500 -0.493095
O9    O     O_3   0.664630 0.164620 0.255130 -0.303083
O10   O     O_3   0.335370 0.164620 0.744870 -0.290665
O11   O     O_3   0.164630 0.664620 0.255130 -0.301944
O12   O     O_R   0.216770 0.287800 0.653490 -0.530123
O13   O     O_3   0.835370 0.664620 0.744870 -0.289755
O14   O     O_R   0.760130 0.037060 0.338610 -0.523680
O15   O     O_R   0.239870 0.037060 0.661390 -0.529272
O16   O     O_R   0.260130 0.537060 0.338610 -0.525935
O17   O     O_R   0.739870 0.537060 0.661390 -0.533383
O18   O     O_R   0.666620 0.921370 0.332440 -0.493998
O19   O     O_R   0.333380 0.921370 0.667560 -0.480924
O20   O     O_R   0.166620 0.421370 0.332440 -0.484716
O21   O     O_R   0.833380 0.421370 0.667560 -0.478069
O22   O     O_R   0.557170 0.082420 0.312350 -0.498034
O23   O     O_R   0.283230 0.787800 0.346510 -0.527256
O24   O     O_R   0.442830 0.082420 0.687650 -0.495774
O25   O     O_R   0.057170 0.582420 0.312350 -0.492484
O26   O     O_R   0.942830 0.582420 0.687650 -0.495056
O27   O     O_R   0.548310 0.285980 0.316250 -0.510826
O28   O     O_R   0.451690 0.285980 0.683750 -0.550063
O29   O     O_R   0.048310 0.785980 0.316250 -0.534086
O30   O     O_R   0.951690 0.785980 0.683750 -0.549876
O31   O     O_R   0.680520 0.375500 0.327470 -0.458048
O32   O     O_R   0.319480 0.375500 0.672530 -0.472268
O33   O     O_R   0.180520 0.875500 0.327470 -0.469278
O34   O     O_R   0.716770 0.787800 0.653490 -0.531446
O35   O     O_R   0.819480 0.875500 0.672530 -0.474272
O36   O     O_R   0.780350 0.286970 0.193350 -0.519394
O37   O     O_R   0.219650 0.286970 0.806650 -0.523009
O38   O     O_R   0.280350 0.786970 0.193350 -0.518800
O39   O     O_R   0.719650 0.786970 0.806650 -0.522730
O40   O     O_R   0.757460 0.036290 0.196640 -0.512846
O41   O     O_R   0.242540 0.036290 0.803360 -0.518738
O42   O     O_R   0.257460 0.536290 0.196640 -0.512223
O43   O     O_R   0.742540 0.536290 0.803360 -0.518276
O44   O     O_R   0.663740 0.920540 0.179290 -0.540290
O45   O     O_R   0.554500 0.081650 0.170370 -0.479462
O46   O     O_R   0.336260 0.920540 0.820710 -0.545875
O47   O     O_R   0.163740 0.420540 0.179290 -0.540885
O48   O     O_R   0.836260 0.420540 0.820710 -0.547279
O49   O     O_3   0.648042 0.512952 0.426697 -0.477126
O50   O     O_3   0.342668 0.523709 0.568324 -0.487459
O51   O     O_3   0.153979 0.019526 0.427969 -0.482882
O52   O     O_3   0.843074 0.023360 0.567020 -0.490820
O53   O     O_3   0.800919 0.207246 0.606205 -0.494047
O54   O     O_3   0.207975 0.198443 0.396438 -0.491716
O55   O     O_3   0.296390 0.703374 0.607865 -0.493468
O56   O     O_R   0.445500 0.081650 0.829630 -0.543156
O57   O     O_3   0.709409 0.691152 0.398893 -0.506699
O58   O     O_3   0.670983 0.102907 0.000539 -0.524084
O59   O     O_3   0.401590 0.228929 0.985064 -0.535057
O60   O     O_3   0.170959 0.602882 0.000552 -0.524161
O61   O     O_3   0.901571 0.728929 0.985082 -0.535049
O62   O     O_3   0.617881 0.310933 0.916772 -0.571917
O63   O     O_3   0.515366 0.401111 0.033765 -0.563801
O64   O     O_3   0.117886 0.810954 0.916834 -0.572099
O65   O     O_3   0.015343 0.901092 0.033795 -0.563747
O66   O     O_3   0.459589 0.020401 0.063625 -0.556913
O67   O     O_R   0.054500 0.581650 0.170370 -0.479239
O68   O     O_3   0.565723 0.941718 0.954225 -0.550385
O69   O     O_3   0.959570 0.520366 0.063631 -0.556955
O70   O     O_3   0.065694 0.441731 0.954181 -0.550243
O71   O     O_R   0.945500 0.581650 0.829630 -0.543174
O72   O     O_R   0.545430 0.285140 0.163100 -0.509723

loop_
_geom_bond_atom_site_label_1
_geom_bond_atom_site_label_2
_ccdc_geom_bond_type
C81   O66   S    
C55   C59   S    
C19   C20   S    
C74   C83   S    
C27   H96   S    
C90   C95   S    
Cr5   O37   S    
C20   H79   S    
C31   H108  S    
C34   O66   S    
C63   C133  S    
C85   O70   S    
C21   O60   S    
C26   O62   S    
C24   C54   S    
C1    C63   S    
Cr7   O13   S    
C4    H38   S    
C103  C126  S    
C68   O58   S    
C77   C122  S    
C81   C83   S    
C91   C96   S    
C22   H86   S    
C136  H33   S    
C30   O64   S    
C11   H58   S    
C91   C100  T    
C3    H36   S    
C88   C97   T    
C17   H71   S    
C9    H52   S    
C35   O49   S    
C21   C22   S    
C68   C83   S    
C55   O53   S    
C73   C81   S    
Cr11  O13   S    
C56   C93   S    
C106  O23   A    
C62   C132  S    
Cr5   O15   S    
C13   C106  S    
C72   O61   S    
Cr12  O27   S    
C28   H99   S    
C16   H67   S    
C45   O52   S    
C40   H14   S    
C37   C38   S    
Cr7   O43   S    
C25   H89   S    
C66   C76   S    
C69   C74   S    
C24   C107  S    
C18   H75   S    
C10   H54   S    
C72   C84   S    
C2    C52   S    
C88   C109  S    
C108  O40   A    
C111  O48   A    
Cr2   O10   S    
C15   O57   S    
C27   H94   S    
C42   H19   S    
Cr2   O6    S    
C57   C104  S    
Cr3   O3    S    
C49   C62   S    
C134  H26   S    
C105  O12   A    
C37   H6    S    
C19   H76   S    
C38   H9    S    
C4    C5    S    
C107  O34   A    
C117  O5    A    
C6    C7    S    
C44   C132  S    
C119  O7    A    
C45   C133  S    
C120  O8    A    
C8    O53   S    
C43   C131  S    
C5    H41   S    
C79   O29   A    
C80   O26   A    
C66   C70   S    
C45   C50   S    
C21   H82   S    
C84   O69   S    
C89   C108  S    
C32   H110  S    
C51   C55   S    
C11   H56   S    
C103  O1    A    
C3    H34   S    
C86   C95   T    
C94   C102  T    
C41   H16   S    
C125  C127  S    
C113  O56   A    
C49   O15   A    
C43   C47   S    
C76   C85   S    
Cr8   O9    S    
C13   C44   S    
C44   C48   S    
Cr7   O34   S    
C80   C123  S    
C112  O45   A    
C105  O32   A    
C15   H65   S    
C18   H72   S    
C128  C129  S    
C87   C110  S    
C111  O43   A    
Cr6   O42   S    
C34   H115  S    
C64   C68   S    
C37   O68   S    
C27   H97   S    
Cr5   O41   S    
C75   C84   S    
C25   H91   S    
C109  O41   A    
C20   H78   S    
C30   H103  S    
Cr1   O40   S    
C67   C72   S    
Cr9   O24   S    
C53   H24   S    
Cr9   O46   S    
C6    H43   S    
C8    H48   S    
Cr10  O67   S    
C120  O39   A    
Cr6   O23   S    
C23   H87   S    
C66   C67   S    
C50   C63   S    
Cr3   O11   S    
C38   H7    S    
C78   O24   A    
C47   H21   S    
C92   C97   S    
C48   C53   S    
C104  H40   S    
Cr7   O17   S    
Cr8   O22   S    
C12   H59   S    
Cr6   O16   S    
C39   C40   S    
C93   H29   S    
C36   H4    S    
C115  H51   S    
C46   C51   S    
C29   H101  S    
Cr11  O48   S    
C99   C117  S    
C23   O61   S    
C48   C62   S    
C33   H111  S    
C17   C18   S    
C28   H98   S    
C7    H46   S    
C35   C130  S    
C108  O44   A    
C39   O69   S    
C39   H10   S    
C60   O16   A    
C29   H100  S    
C116  O71   A    
C67   C75   S    
Cr9   O19   S    
C90   C99   T    
Cr10  O20   S    
C73   C112  S    
Cr12  O31   S    
C43   O50   S    
Cr12  O9    S    
C51   C126  S    
Cr12  O5    S    
C116  O4    A    
C103  O31   A    
C134  C135  S    
C64   O62   S    
C79   C124  S    
C20   H80   S    
C31   H107  S    
C89   C98   T    
C135  H28   S    
C122  C125  T    
Cr9   O10   S    
C19   H77   S    
C107  O35   A    
Cr11  O71   S    
Cr10  O47   S    
Cr6   O11   S    
C34   C36   S    
C119  O38   A    
C82   H1    S    
C10   C11   S    
C61   C131  S    
Cr11  O21   S    
C6    O52   S    
C69   O59   S    
C47   C52   S    
C70   C75   S    
C12   O55   S    
C11   H57   S    
C65   O63   S    
C70   C85   S    
C3    H35   S    
C17   H70   S    
C118  O6    A    
C41   C42   S    
C26   H93   S    
C26   C27   S    
C50   C54   S    
C28   C29   S    
C121  C127  T    
C30   C31   S    
Cr10  O25   S    
C28   O63   S    
C94   C98   S    
C33   H113  S    
C16   H68   S    
C78   C121  S    
C113  O2    A    
C82   C126  S    
Cr2   O28   S    
C22   H83   S    
C46   H13   S    
C109  O46   A    
Cr4   O4    S    
C10   H55   S    
C14   H61   S    
C124  C128  T    
Cr6   O38   S    
C4    O51   S    
C42   H20   S    
Cr4   O35   S    
C13   C53   S    
C134  H27   S    
C31   H105  S    
C71   O17   A    
C37   H5    S    
C84   C85   S    
Cr10  O11   S    
C110  O42   A    
C115  C133  S    
C136  O50   S    
C74   C113  S    
C49   O19   A    
C118  O37   A    
C60   C61   S    
C4    H37   S    
C22   H85   S    
C21   H81   S    
C131  H73   S    
C13   C104  S    
C19   O59   S    
C134  O49   S    
C9    H53   S    
C92   C101  T    
C14   H63   S    
Cr8   O18   S    
C100  C118  S    
C5    H39   S    
C44   O51   S    
C48   H106  S    
C12   H60   S    
C3    C136  S    
C102  C120  S    
C112  O72   A    
C70   O60   S    
C53   C57   S    
C39   H11   S    
Cr4   O13   S    
C40   H12   S    
C51   H22   S    
C66   O64   S    
C135  H30   S    
C47   C61   S    
C14   H64   S    
C64   C65   S    
C1    O14   A    
C114  O3    A    
C25   H90   S    
C65   C69   S    
C30   H104  S    
C110  O47   A    
C86   C111  S    
C18   H74   S    
C106  O33   A    
C69   C81   S    
C104  C132  S    
C6    H44   S    
C64   C74   S    
C56   C61   S    
C83   O68   S    
C93   C131  S    
C35   C46   S    
Cr8   O44   S    
Cr11  O26   S    
C59   C130  S    
C46   C59   S    
C58   O57   S    
C38   H8    S    
C77   O22   A    
C72   C76   S    
C57   C62   S    
C117  O36   A    
C24   C45   S    
C36   H116  S    
C54   H25   S    
C32   H109  S    
C5    H42   S    
Cr3   O33   S    
Cr4   O30   S    
C1    O18   A    
C56   O54   S    
C15   C16   S    
C65   C73   S    
C42   H18   S    
C114  O67   A    
Cr1   O1    S    
C8    C9    S    
C41   H17   S    
C60   O20   A    
C82   C130  S    
Cr7   O39   S    
C123  C129  T    
C8    H49   S    
Cr5   O10   S    
C15   H66   S    
C132  H84   S    
C52   H23   S    
Cr9   O56   S    
Cr1   O14   S    
C34   H114  S    
C101  C119  S    
C40   H15   S    
Cr2   O32   S    
Cr3   O29   S    
Cr8   O45   S    
Cr2   O2    S    
C68   C73   S    
Cr3   O7    S    
Cr4   O8    S    
C35   C126  S    
C26   H92   S    
C50   H2    S    
C2    C43   S    
C87   C96   T    
C16   H69   S    
C75   C114  S    
C55   C82   S    
C17   O58   S    
C79   O25   A    
C23   H88   S    
C80   O30   A    
C12   C14   S    
C58   C115  S    
C71   O21   A    
C130  H62   S    
C7    H45   S    
Cr12  O72   S    
C32   O65   S    
C9    H50   S    
C54   C58   S    
C58   C63   S    
C2    C93   S    
C77   O27   A    
C36   H3    S    
C78   O28   A    
C67   O65   S    
C136  H32   S    
C2    C105  S    
C29   H102  S    
C135  H31   S    
C133  H95   S    
C10   O54   S    
C33   H112  S    
Cr1   O9    S    
C76   C116  S    
C57   O55   S    
C23   C25   S    
C32   C33   S    
C24   C115  S    
C41   O70   S    
Cr1   O36   S    
Cr5   O12   S    
C7    H47   S    
C52   C56   S    
C59   C71   S    
