data_mof_unit_27319.cif
_audit_creation_date              2013-03-05T15:48:38-0500
_audit_creation_method            fapswitch 2.2
_symmetry_space_group_name_H-M    P1
_symmetry_Int_Tables_number       1
_space_group_crystal_system       triclinic
_cell_length_a                    8.191185
_cell_length_b                    18.755068
_cell_length_c                    19.039235
_cell_angle_alpha                 98.182686
_cell_angle_beta                  94.705427
_cell_angle_gamma                 90.668775
_cell_volume                      2884.58209416

loop_
_atom_site_label
_atom_site_type_symbol
_atom_site_description
_atom_site_fract_x
_atom_site_fract_y
_atom_site_fract_z
_atom_type_partial_charge
P1    P     P_3+3 0.947550 0.663200 0.567530 0.462348
O1    O     O_2   0.118870 0.674530 0.547560 -0.369246
O2    O     O_3   0.870460 0.585330 0.542110 -0.403555
O3    O     O_3   0.354280 0.631750 0.418430 -0.407402
O4    O     O_2   0.224862 0.754143 0.468051 -0.345183
O5    O     O_3   0.970129 0.680172 0.660649 -0.564004
O6    O     O_3   0.312528 0.747699 0.339110 -0.468570
H1    H     H_    0.288189 0.641047 0.292304 0.143831
C1    C     C_3   0.308479 0.710895 0.214089 -0.663017
H2    H     H_    0.182261 0.731711 0.210953 0.271158
H3    H     H_    0.394506 0.752766 0.201948 0.294738
P2    P     P_3+3 0.354660 0.445020 0.336980 0.497149
P3    P     P_3+3 0.907745 0.597494 0.289204 0.494138
O7    O     O_2   0.180880 0.466650 0.327890 -0.378350
O8    O     O_3   0.939000 0.596010 0.380670 -0.390252
O9    O     O_2   0.046600 0.555135 0.253095 -0.354018
O10   O     O_3   0.348212 0.351210 0.313276 -0.538283
O11   O     O_3   0.935774 0.686052 0.272856 -0.510843
C2    C     C_3   0.881478 0.733172 0.329998 0.253434
H4    H     H_    0.966082 0.732125 0.378439 0.136174
H5    H     H_    0.755538 0.718386 0.341472 0.014553
C3    C     C_3   0.881552 0.810000 0.312223 -0.068272
H6    H     H_    0.001578 0.823615 0.293535 0.188229
C4    C     C_3   0.829918 0.373655 0.302575 0.163725
H7    H     H_    0.699691 0.386362 0.290767 0.109105
H8    H     H_    0.895640 0.422286 0.331759 0.143690
C5    C     C_3   0.906724 0.350432 0.232653 0.073187
H9    H     H_    0.854037 0.297270 0.207092 0.195963
H10   H     H_    0.040730 0.345148 0.243430 0.180329
Ba1   Ba    Ba6+2 0.152460 0.535140 0.468980 1.574404
C6    C     C_3   0.012614 0.617266 0.688294 0.406486
H11   H     H_    0.126576 0.596527 0.667011 0.093296
H12   H     H_    0.914108 0.575525 0.674623 0.130476
C7    C     C_3   0.038480 0.635265 0.768962 -0.901892
H13   H     H_    0.144600 0.673314 0.784055 0.280200
H14   H     H_    0.062181 0.585874 0.793328 0.211230
H15   H     H_    0.927093 0.660336 0.790227 0.272918
C8    C     C_3   0.298762 0.318080 0.369687 0.228591
H16   H     H_    0.171554 0.332690 0.379406 0.071018
H17   H     H_    0.380246 0.334437 0.419025 0.119005
C9    C     C_3   0.307929 0.236349 0.350351 -0.114812
H18   H     H_    0.284325 0.210209 0.397348 0.075221
H19   H     H_    0.433040 0.221586 0.335810 0.141638
P4    P     P_3+3 0.862750 0.336790 0.432410 0.480560
O12   O     O_2   0.691430 0.325420 0.452420 -0.364024
O13   O     O_3   0.939830 0.414660 0.457830 -0.400267
O14   O     O_3   0.456020 0.368240 0.581510 -0.368656
O15   O     O_3   0.835622 0.314143 0.339514 -0.570615
P5    P     P_3+3 0.893770 0.399987 0.710770 0.474380
O16   O     O_3   0.374170 0.535780 0.585810 -0.389949
O17   O     O_3   0.871300 0.403980 0.619270 -0.386029
O18   O     O_2   0.752897 0.442475 0.745182 -0.385851
O19   O     O_3   0.859351 0.311312 0.725485 -0.506618
Ba2   Ba    Ba6+2 0.657710 0.464850 0.530960 1.557300
P6    P     P_3+3 0.366173 0.725131 0.424035 0.500601
C10   C     C_3   0.355776 0.691478 0.287702 0.379590
H20   H     H_    0.489687 0.682458 0.293078 0.031515
H21   H     H_    0.312048 0.662055 0.173999 0.220204
O20   O     O_3   0.436130 0.464210 0.414140 -0.385645
C11   C     C_3   0.508940 0.682820 0.646480 0.367501
H22   H     H_    0.635059 0.665712 0.636319 0.099520
H23   H     H_    0.426736 0.670100 0.596758 0.126596
C12   C     C_3   0.512060 0.764043 0.668485 -0.830155
H24   H     H_    0.596295 0.778972 0.717261 0.274512
H25   H     H_    0.555114 0.791489 0.625239 0.210938
H26   H     H_    0.386993 0.782479 0.679233 0.281939
P7    P     P_3+3 0.446777 0.555868 0.675483 0.447339
O21   O     O_2   0.629420 0.533310 0.672080 -0.365334
O22   O     O_3   0.451911 0.649311 0.701530 -0.555421
H27   H     H_    0.864325 0.847965 0.361233 0.095933
C13   C     C_3   0.906098 0.263883 0.667025 0.276682
H28   H     H_    0.827319 0.270627 0.618267 0.135827
H29   H     H_    0.035920 0.273530 0.657815 0.015973
C14   C     C_3   0.883586 0.186225 0.680755 -0.112317
H30   H     H_    0.758095 0.177200 0.696006 0.197940
H31   H     H_    0.898246 0.149154 0.631036 0.074451
P8    P     P_3+3 0.440962 0.274665 0.576912 0.430853
C15   C     C_3   0.434247 0.296469 0.713089 0.241427
H32   H     H_    0.298720 0.290905 0.705615 0.049619
O23   O     O_2   0.569876 0.242287 0.527574 -0.424741
O24   O     O_3   0.507125 0.251039 0.659962 -0.520684
H33   H     H_    0.471642 0.353537 0.712586 0.112768
H34   H     H_    0.447456 0.317619 0.827653 0.128571
C16   C     C_3   0.492419 0.276852 0.786065 -0.071287
H35   H     H_    0.628046 0.278728 0.793620 0.183716
C17   C     C_R   0.999463 0.952445 0.540446 -0.031480
C18   C     C_R   0.075751 0.904457 0.584055 0.439859
C19   C     C_R   0.230900 0.043346 0.556393 -0.028921
C20   C     C_R   0.066156 0.022442 0.534612 0.090191
C21   C     C_R   0.287378 0.114181 0.558620 -0.118646
C22   C     C_R   0.184751 0.166450 0.534473 -0.032782
C23   C     C_R   0.027902 0.144282 0.501224 -0.020117
C24   C     C_R   0.968979 0.072072 0.500828 0.027595
C25   C     C_R   0.235111 0.239692 0.540225 0.179399
C26   C     C_R   0.128785 0.289461 0.514225 -0.552823
C27   C     C_R   0.980527 0.267670 0.475460 0.253486
C28   C     C_R   0.930545 0.194006 0.467575 -0.025013
C29   C     C_R   0.843336 0.930519 0.504530 0.013741
C30   C     C_R   0.779493 0.858681 0.503641 -0.053158
C31   C     C_R   0.876873 0.807998 0.536002 -0.058617
C32   C     C_R   0.018933 0.833300 0.578700 -0.126268
H36   H     H_    0.167148 0.345515 0.519931 0.187242
H37   H     H_    0.413193 0.126986 0.578615 0.184251
H38   H     H_    0.083987 0.798913 0.611809 0.188782
C33   C     C_R   0.787856 0.167979 0.426013 0.014635
C34   C     C_R   0.730595 0.097966 0.425307 -0.180816
C35   C     C_R   0.813545 0.050195 0.466285 0.083226
C36   C     C_R   0.748443 0.980570 0.470838 0.016775
C37   C     C_R   0.585175 0.961715 0.447095 -0.253552
C38   C     C_R   0.617973 0.838197 0.471760 -0.156118
C39   C     C_R   0.518808 0.893536 0.448130 0.532417
C40   C     C_R   0.566204 0.764237 0.466386 0.235250
C41   C     C_R   0.673343 0.714131 0.491993 -0.558313
C42   C     C_R   0.825452 0.734403 0.528031 0.268326
H39   H     H_    0.717287 0.201161 0.393534 0.160621
H40   H     H_    0.634659 0.658118 0.486407 0.183562
H41   H     H_    0.321291 0.004959 0.569148 0.182608
H42   H     H_    0.621755 0.082296 0.390461 0.147104
H43   H     H_    0.501382 0.001313 0.430689 0.169732
C43   C     C_R   0.609520 0.530304 0.301576 -0.534369
C44   C     C_R   0.461904 0.494338 0.276631 0.319075
C45   C     C_R   0.405113 0.490603 0.204593 -0.258200
C46   C     C_R   0.498269 0.521203 0.156587 0.065101
C47   C     C_R   0.650888 0.554439 0.182576 -0.070490
C48   C     C_R   0.705747 0.558743 0.254696 0.251384
C49   C     C_R   0.455817 0.567879 0.036473 0.463769
C50   C     C_R   0.402734 0.555653 0.963878 -0.264339
C51   C     C_R   0.337091 0.488441 0.930724 -0.066395
C52   C     C_R   0.322233 0.433004 0.973193 0.466834
C53   C     C_R   0.375007 0.445220 0.045853 -0.203435
C54   C     C_R   0.442507 0.512182 0.078851 -0.056343
C55   C     C_R   0.138428 0.444719 0.823392 -0.186649
C56   C     C_R   0.094058 0.437794 0.749984 0.227430
C57   C     C_R   0.341246 0.502987 0.733279 0.294899
C58   C     C_R   0.389301 0.508043 0.806144 -0.263174
C59   C     C_R   0.289281 0.478248 0.852265 0.076774
C60   C     C_R   0.198479 0.464638 0.705185 -0.524897
H44   H     H_    0.502084 0.536998 0.826946 0.165646
H45   H     H_    0.411738 0.599699 0.933137 0.194675
H46   H     H_    0.289759 0.462751 0.185937 0.193151
H47   H     H_    0.366263 0.401087 0.076495 0.204420
H48   H     H_    0.052721 0.426588 0.857772 0.196207
H49   H     H_    0.731121 0.573739 0.146639 0.196113
H50   H     H_    0.162101 0.460760 0.648801 0.173005
H51   H     H_    0.654065 0.532628 0.356967 0.182985
Cl1   Cl    Cl    0.871673 0.412285 0.170978 -0.617503
N1    N     N_R   0.188216 0.209686 0.291161 0.275763
O25   O     O_R   0.211200 0.221465 0.226954 -0.303084
O26   O     O_R   0.065037 0.169051 0.301298 -0.356695
N2    N     N_R   0.002513 0.169681 0.737027 0.283349
O27   O     O_R   0.994530 0.200702 0.802227 -0.239272
O28   O     O_R   0.107181 0.118969 0.723481 -0.275661
N3    N     N_R   0.433013 0.205064 0.794316 0.300982
O29   O     O_R   0.480104 0.148557 0.753804 -0.292852
O30   O     O_R   0.347983 0.196499 0.847379 -0.199166
Cl2   Cl    Cl    0.306099 0.888877 0.424190 -0.624478
Cl3   Cl    Cl    0.220538 0.931521 0.657337 -0.573774
Cl4   Cl    Cl    0.533129 0.655011 0.070830 -0.598875
Cl5   Cl    Cl    0.245278 0.346005 0.938475 -0.539396
N4    N     N_R   0.750259 0.818312 0.257595 0.267467
O31   O     O_R   0.755718 0.785167 0.192989 -0.272805
O32   O     O_R   0.630261 0.861192 0.272517 -0.346554

loop_
_geom_bond_atom_site_label_1
_geom_bond_atom_site_label_2
_geom_bond_distance
_ccdc_geom_bond_type
C58   H44   1.082705 S    
C12   H25   1.109650 S    
C56   C60   1.394429 A    
C49   C50   1.400308 A    
P6    C40   1.859998 S    
C5    H10   1.108229 S    
C7    H15   1.110812 S    
C9    H18   1.108774 S    
Ba1   O13   2.809860 S    
C2    H4    1.109879 S    
C4    C5    1.528560 S    
O6    P6    1.751925 S    
C51   C52   1.414972 A    
H1    C10   1.108200 S    
C57   C60   1.392549 A    
C58   C59   1.414764 A    
C10   H20   1.110447 S    
Ba1   Ba2   4.544955 S    
O16   Ba2   2.885999 S    
C14   H31   1.107770 S    
P3    O11   1.748756 S    
C11   C12   1.520662 S    
C49   C54   1.416271 A    
C23   C24   1.431227 A    
N1    O26   1.300766 A    
C4    H8    1.107088 S    
O11   C2    1.406162 S    
C51   C59   1.497442 S    
C8    H16   1.104041 S    
C7    H13   1.110663 S    
O2    Ba2   2.810453 S    
Ba2   O21   2.836959 S    
C34   C35   1.413972 A    
P8    C25   1.847104 S    
C29   C36   1.415448 A    
C36   C37   1.400787 A    
C11   H23   1.110786 S    
P1    O1    1.504188 D    
C53   H47   1.083297 S    
C38   C39   1.425491 A    
C31   C32   1.400789 A    
C18   C32   1.395354 A    
P2    O20   1.554371 S    
P2    C44   1.842974 S    
N1    O25   1.300888 A    
C55   C56   1.402224 A    
P5    O17   1.749066 S    
P2    O10   1.752109 S    
C35   C36   1.421470 A    
C6    H12   1.106551 S    
C47   H49   1.081583 S    
N3    O30   1.300233 A    
C1    H2    1.109412 S    
C26   H36   1.081635 S    
C41   H40   1.081769 S    
P3    C48   1.831721 S    
O5    C6    1.395128 S    
Ba1   O16   2.752293 S    
C12   H26   1.110606 S    
C43   H51   1.081950 S    
N3    O29   1.300971 A    
P7    C57   1.840776 S    
C34   H42   1.078283 S    
C9    H19   1.111257 S    
C50   H45   1.083375 S    
O6    C10   1.402551 S    
O7    Ba1   2.836808 S    
C40   C41   1.403729 A    
P4    O13   1.578905 S    
C23   C28   1.421159 A    
Ba2   O20   2.751521 S    
C49   Cl4   1.761534 S    
C55   H48   1.081716 S    
C14   H30   1.108370 S    
P7    O21   1.563414 D    
C4    O15   1.400674 S    
C46   C47   1.410228 A    
C2    C3    1.526295 S    
C31   C42   1.421950 A    
C4    H7    1.107729 S    
C8    C9    1.528874 S    
C22   C23   1.415417 A    
C13   H29   1.108789 S    
C43   C48   1.394119 A    
C30   C38   1.434037 A    
C46   C54   1.497908 S    
C18   Cl3   1.767402 S    
C11   H22   1.109259 S    
P1    O2    1.578935 S    
N4    O32   1.301101 A    
O2    Ba1   2.892357 S    
C2    H5    1.111925 S    
P4    C27   1.866803 S    
C15   C16   1.527705 S    
C16   N3    1.460021 S    
C15   H33   1.111415 S    
H34   C16   1.108730 S    
C9    N1    1.458920 S    
P8    O24   1.747773 S    
C55   C59   1.412984 A    
P5    O18   1.546819 D    
C27   C28   1.420065 A    
O13   Ba2   2.893186 S    
C6    C7    1.521527 S    
C1    C10   1.518722 S    
C16   H35   1.107953 S    
C1    H3    1.110018 S    
C44   C45   1.403449 A    
O14   Ba2   2.761543 S    
C60   H50   1.082266 S    
P2    O7    1.487892 D    
O12   Ba2   2.849943 S    
C32   H38   1.079756 S    
P3    O8    1.743499 S    
O3    P6    1.740482 S    
N2    O28   1.300652 A    
P1    C42   1.882227 S    
O14   P8    1.747107 S    
C50   C51   1.406613 A    
O19   C13   1.404544 S    
C52   Cl5   1.759897 S    
C43   C44   1.392184 A    
C37   H43   1.078411 S    
O8    Ba1   2.701509 S    
C41   C42   1.393618 A    
O16   P7    1.748028 S    
P8    O23   1.543216 D    
P5    C56   1.836558 S    
C1    H21   1.108046 S    
P1    O5    1.750121 S    
P2    Ba1   3.384547 S    
C17   C18   1.425002 A    
O4    P6    1.543441 D    
C6    H11   1.101149 S    
P4    O12   1.504579 D    
C19   C21   1.395408 A    
C17   C20   1.438386 A    
C13   C14   1.527648 S    
C57   C58   1.400222 A    
C33   C34   1.387071 A    
N2    O27   1.300917 A    
C30   C31   1.422407 A    
C33   H39   1.078488 S    
O1    Ba1   2.849455 S    
O17   Ba2   2.702146 S    
N4    O31   1.301322 A    
C37   C39   1.386985 A    
C53   C54   1.407065 A    
C52   C53   1.400878 A    
C28   C33   1.398391 A    
C13   H28   1.109600 S    
C24   C35   1.412626 A    
C22   C25   1.416217 A    
C8    H17   1.110097 S    
C15   H32   1.109362 S    
C15   O24   1.403949 S    
C21   C22   1.401123 A    
C3    N4    1.459181 S    
C11   O22   1.404537 S    
C5    Cl1   1.774050 S    
P5    O19   1.748882 S    
P1    Ba1   3.381462 S    
C7    H14   1.105774 S    
O10   C8    1.399685 S    
C20   C24   1.420374 A    
C25   C26   1.398069 A    
C17   C29   1.427025 A    
C38   C40   1.432887 A    
C21   H37   1.080976 S    
C45   H46   1.082789 S    
C12   H24   1.110519 S    
P4    Ba2   3.382050 S    
C39   Cl2   1.762373 S    
C19   C20   1.412883 A    
C29   C30   1.436885 A    
P3    O9    1.546404 D    
C26   C27   1.393576 A    
C45   C46   1.414407 A    
Ba1   O20   2.886825 S    
C3    H6    1.111665 S    
C14   N2    1.457228 S    
P7    O22   1.751153 S    
C19   H41   1.076204 S    
C3    H27   1.110136 S    
O3    Ba1   2.762203 S    
P4    O15   1.754264 S    
C47   C48   1.400094 A    
C5    H9    1.111136 S    
