data_mof_unit_18685.cif
_audit_creation_date              2012-12-10T18:02:51-0500
_audit_creation_method            fapswitch 2.2
_symmetry_space_group_name_H-M    P1
_symmetry_Int_Tables_number       1
_space_group_crystal_system       triclinic
_cell_length_a                    10.823858
_cell_length_b                    9.501028
_cell_length_c                    27.833897
_cell_angle_alpha                 90.124026
_cell_angle_beta                  90.471325
_cell_angle_gamma                 90.106334
_cell_volume                      2862.26754004

loop_
_atom_site_label
_atom_site_type_symbol
_atom_type_description
_atom_site_fract_x
_atom_site_fract_y
_atom_site_fract_z
_atom_type_partial_charge
C1    C     C_R   0.262022 0.499930 0.500086 0.782283
C2    C     C_R   0.737983 0.500076 0.499985 0.782629
C3    C     C_R   0.502250 0.505102 0.101762 -0.044354
C4    C     C_R   0.495959 0.499452 0.898036 -0.044449
C5    C     C_R   0.392077 0.524290 0.127499 -0.025293
C6    C     C_R   0.607178 0.492125 0.872266 -0.025192
C7    C     C_R   0.281058 0.543110 0.102516 -0.144999
C8    C     C_R   0.719431 0.487025 0.897207 -0.144820
C9    C     C_R   0.613931 0.486837 0.127277 -0.021753
C10   C     C_R   0.383151 0.505378 0.872554 -0.021946
C11   C     C_R   0.504463 0.499453 0.354374 -0.142222
C12   C     C_R   0.494194 0.500730 0.645507 -0.144099
C13   C     C_R   0.384524 0.511918 0.974510 0.043244
C14   C     C_R   0.613296 0.487869 0.025302 0.043073
C15   C     C_R   0.612169 0.491598 0.974230 0.043399
C16   C     C_R   0.386585 0.518739 0.025551 0.043197
C17   C     C_R   0.497556 0.500977 0.949143 0.068316
C18   C     C_R   0.500712 0.503952 0.050653 0.068441
C19   C     C_R   0.272810 0.514643 0.947678 -0.203990
C20   C     C_R   0.723458 0.467559 0.052190 -0.204602
C21   C     C_R   0.272454 0.511783 0.897800 -0.145161
C22   C     C_R   0.723510 0.467416 0.102071 -0.145536
C23   C     C_R   0.501288 0.499730 0.407386 0.826166
C24   C     C_R   0.498429 0.500265 0.592574 0.824049
C25   C     C_R   0.278123 0.540801 0.052643 -0.203976
C26   C     C_R   0.722189 0.487087 0.947083 -0.203347
C27   C     C_R   0.063557 0.372725 0.495444 -0.178632
C28   C     C_R   0.936460 0.627274 0.504811 -0.179030
C29   C     C_R   0.935782 0.372827 0.495323 -0.188907
C30   C     C_R   0.064241 0.627171 0.504929 -0.190309
C31   C     C_R   0.871793 0.500106 0.500011 -0.014439
C32   C     C_R   0.128224 0.499902 0.500192 -0.014604
C33   C     C_R   0.423717 0.074134 0.469724 0.001229
C34   C     C_R   0.576221 0.925863 0.530297 0.003699
C35   C     C_R   0.576231 0.074820 0.530294 -0.041460
C36   C     C_R   0.423755 0.925178 0.469710 -0.044730
C37   C     C_R   0.395498 0.524267 0.177932 0.544543
C38   C     C_R   0.603611 0.491439 0.821839 0.544617
C39   C     C_R   0.613336 0.487623 0.177715 0.539919
C40   C     C_R   0.383644 0.503888 0.822113 0.540592
C41   C     C_R   0.532638 0.379226 0.277958 -0.192096
C42   C     C_R   0.456624 0.619413 0.721526 -0.189119
C43   C     C_R   0.533959 0.376181 0.328224 0.401065
C44   C     C_R   0.455854 0.621402 0.671278 0.400265
C45   C     C_R   0.479114 0.624594 0.329296 -0.285247
C46   C     C_R   0.527541 0.378610 0.670871 -0.282396
C47   C     C_R   0.480070 0.626811 0.279262 -0.101701
C48   C     C_R   0.526263 0.377280 0.720911 -0.100922
C49   C     C_R   0.506206 0.504128 0.253448 0.297922
C50   C     C_R   0.491516 0.497765 0.746373 0.296318
Cu1   Cu    Cu3+1 0.500000 0.640660 0.500000 0.950400
Cu2   Cu    Cu3+1 0.500000 0.359340 0.500000 0.951280
H1    H     H_    0.457304 0.720816 0.348341 0.180359
H2    H     H_    0.556227 0.284447 0.652032 0.179441
H3    H     H_    0.362744 0.130139 0.445468 0.137027
H4    H     H_    0.637203 0.869856 0.554549 0.133131
H5    H     H_    0.637291 0.131369 0.554523 0.125242
H6    H     H_    0.362716 0.868627 0.445473 0.126748
H7    H     H_    0.459954 0.723873 0.260460 0.156756
H8    H     H_    0.552966 0.282757 0.739994 0.156471
H9    H     H_    0.195257 0.559882 0.121460 0.187441
H10   H     H_    0.806372 0.483206 0.878227 0.186879
H11   H     H_    0.430155 0.712807 0.741287 0.157099
H12   H     H_    0.552155 0.284089 0.257914 0.155614
H13   H     H_    0.184345 0.514505 0.879061 0.186749
H14   H     H_    0.810449 0.451534 0.120847 0.187373
H15   H     H_    0.183052 0.516677 0.963996 0.135357
H16   H     H_    0.811791 0.448913 0.035934 0.136658
H17   H     H_    0.188881 0.559023 0.036538 0.136660
H18   H     H_    0.812963 0.485856 0.963126 0.135275
H19   H     H_    0.111425 0.273345 0.491609 0.147509
H20   H     H_    0.888589 0.726651 0.508645 0.147063
H21   H     H_    0.887379 0.273495 0.491391 0.148147
H22   H     H_    0.112650 0.726498 0.508848 0.148129
N1    N     N_R   0.505062 0.505890 0.201919 -0.455873
N2    N     N_R   0.492902 0.497250 0.797893 -0.456145
N3    N     N_R   0.500000 0.852070 0.500000 -0.166013
N4    N     N_R   0.500000 0.147930 0.500000 -0.166656
O1    O     O_R   0.319640 0.618740 0.500000 -0.595444
O2    O     O_R   0.680360 0.381260 0.500000 -0.595187
O3    O     O_R   0.680360 0.618740 0.500000 -0.590468
O4    O     O_R   0.319640 0.381260 0.500000 -0.590179
O5    O     O_R   0.500020 0.618770 0.430260 -0.590707
O6    O     O_R   0.499980 0.381230 0.569740 -0.589808
O7    O     O_R   0.499980 0.618770 0.569740 -0.535361
O8    O     O_R   0.500020 0.381230 0.430260 -0.534518
O9    O     O_2   0.290025 0.540967 0.202829 -0.533046
O10   O     O_2   0.709934 0.486232 0.796897 -0.532924
O11   O     O_2   0.275849 0.508267 0.797437 -0.542579
O12   O     O_2   0.720164 0.471147 0.202410 -0.543984
O13   O     O_3   0.422563 0.743757 0.647769 -0.569919
C51   C     C_3   0.293458 0.742123 0.640049 0.094105
H23   H     H_    0.244090 0.752138 0.674837 0.154817
H24   H     H_    0.262835 0.643743 0.621458 0.129085
C52   C     C_3   0.257813 0.865964 0.608305 -0.754513
H25   H     H_    0.304063 0.856981 0.572968 0.259665
H26   H     H_    0.156219 0.866670 0.602386 0.189368
H27   H     H_    0.286016 0.966400 0.625746 0.248469
O14   O     O_3   0.558723 0.250750 0.351424 -0.570971
C53   C     C_3   0.688057 0.235809 0.355955 0.089787
H28   H     H_    0.730936 0.329909 0.373468 0.133198
H29   H     H_    0.730415 0.219139 0.320066 0.154823
C54   C     C_3   0.716418 0.108422 0.387149 -0.754678
H30   H     H_    0.674467 0.012319 0.371059 0.247699
H31   H     H_    0.817952 0.093733 0.390072 0.191955
H32   H     H_    0.678697 0.124388 0.423719 0.257554

loop_
_geom_bond_atom_site_label_1
_geom_bond_atom_site_label_2
_ccdc_geom_bond_type
C33   H3    S    
C34   H4    S    
C5    C37   A    
C27   C29   A    
C8    C26   A    
C14   C18   A    
C52   H25   S    
Cu1   O7    S    
C52   H27   S    
C47   C49   A    
C38   N2    A    
C23   O5    A    
C51   H23   S    
C19   C21   A    
C43   O14   S    
C36   H6    S    
C36   N3    A    
C34   N3    A    
C30   H22   S    
C9    C22   A    
C29   H21   S    
C9    C39   A    
C33   C36   A    
C3    C18   A    
C10   C40   A    
C34   C35   A    
C41   C49   A    
Cu2   O6    S    
C7    H9    S    
C22   H14   S    
C23   O8    A    
C6    C38   A    
C19   H15   S    
C39   N1    A    
C40   O11   S    
C24   O7    A    
Cu1   O3    S    
C39   O12   S    
C48   C50   A    
C37   N1    A    
C45   H1    S    
C41   C43   A    
C28   H20   S    
C42   C44   A    
Cu2   O8    S    
Cu2   N4    S    
C53   H29   S    
C20   H16   S    
C48   H8    S    
C45   C47   A    
C10   C21   A    
C46   C48   A    
C11   C43   A    
C13   C19   A    
Cu1   Cu2   S    
C14   C20   A    
C12   C46   A    
O13   C51   S    
C5    C7    A    
C15   C26   A    
C6    C8    A    
C1    O4    A    
C51   C52   S    
C40   N2    A    
C38   O10   S    
C2    C31   S    
C53   C54   S    
Cu1   N3    S    
C3    C9    A    
C50   N2    S    
O14   C53   S    
C46   H2    S    
C51   H24   S    
C54   H31   S    
Cu2   O4    S    
C49   N1    S    
C44   O13   S    
C42   C50   A    
C4    C17   A    
C4    C6    A    
C20   C22   A    
C26   H18   S    
C11   C45   A    
C25   H17   S    
C4    C10   A    
Cu1   O5    S    
C27   H19   S    
C16   C25   A    
C15   C17   A    
C21   H13   S    
C27   C32   A    
C37   O9    S    
C28   C31   A    
C3    C5    A    
C52   H26   S    
C12   C24   S    
C35   N4    A    
C7    C25   A    
C13   C17   A    
C35   H5    S    
C28   C30   A    
C24   O6    A    
C29   C31   A    
C30   C32   A    
C1    O1    A    
C11   C23   S    
C53   H28   S    
C54   H32   S    
C1    C32   S    
C33   N4    A    
Cu1   O1    S    
C2    O2    A    
C47   H7    S    
C16   C18   A    
C13   C16   A    
C54   H30   S    
C14   C15   A    
C12   C44   A    
C2    O3    A    
C41   H12   S    
Cu2   O2    S    
C42   H11   S    
C8    H10   S    
