data_mof_unit_29891.cif
_audit_creation_date              2012-12-11T14:08:11-0500
_audit_creation_method            fapswitch 2.2
_symmetry_space_group_name_H-M    P1
_symmetry_Int_Tables_number       1
_space_group_crystal_system       triclinic
_cell_length_a                    10.95747
_cell_length_b                    10.901368
_cell_length_c                    18.613051
_cell_angle_alpha                 90.741189
_cell_angle_beta                  90.012734
_cell_angle_gamma                 59.925284
_cell_volume                      1923.81947274

loop_
_atom_site_label
_atom_site_type_symbol
_atom_type_description
_atom_site_fract_x
_atom_site_fract_y
_atom_site_fract_z
_atom_type_partial_charge
C1    C     C_R   0.298645 0.619430 0.614687 0.558809
C2    C     C_3   0.700584 0.571344 0.798804 -0.245393
C3    C     C_3   0.728349 0.697103 0.806355 0.048146
C4    C     C_3   0.682616 0.660523 0.672278 0.062903
C5    C     C_3   0.838763 0.627115 0.681231 -0.095103
C6    C     C_3   0.657805 0.561429 0.722181 -0.253904
C7    C     C_2   0.674475 0.161266 0.671951 -0.134025
C8    C     C_2   0.685073 0.173073 0.829420 -0.115720
C9    C     C_2   0.796312 0.136779 0.786082 -0.185868
C10   C     C_2   0.777052 0.167218 0.708841 -0.179092
C11   C     C_2   0.264586 0.631620 0.691160 -0.161215
C12   C     C_R   0.656324 0.626192 0.599434 0.543463
C13   C     C_2   0.220475 0.649232 0.846967 -0.094541
C14   C     C_2   0.252585 0.531434 0.807897 0.044935
C15   C     C_2   0.299108 0.517801 0.731937 -0.168040
C16   C     C_2   0.618389 0.615717 0.311593 -0.090070
C17   C     C_2   0.630194 0.657169 0.156321 -0.102880
C18   C     C_2   0.700320 0.530686 0.188365 -0.150853
C19   C     C_2   0.676777 0.508859 0.263614 -0.159585
C20   C     C_2   0.631954 0.197998 0.317933 -0.104702
C21   C     C_2   0.635220 0.206413 0.163287 -0.103014
C22   C     C_2   0.519927 0.237025 0.200466 -0.157980
C23   C     C_R   0.627956 0.228665 0.602255 0.543165
C24   C     C_2   0.515473 0.263206 0.276832 -0.148982
C25   C     C_2   0.124624 0.683088 0.343570 -0.132336
C26   C     C_2   0.140307 0.676484 0.186832 -0.081002
C27   C     C_2   0.141647 0.777444 0.229268 0.076525
C28   C     C_2   0.103158 0.793716 0.304885 -0.138376
C29   C     C_R   0.702311 0.103676 0.898097 0.540017
C30   C     C_R   0.755651 0.711418 0.883051 0.547535
C31   C     C_R   0.125125 0.702157 0.909496 0.549678
C32   C     C_R   0.672447 0.115507 0.100963 0.560289
C33   C     C_R   0.691805 0.687308 0.094275 0.562232
C34   C     C_R   0.212552 0.653102 0.405798 0.557509
C35   C     C_R   0.094927 0.709175 0.113364 0.567454
C36   C     C_R   0.614377 0.586857 0.387145 0.571967
C37   C     C_R   0.614342 0.233094 0.393310 0.546621
C38   C     C_3   0.595233 0.832637 0.777429 -0.222658
C39   C     C_3   0.578616 0.815971 0.696218 -0.240898
C40   C     C_3   0.859277 0.667467 0.759630 -0.110572
Cr1   Cr    Cr6+3 0.393010 0.398050 0.501480 1.017637
Cr2   Cr    Cr6+3 0.398820 0.707980 0.501630 1.022043
Cr3   Cr    Cr6+3 0.708140 0.393940 0.496850 1.011464
Cr4   Cr    Cr6+3 0.937950 0.938450 0.008940 1.053802
Cr5   Cr    Cr6+3 0.626180 0.937030 0.994750 1.054815
Cr6   Cr    Cr6+3 0.937790 0.625760 0.001410 1.058943
H1    H     H_    0.600945 0.930137 0.788130 0.141038
H2    H     H_    0.719579 0.449029 0.703921 0.140643
H3    H     H_    0.953786 0.574157 0.782022 0.170571
H4    H     H_    0.908223 0.509913 0.675897 0.150693
H5    H     H_    0.903313 0.076857 0.806193 0.161077
H6    H     H_    0.846702 0.197117 0.682718 0.156501
H7    H     H_    0.578583 0.234778 0.808836 0.137525
H8    H     H_    0.610192 0.124053 0.697645 0.102618
H9    H     H_    0.351834 0.412711 0.707306 0.169126
H10   H     H_    0.252116 0.722418 0.827160 0.084004
H11   H     H_    0.498980 0.847750 0.805708 0.145969
H12   H     H_    0.209854 0.738133 0.713788 0.101752
H13   H     H_    0.789189 0.441862 0.161388 0.162802
H14   H     H_    0.723565 0.400256 0.281727 0.141080
H15   H     H_    0.535986 0.744451 0.180212 0.139952
H16   H     H_    0.573348 0.725465 0.295980 0.125144
H17   H     H_    0.435362 0.224800 0.177510 0.170379
H18   H     H_    0.411461 0.330968 0.300239 0.163107
H19   H     H_    0.715478 0.226218 0.185761 0.109338
H20   H     H_    0.736981 0.129987 0.295930 0.100908
H21   H     H_    0.467490 0.844534 0.685823 0.140035
H22   H     H_    0.099702 0.884660 0.331670 0.179426
H23   H     H_    0.128519 0.591511 0.208667 0.075475
H24   H     H_    0.119365 0.593958 0.320869 0.101437
H25   H     H_    0.598735 0.890934 0.665643 0.121408
H26   H     H_    0.797326 0.469785 0.812064 0.155532
H27   H     H_    0.615509 0.585025 0.836471 0.139974
H28   H     H_    0.544639 0.591248 0.721398 0.120261
O1    O     O_R   0.507110 0.256280 0.580300 -0.520263
O2    O     O_R   0.524640 0.695370 0.425100 -0.489370
O3    O     O_R   0.735890 0.504390 0.415980 -0.502051
O4    O     O_R   0.690560 0.277820 0.422350 -0.512343
O5    O     O_3   0.499990 0.499990 0.499980 -0.287363
O6    O     O_R   0.089190 0.825870 0.932320 -0.519405
O7    O     O_R   0.819070 0.053960 0.931440 -0.501467
O8    O     O_R   0.607070 0.076440 0.916460 -0.502450
O9    O     O_R   0.647110 0.806550 0.917690 -0.506311
O10   O     O_R   0.837080 0.593860 0.915300 -0.505615
O11   O     O_R   0.064770 0.636080 0.932550 -0.474496
O12   O     O_R   0.280830 0.527190 0.577940 -0.494265
O13   O     O_R   0.068250 0.829200 0.092940 -0.464471
O14   O     O_R   0.799650 0.057040 0.080330 -0.489265
O15   O     O_R   0.586130 0.079760 0.077080 -0.499901
O16   O     O_R   0.627700 0.809630 0.066580 -0.478965
O17   O     O_R   0.816140 0.597180 0.075920 -0.505972
O18   O     O_R   0.045360 0.639170 0.081440 -0.498857
O19   O     O_3   0.833980 0.833750 0.001700 -0.281424
O20   O     O_R   0.261360 0.738990 0.584270 -0.515331
O21   O     O_R   0.532590 0.694780 0.574370 -0.515708
O22   O     O_R   0.744470 0.503750 0.577000 -0.529009
O23   O     O_R   0.698520 0.277230 0.571620 -0.496378
O24   O     O_R   0.498530 0.256920 0.419280 -0.504379
O25   O     O_R   0.272880 0.527780 0.428680 -0.502446
O26   O     O_R   0.252780 0.739630 0.423250 -0.509204
I1    I     I_    0.236992 0.357619 0.847835 -0.407267
I2    I     I_    0.204415 0.925610 0.195424 -0.392282
C41   C     C_3   0.888349 0.792194 0.764197 -0.405581
H29   H     H_    0.807465 0.885447 0.735243 0.147404
H30   H     H_    0.889891 0.824511 0.820674 0.134114
H31   H     H_    0.992082 0.761371 0.740414 0.140238
C42   C     C_3   0.888711 0.688561 0.620869 -0.397425
H32   H     H_    0.822617 0.805474 0.617914 0.135509
H33   H     H_    0.000100 0.659341 0.629529 0.165403
H34   H     H_    0.885340 0.642983 0.567769 0.155677

loop_
_geom_bond_atom_site_label_1
_geom_bond_atom_site_label_2
_ccdc_geom_bond_type
C7    C10   D    
C31   O11   A    
Cr5   O8    S    
C1    C11   S    
C10   H6    S    
C31   O6    A    
C2    C6    S    
C25   C28   D    
Cr1   O12   S    
C26   C27   D    
C16   H16   S    
C8    C29   S    
C20   H20   S    
C28   H22   S    
C36   O3    A    
C33   O17   A    
C38   C39   S    
Cr6   O18   S    
C35   O13   A    
C40   H3    S    
C32   O14   A    
C18   C19   S    
C30   O9    A    
Cr4   O19   S    
C36   O2    A    
C17   H15   S    
C22   H17   S    
C11   C15   D    
C20   C24   D    
C3    C38   S    
C8    C9    D    
C9    H5    S    
C34   O26   A    
C42   H32   S    
Cr1   O25   S    
C12   O21   A    
C6    H28   S    
C4    C12   S    
C11   H12   S    
Cr5   O15   S    
C9    C10   S    
C25   C34   S    
Cr6   O11   S    
C35   O18   A    
Cr5   O19   S    
Cr2   O5    S    
C24   H18   S    
C13   C14   D    
C42   H33   S    
Cr5   O9    S    
C17   C33   S    
C2    H26   S    
C37   O24   A    
Cr3   O22   S    
C21   C32   S    
Cr2   O21   S    
Cr4   O6    S    
C4    C6    S    
Cr4   O7    S    
C1    O20   A    
C14   I1    S    
Cr6   O17   S    
Cr3   O4    S    
C15   H9    S    
C3    C30   S    
C29   O7    A    
Cr2   O26   S    
Cr1   O1    S    
C38   H11   S    
C18   H13   S    
C32   O15   A    
C14   C15   S    
C4    C39   S    
C17   C18   D    
C41   H30   S    
Cr5   O16   S    
C38   H1    S    
C2    H27   S    
C6    H2    S    
Cr6   O10   S    
C23   O23   A    
C3    C40   S    
C42   H34   S    
C22   C24   S    
C5    H4    S    
Cr4   O13   S    
C27   C28   S    
C5    C42   S    
C1    O12   A    
C21   H19   S    
Cr2   O20   S    
C39   H21   S    
C13   C31   S    
Cr3   O23   S    
C23   O1    A    
C4    C5    S    
C8    H7    S    
Cr1   O5    S    
C19   H14   S    
Cr3   O3    S    
C34   O25   A    
C37   O4    A    
C27   I2    S    
Cr2   O2    S    
C13   H10   S    
C2    C3    S    
C29   O8    A    
Cr4   O14   S    
C33   O16   A    
C16   C36   S    
C40   C41   S    
C20   C37   S    
Cr6   O19   S    
C16   C19   D    
C7    C23   S    
C41   H31   S    
C30   O10   A    
C26   C35   S    
C5    C40   S    
C41   H29   S    
C26   H23   S    
C39   H25   S    
Cr1   O24   S    
C12   O22   A    
C25   H24   S    
C7    H8    S    
C21   C22   D    
Cr3   O5    S    
