data_mof_unit_59522.cif
_audit_creation_date              2012-12-10T18:05:47-0500
_audit_creation_method            fapswitch 2.2
_symmetry_space_group_name_H-M    P1
_symmetry_Int_Tables_number       1
_space_group_crystal_system       triclinic
_cell_length_a                    10.837526
_cell_length_b                    10.769044
_cell_length_c                    9.608672
_cell_angle_alpha                 88.662344
_cell_angle_beta                  89.646253
_cell_angle_gamma                 91.724161
_cell_volume                      1120.5864178

loop_
_atom_site_label
_atom_site_type_symbol
_atom_type_description
_atom_site_fract_x
_atom_site_fract_y
_atom_site_fract_z
_atom_type_partial_charge
C1    C     C_R   0.502792 0.262730 0.501014 0.814479
C2    C     C_R   0.497208 0.737270 0.498986 0.814478
C3    C     C_R   0.871372 0.494322 0.500648 -0.098969
C4    C     C_R   0.128628 0.505678 0.499352 -0.098970
C5    C     C_R   0.936579 0.440068 0.612326 0.034738
C6    C     C_R   0.063421 0.559932 0.387674 0.034738
C7    C     C_R   0.592545 0.065675 0.421725 0.512883
C8    C     C_R   0.407455 0.934325 0.578275 0.512883
C9    C     C_R   0.584925 0.937112 0.420325 -0.113155
C10   C     C_R   0.415075 0.062888 0.579675 -0.113155
C11   C     C_R   0.494147 0.871112 0.497631 -0.207993
C12   C     C_R   0.505852 0.128888 0.502369 -0.207992
C13   C     C_R   0.422128 0.421432 0.079427 0.462088
C14   C     C_R   0.577871 0.578567 0.920573 0.462087
C15   C     C_R   0.423138 0.420076 0.930090 0.218832
C16   C     C_R   0.576861 0.579924 0.069910 0.218830
C17   C     C_R   0.262625 0.503430 0.499878 0.802194
C18   C     C_R   0.737375 0.496570 0.500122 0.802195
C19   C     C_R   0.244691 0.807246 0.174114 0.201195
C20   C     C_R   0.755309 0.192754 0.825886 0.201195
C21   C     C_R   0.179685 0.749699 0.286353 0.346291
C22   C     C_R   0.820315 0.250301 0.713647 0.346291
C23   C     C_R   0.125196 0.629574 0.270511 -0.112523
C24   C     C_R   0.874804 0.370425 0.729489 -0.112523
C25   C     C_R   0.127365 0.574589 0.140109 -0.202669
C26   C     C_R   0.872634 0.425411 0.859891 -0.202669
C27   C     C_R   0.188186 0.632899 0.026960 0.364463
C28   C     C_R   0.811814 0.367101 0.973040 0.364464
C29   C     C_R   0.252881 0.747298 0.044778 0.248884
C30   C     C_R   0.747119 0.252702 0.955222 0.248885
C31   C     C_R   0.935450 0.552564 0.389364 -0.165417
C32   C     C_R   0.064550 0.447436 0.610636 -0.165419
Cu1   Cu    Cu3+1 0.500000 0.500020 0.640660 1.053481
Cu2   Cu    Cu3+1 0.500000 0.499980 0.359340 1.053480
H1    H     H_    0.081991 0.484667 0.126335 0.220024
H2    H     H_    0.918009 0.515333 0.873665 0.220024
H3    H     H_    0.885916 0.596159 0.304989 0.227859
H4    H     H_    0.114084 0.403840 0.695011 0.227859
H5    H     H_    0.653403 0.888436 0.362236 0.214818
H6    H     H_    0.346597 0.111564 0.637764 0.214818
N1    N     N_R   0.500030 0.500030 0.852070 -0.234815
N2    N     N_R   0.499970 0.499970 0.147930 -0.234815
O1    O     O_R   0.499990 0.319660 0.618740 -0.552441
O2    O     O_R   0.500010 0.680340 0.381260 -0.552441
O3    O     O_R   0.499990 0.319630 0.381170 -0.514373
O4    O     O_R   0.500010 0.680370 0.618830 -0.514374
O5    O     O_R   0.319650 0.500020 0.618780 -0.565808
O6    O     O_R   0.680350 0.499980 0.381220 -0.565808
O7    O     O_R   0.319640 0.500000 0.381210 -0.542724
O8    O     O_R   0.680360 0.500000 0.618790 -0.542724
O9    O     O_3   0.321439 0.797306 0.934370 -0.675329
H7    H     H_    0.377062 0.864885 0.966642 0.391365
O10   O     O_3   0.678561 0.202694 0.065630 -0.675330
H8    H     H_    0.622940 0.135113 0.033359 0.391366
Br1   Br    Br    0.318645 0.299449 0.840651 -0.465066
Br2   Br    Br    0.681355 0.700551 0.159349 -0.465067
Br3   Br    Br    0.313320 0.972538 0.198463 -0.395042
Br4   Br    Br    0.686679 0.027463 0.801536 -0.395044
O11   O     O_3   0.169511 0.814997 0.407734 -0.680018
H9    H     H_    0.111670 0.770827 0.473155 0.342999
O12   O     O_3   0.830488 0.185003 0.592266 -0.680019
H10   H     H_    0.888332 0.229172 0.526846 0.343000
O13   O     O_3   0.183221 0.574015 0.901023 -0.724434
H11   H     H_    0.223304 0.627754 0.827963 0.382493
O14   O     O_3   0.816779 0.425985 0.098976 -0.724434
H12   H     H_    0.776695 0.372247 0.172036 0.382494
O15   O     O_3   0.687381 0.123914 0.346152 -0.638221
H13   H     H_    0.694335 0.212674 0.369496 0.333691
O16   O     O_3   0.312619 0.876085 0.653848 -0.638221
H14   H     H_    0.305665 0.787326 0.630504 0.333690
O17   O     O_3   0.344725 0.344192 0.159187 -0.638575
H15   H     H_    0.272154 0.318200 0.104291 0.354800
O18   O     O_3   0.655275 0.655808 0.840813 -0.638575
H16   H     H_    0.727846 0.681800 0.895709 0.354800

loop_
_geom_bond_atom_site_label_1
_geom_bond_atom_site_label_2
_ccdc_geom_bond_type
C18   O6    A    
O15   H13   S    
C16   Br2   S    
C32   H4    S    
C27   C29   A    
C17   O5    A    
O18   H16   S    
C26   C28   A    
Cu2   N2    S    
C8    C11   A    
Cu1   Cu2   S    
C5    C32   A    
Cu1   N1    S    
C28   C30   A    
C28   O14   S    
O11   H9    S    
Cu2   O3    S    
C20   C30   A    
O10   H8    S    
C2    O4    A    
C22   O12   S    
C3    C31   A    
Cu1   O4    S    
C9    C11   A    
C1    O3    A    
C8    O16   S    
C7    C12   A    
C1    C12   S    
C27   O13   S    
C25   H1    S    
C14   N1    A    
C2    C11   S    
C10   C12   A    
C10   H6    S    
C13   N2    A    
C19   C21   A    
C20   C22   A    
C21   O11   S    
C14   C16   A    
O16   H14   S    
C13   C15   A    
C21   C23   A    
O12   H10   S    
Cu1   O5    S    
C30   O10   S    
C22   C24   A    
C17   O7    A    
C8    C10   A    
Cu2   O6    S    
C4    C17   S    
C15   N1    A    
C7    O15   S    
O9    H7    S    
C19   C29   A    
C14   O18   S    
C31   H3    S    
O17   H15   S    
C23   C25   A    
Cu2   O2    S    
C18   O8    A    
C3    C18   S    
C4    C6    A    
O14   H12   S    
C29   O9    S    
C15   Br1   S    
C4    C32   A    
C7    C9    A    
C26   H2    S    
C5    C24   S    
Cu2   O7    S    
C6    C31   A    
C13   O17   S    
Cu1   O8    S    
C6    C23   S    
C16   N2    A    
C20   Br4   S    
C1    O1    A    
C9    H5    S    
C19   Br3   S    
C24   C26   A    
C2    O2    A    
O13   H11   S    
C3    C5    A    
C25   C27   A    
Cu1   O1    S    
