data_mof_unit_11368.cif
_audit_creation_date              2012-12-11T15:28:44-0500
_audit_creation_method            fapswitch 2.2
_symmetry_space_group_name_H-M    P1
_symmetry_Int_Tables_number       1
_space_group_crystal_system       triclinic
_cell_length_a                    6.958201
_cell_length_b                    19.588371
_cell_length_c                    23.424412
_cell_angle_alpha                 96.163848
_cell_angle_beta                  91.047986
_cell_angle_gamma                 88.799914
_cell_volume                      3173.17612093

loop_
_atom_site_label
_atom_site_type_symbol
_atom_type_description
_atom_site_fract_x
_atom_site_fract_y
_atom_site_fract_z
_atom_type_partial_charge
O1    O     O_R   0.617180 0.809390 0.808140 -0.526070
O2    O     O_R   0.382820 0.190610 0.191860 -0.526270
O3    O     O_R   0.293300 0.672410 0.795490 -0.538169
O4    O     O_R   0.706700 0.327590 0.204510 -0.538986
O5    O     O_R   0.117220 0.690610 0.691850 -0.526627
O6    O     O_R   0.882780 0.309390 0.308150 -0.511210
C1    C     C_R   0.464676 0.648016 0.805515 0.688201
C2    C     C_R   0.535324 0.351986 0.194487 0.688424
O7    O     O_R   0.287840 0.807750 0.814460 -0.528888
O8    O     O_R   0.712160 0.192250 0.185540 -0.529314
O9    O     O_R   0.111720 0.826910 0.710960 -0.537229
O10   O     O_R   0.888280 0.173090 0.289040 -0.519817
C3    C     C_R   0.456503 0.830758 0.833177 0.708905
C4    C     C_R   0.543493 0.169241 0.166824 0.705939
O11   O     O_R   0.622680 0.673080 0.789040 -0.537327
O12   O     O_R   0.377320 0.326920 0.210960 -0.536543
O13   O     O_3   0.448820 0.756130 0.716020 -0.352466
O14   O     O_3   0.551180 0.243870 0.283980 -0.347274
V1    V     V_3+5 0.176220 0.748860 0.756300 1.432198
V2    V     V_3+5 0.823780 0.251140 0.243700 1.458618
O15   O     O_R   0.781670 0.827580 0.704500 -0.524457
O16   O     O_R   0.218330 0.172420 0.295500 -0.541475
C5    C     C_R   0.948847 0.851361 0.693691 0.809282
C6    C     C_R   0.051717 0.148618 0.306393 0.803202
O17   O     O_R   0.787130 0.692240 0.685530 -0.516051
O18   O     O_R   0.212870 0.307760 0.314470 -0.529760
C7    C     C_R   0.956118 0.669201 0.666820 0.765190
C8    C     C_R   0.043881 0.330772 0.333197 0.759990
V3    V     V_3+5 0.675510 0.751130 0.743690 1.466043
V4    V     V_3+5 0.324490 0.248870 0.256310 1.444837
O19   O     O_3   0.952780 0.743870 0.783980 -0.370537
O20   O     O_3   0.047220 0.256130 0.216020 -0.370625
C9    C     C_1   0.966670 0.617176 0.614745 -0.179100
C10   C     C_1   0.033295 0.382800 0.385270 -0.181840
C11   C     C_1   0.978209 0.573673 0.571919 0.010967
C12   C     C_1   0.021721 0.426306 0.428092 0.011814
C13   C     C_1   0.993393 0.521859 0.521317 0.009479
C14   C     C_1   0.006516 0.478123 0.478692 0.009779
C15   C     C_R   0.956972 0.913008 0.662463 -0.104050
C16   C     C_R   0.053264 0.086876 0.337875 -0.107624
C17   C     C_R   0.007234 0.036178 0.669685 0.421477
C18   C     C_R   0.154069 0.966743 0.336794 0.414394
C19   C     C_R   0.992589 0.975063 0.695147 -0.307932
C20   C     C_R   0.141988 0.027968 0.310920 -0.308783
C21   C     C_R   0.933015 0.911360 0.602093 -0.061590
C22   C     C_R   0.984421 0.086591 0.394538 -0.065343
C23   C     C_R   0.984533 0.970279 0.574243 -0.067693
C24   C     C_R   0.022661 0.027635 0.424916 -0.070088
C25   C     C_R   0.016369 0.033902 0.608916 0.071957
C26   C     C_R   0.083335 0.964961 0.393101 0.078533
C27   C     C_R   0.009786 0.967972 0.513146 0.089566
C28   C     C_R   0.012720 0.029669 0.486356 0.082302
C29   C     C_R   0.041484 0.091175 0.521816 -0.296422
C30   C     C_R   0.053966 0.906252 0.479186 -0.301674
C31   C     C_R   0.055412 0.093390 0.581467 -0.020460
C32   C     C_R   0.085008 0.903482 0.420288 -0.026540
H1    H     H_    0.200707 0.029522 0.268512 0.111933
H2    H     H_    0.000146 0.976345 0.741539 0.107463
H3    H     H_    0.079417 0.137084 0.503078 0.136776
H4    H     H_    0.077056 0.859155 0.498629 0.135607
C33   C     C_R   0.484102 0.585894 0.835738 -0.045687
C34   C     C_R   0.515895 0.414108 0.164265 -0.046390
C35   C     C_R   0.583881 0.466681 0.833333 -0.152104
C36   C     C_R   0.416096 0.533319 0.166667 -0.150145
C37   C     C_R   0.548474 0.524822 0.805249 -0.166065
C38   C     C_R   0.451512 0.475179 0.194755 -0.164690
C39   C     C_R   0.456038 0.588577 0.895266 -0.213135
C40   C     C_R   0.543959 0.411426 0.104737 -0.213287
C41   C     C_R   0.495596 0.530148 0.925400 0.086815
C42   C     C_R   0.504390 0.469854 0.074604 0.086970
C43   C     C_R   0.559750 0.468868 0.892832 0.134197
C44   C     C_R   0.440228 0.531133 0.107171 0.133041
C45   C     C_R   0.477056 0.530475 0.986465 0.057042
C46   C     C_R   0.522926 0.469527 0.013539 0.057338
C47   C     C_R   0.584983 0.410275 0.978623 -0.185159
C48   C     C_R   0.414992 0.589727 0.021380 -0.184999
C49   C     C_R   0.602371 0.410130 0.919701 -0.192509
C50   C     C_R   0.397601 0.589871 0.080302 -0.191030
H5    H     H_    0.651411 0.363326 0.894825 0.132663
H6    H     H_    0.348554 0.636674 0.105178 0.134357
H7    H     H_    0.590769 0.362665 0.083338 0.096062
H8    H     H_    0.409237 0.637340 0.916665 0.096348
H9    H     H_    0.427092 0.477647 0.240494 0.110883
H10   H     H_    0.572891 0.522353 0.759509 0.109407
H11   H     H_    0.633716 0.419989 0.808492 0.125661
H12   H     H_    0.366253 0.580011 0.191512 0.128594
H13   H     H_    0.622316 0.362683 0.995496 0.125706
H14   H     H_    0.377653 0.637317 0.004506 0.126053
C51   C     C_1   0.467202 0.882822 0.885232 -0.213513
C52   C     C_1   0.532778 0.117177 0.114769 -0.214257
C53   C     C_1   0.478628 0.926338 0.928056 0.002494
C54   C     C_1   0.521337 0.073661 0.071945 0.002183
C55   C     C_1   0.493546 0.978141 0.978677 0.002572
C56   C     C_1   0.506412 0.021860 0.021324 0.002555
C57   C     C_2   0.127682 0.158396 0.611734 0.511719
H15   H     H_    0.071443 0.207195 0.600041 0.023716
O21   O     O_2   0.260735 0.158100 0.646437 -0.498158
C58   C     C_2   0.105857 0.833739 0.389205 0.515384
H16   H     H_    0.184716 0.793902 0.409122 0.022183
O22   O     O_2   0.023432 0.818772 0.343235 -0.496524
C59   C     C_2   0.856276 0.143438 0.419826 0.335533
H17   H     H_    0.749631 0.132974 0.450833 0.075254
O23   O     O_2   0.871089 0.202249 0.407981 -0.538370
C60   C     C_2   0.827947 0.853398 0.569940 0.327966
H18   H     H_    0.740679 0.862639 0.532558 0.077120
O24   O     O_2   0.839855 0.795087 0.583702 -0.541793
O25   O     O_3   0.007243 0.098307 0.703801 -0.619580
H19   H     H_    0.997416 0.090432 0.744763 0.296267
O26   O     O_3   0.251310 0.910470 0.309633 -0.620347
H20   H     H_    0.292160 0.920558 0.271121 0.297014

loop_
_geom_bond_atom_site_label_1
_geom_bond_atom_site_label_2
_ccdc_geom_bond_type
C35   C37   A    
C59   H17   S    
O6    C8    A    
O13   V3    S    
C45   C46   A    
C57   H15   S    
C32   C58   S    
O4    C2    A    
V1    O19   S    
C60   O24   D    
C29   H3    S    
C23   C25   A    
C30   H4    S    
C7    C9    S    
C16   C22   A    
O9    V1    S    
C55   C56   T    
C40   H7    S    
C11   C13   S    
C18   O26   S    
C48   C50   A    
O3    C1    A    
C9    C11   T    
C50   H6    S    
O12   V4    S    
C21   C23   A    
C17   C25   A    
O9    C5    A    
C41   C43   A    
O7    C3    A    
C4    C52   S    
C44   C50   A    
C19   H2    S    
C6    C16   S    
C38   H9    S    
O5    C7    A    
O7    V1    S    
C1    C33   S    
O8    V2    S    
C42   C46   A    
O25   H19   S    
C41   C45   A    
O14   V4    S    
C51   C53   T    
O16   V4    S    
C48   H14   S    
C10   C12   T    
C15   C21   A    
C49   H5    S    
C8    C10   S    
C2    O12   A    
C35   H11   S    
C17   C19   A    
C18   C20   A    
C36   H12   S    
C60   H18   S    
O11   V3    S    
C22   C24   A    
C29   C31   A    
O17   V3    S    
C22   C59   S    
C30   C32   A    
C46   C47   A    
C34   C38   A    
C27   C28   A    
C31   C57   S    
O8    C4    A    
C37   H10   S    
C15   C19   A    
C1    O11   A    
C25   C31   A    
O15   V3    S    
C26   C32   A    
C39   C41   A    
C36   C38   A    
C13   C14   T    
C21   C60   S    
C53   C55   S    
C33   C39   A    
C52   C54   T    
C16   C20   A    
C20   H1    S    
O10   V2    S    
O1    V3    S    
O3    V1    S    
C47   C49   A    
C18   C26   A    
C47   H13   S    
C35   C43   A    
O18   V4    S    
C58   O22   D    
O15   C5    A    
C45   C48   A    
O16   C6    A    
O1    C3    A    
C43   C49   A    
C28   C29   A    
V2    O20   S    
C17   O25   S    
C3    C51   S    
C23   C27   A    
C57   O21   D    
O5    V1    S    
O17   C7    A    
O6    V2    S    
O10   C6    A    
O18   C8    A    
C34   C40   A    
O2    V4    S    
C27   C30   A    
C12   C14   S    
V3    O19   S    
O26   H20   S    
V4    O20   S    
C54   C56   S    
C5    C15   S    
C24   C26   A    
O13   V1    S    
O14   V2    S    
C36   C44   A    
O2    C4    A    
O4    V2    S    
C33   C37   A    
C24   C28   A    
C39   H8    S    
C59   O23   D    
C58   H16   S    
C40   C42   A    
C42   C44   A    
C2    C34   S    
