data_mof_unit_14717.cif
_audit_creation_date              2012-12-10T17:05:17-0500
_audit_creation_method            fapswitch 2.2
_symmetry_space_group_name_H-M    P1
_symmetry_Int_Tables_number       1
_space_group_crystal_system       triclinic
_cell_length_a                    10.058056
_cell_length_b                    10.691855
_cell_length_c                    15.272622
_cell_angle_alpha                 90.648166
_cell_angle_beta                  67.626242
_cell_angle_gamma                 90.368082
_cell_volume                      1518.6659463

loop_
_atom_site_label
_atom_site_type_symbol
_atom_type_description
_atom_site_fract_x
_atom_site_fract_y
_atom_site_fract_z
_atom_type_partial_charge
C1    C     C_R   0.500454 0.737386 0.500312 0.927690
C2    C     C_R   0.745107 0.458599 0.023051 0.145135
C3    C     C_R   0.602639 0.422663 0.079476 0.086896
C4    C     C_R   0.409862 0.497711 0.676735 0.859822
C5    C     C_R   0.837937 0.503038 0.065636 -0.203739
C6    C     C_R   0.788435 0.517555 0.163639 -0.221280
C7    C     C_R   0.556275 0.435612 0.177916 -0.248329
C8    C     C_2   0.574965 0.068091 0.545674 -0.146509
C9    C     C_2   0.480444 0.132272 0.522448 -0.332387
C10   C     C_2   0.570360 0.932659 0.546710 -0.172785
C11   C     C_2   0.502495 0.869714 0.499780 -0.323225
C12   C     C_R   0.437222 0.413239 0.902405 0.095170
C13   C     C_2   0.089696 0.404973 0.473961 -0.189192
C14   C     C_2   0.949112 0.412249 0.460569 0.000027
C15   C     C_R   0.495827 0.262982 0.505630 0.943733
C16   C     C_R   0.590200 0.498282 0.323201 0.869894
C17   C     C_R   0.356681 0.469032 0.777621 -0.065544
C18   C     C_R   0.647107 0.484192 0.220033 -0.057975
C19   C     C_R   0.196356 0.355068 0.913170 -0.223894
C20   C     C_R   0.226458 0.405740 0.823578 -0.208906
C21   C     C_R   0.454043 0.481518 0.822003 -0.241381
C22   C     C_R   0.924908 0.313375 0.400151 0.209897
C23   C     C_R   0.301135 0.359299 0.953254 0.170404
C24   C     C_R   0.914990 0.187698 0.427642 -0.196896
C25   C     C_R   0.897984 0.093369 0.368507 -0.124658
C26   C     C_R   0.892861 0.123824 0.281124 -0.114319
C27   C     C_R   0.908383 0.248233 0.251812 -0.182958
C28   C     C_R   0.927473 0.342340 0.310334 -0.089425
C29   C     C_3   0.765496 0.387390 0.774736 -0.390328
C30   C     C_3   0.723320 0.256280 0.753527 -0.828929
C31   C     C_R   0.548359 0.407133 0.937618 0.043625
C32   C     C_R   0.507138 0.385816 0.035690 0.028684
C33   C     C_R   0.370582 0.331718 0.086405 -0.213714
C34   C     C_R   0.271595 0.313591 0.043797 -0.240194
C35   C     C_R   0.698202 0.420691 0.880196 0.138743
C36   C     C_R   0.793266 0.449959 0.924772 -0.303198
H1    H     H_    0.169060 0.270233 0.083592 0.148285
H2    H     H_    0.446959 0.413864 0.223118 0.155885
H3    H     H_    0.859350 0.557443 0.194885 0.146398
H4    H     H_    0.905566 0.467825 0.882533 0.143273
H5    H     H_    0.093358 0.310295 0.949921 0.142612
H6    H     H_    0.150410 0.393093 0.789600 0.151640
H7    H     H_    0.543983 0.544402 0.792495 0.145517
H8    H     H_    0.339478 0.299356 0.158174 0.148358
H9    H     H_    0.919464 0.162993 0.495045 0.109782
H10   H     H_    0.888290 0.996773 0.390599 0.139027
H11   H     H_    0.878881 0.050911 0.235618 0.129839
H12   H     H_    0.947285 0.530394 0.022954 0.149979
H13   H     H_    0.907349 0.271459 0.183303 0.141599
H14   H     H_    0.946106 0.437561 0.285555 0.122402
H15   H     H_    0.748303 0.186334 0.798262 0.253821
H16   H     H_    0.607275 0.251167 0.766324 0.264873
H17   H     H_    0.785054 0.232322 0.677932 0.234776
H18   H     H_    0.742556 0.456544 0.729321 0.204548
H19   H     H_    0.884803 0.388273 0.749986 0.197248
H20   H     H_    0.658973 0.114758 0.561883 0.168003
H21   H     H_    0.384654 0.089741 0.518623 0.148108
H22   H     H_    0.628102 0.884103 0.583524 0.158516
H23   H     H_    0.447875 0.913360 0.459228 0.141258
H24   H     H_    0.149947 0.318290 0.454995 0.169895
H25   H     H_    0.096929 0.583488 0.508626 0.162642
H26   H     H_    0.871537 0.560153 0.545218 0.146982
N1    N     N_2   0.148330 0.498670 0.499030 -0.195384
N2    N     N_2   0.852680 0.498640 0.499000 -0.214172
O1    O     O_R   0.386950 0.680940 0.500010 -0.612310
O2    O     O_R   0.613110 0.680900 0.499990 -0.612541
O3    O     O_R   0.322330 0.500030 0.632270 -0.608003
O4    O     O_R   0.548480 0.499990 0.632240 -0.613769
O5    O     O_R   0.386890 0.319100 0.500010 -0.624037
O6    O     O_R   0.613050 0.319060 0.499990 -0.590112
O7    O     O_R   0.451520 0.500010 0.367760 -0.603001
O8    O     O_R   0.677670 0.499970 0.367730 -0.609762
Zn1   Zn    Zn3+2 0.349000 0.500030 0.500020 0.928210
Zn2   Zn    Zn3+2 0.651000 0.499970 0.499980 0.929660

loop_
_geom_bond_atom_site_label_1
_geom_bond_atom_site_label_2
_ccdc_geom_bond_type
O6    Zn2   S    
C4    O3    A    
C1    O1    A    
C30   H15   S    
O5    Zn1   S    
C29   C30   S    
O3    Zn1   S    
C2    C3    A    
C17   C21   A    
C34   H1    S    
N1    Zn1   S    
C29   C35   S    
C20   H6    S    
C31   C32   A    
C16   O8    A    
C7    C18   A    
C14   N2    D    
C32   C33   A    
C14   C22   S    
C1    O2    A    
C9    C15   S    
C13   H24   S    
C22   C28   A    
C13   C14   S    
C12   C23   A    
C8    H20   S    
C26   C27   A    
C3    C32   A    
C16   O7    A    
C30   H16   S    
C26   H11   S    
C27   H13   S    
C11   H23   S    
C24   H9    S    
C25   H10   S    
C22   C24   A    
C8    C10   S    
C5    H12   S    
C7    H2    S    
C33   C34   A    
C3    C7    A    
C13   N1    D    
C12   C31   A    
C5    C6    A    
C15   O5    A    
C30   H17   S    
C31   C35   A    
C6    C18   A    
C2    C5    A    
C10   C11   D    
C4    C17   S    
O4    Zn2   S    
O2    Zn2   S    
C19   H5    S    
O7    Zn1   S    
C36   H4    S    
C17   C20   A    
O1    Zn1   S    
C24   C25   A    
C9    H21   S    
O8    Zn2   S    
C29   H18   S    
C2    C36   A    
C27   C28   A    
H25   N1    S    
C15   O6    A    
N2    Zn2   S    
C19   C23   A    
C23   C34   A    
H26   N2    S    
C29   H19   S    
C10   H22   S    
C25   C26   A    
C6    H3    S    
C33   H8    S    
C28   H14   S    
C12   C21   A    
C16   C18   S    
C21   H7    S    
C4    O4    A    
C19   C20   A    
C8    C9    D    
C35   C36   A    
C1    C11   S    
