data_mof_unit_66198.cif
_audit_creation_date              2012-12-10T18:26:55-0500
_audit_creation_method            fapswitch 2.2
_symmetry_space_group_name_H-M    P1
_symmetry_Int_Tables_number       1
_space_group_crystal_system       triclinic
_cell_length_a                    25.906299
_cell_length_b                    25.890965
_cell_length_c                    22.159863
_cell_angle_alpha                 90.297971
_cell_angle_beta                  54.272614
_cell_angle_gamma                 90.251928
_cell_volume                      12066.0650532

loop_
_atom_site_label
_atom_site_type_symbol
_atom_type_description
_atom_site_fract_x
_atom_site_fract_y
_atom_site_fract_z
_atom_type_partial_charge
Br1   Br    Br    0.642274 0.704199 0.349742 -0.427081
Br2   Br    Br    0.349436 0.273662 0.077823 -0.379196
Br3   Br    Br    0.859236 0.297659 0.079034 -0.385728
Br4   Br    Br    0.852018 0.774860 0.077147 -0.365589
Br5   Br    Br    0.434494 0.757117 0.904151 -0.411574
Br6   Br    Br    0.445956 0.303251 0.903811 -0.446524
Br7   Br    Br    0.935073 0.269155 0.904753 -0.443155
Br8   Br    Br    0.949243 0.804467 0.903559 -0.441325
Br9   Br    Br    0.584452 0.643366 0.913262 -0.497491
Br10  Br    Br    0.626708 0.327026 0.913611 -0.508827
Br11  Br    Br    0.073122 0.140244 0.912000 -0.518336
Br12  Br    Br    0.590796 0.359536 0.458097 -0.465162
Br13  Br    Br    0.130461 0.825764 0.912798 -0.500589
Br14  Br    Br    0.375507 0.669856 0.085908 -0.449165
Br15  Br    Br    0.425533 0.361203 0.087857 -0.461099
Br16  Br    Br    0.867575 0.178875 0.086179 -0.445343
Br17  Br    Br    0.928993 0.861670 0.087041 -0.460541
Br18  Br    Br    0.557835 0.705250 0.094680 -0.387190
Br19  Br    Br    0.562614 0.233978 0.096398 -0.372739
Br20  Br    Br    0.053691 0.194655 0.092744 -0.422548
Br21  Br    Br    0.062518 0.733309 0.099150 -0.381005
Br22  Br    Br    0.639636 0.946328 0.657093 -0.595749
Br23  Br    Br    0.140104 0.188944 0.366123 -0.420876
Br24  Br    Br    0.658974 0.066457 0.663377 -0.620317
Br25  Br    Br    0.141097 0.446460 0.656519 -0.586369
Br26  Br    Br    0.160310 0.566497 0.663168 -0.619064
Br27  Br    Br    0.373936 0.792649 0.648695 -0.438633
Br28  Br    Br    0.445840 0.133968 0.495604 -0.422596
Br29  Br    Br    0.886917 0.334458 0.609534 -0.396831
Br30  Br    Br    0.946754 0.634073 0.494573 -0.416609
Br31  Br    Br    0.770891 0.563218 0.617113 -0.380218
Br32  Br    Br    0.770665 0.438205 0.617236 -0.324290
Br33  Br    Br    0.270023 0.063108 0.617930 -0.395558
Br34  Br    Br    0.089812 0.860081 0.459811 -0.463667
Br35  Br    Br    0.270249 0.938054 0.617668 -0.323433
Br36  Br    Br    0.439179 0.864852 0.514638 -0.359138
Br37  Br    Br    0.527976 0.196811 0.350272 -0.349573
Br38  Br    Br    0.982052 0.359354 0.443017 -0.405492
Br39  Br    Br    0.027821 0.697366 0.349585 -0.347177
Br40  Br    Br    0.522593 0.808181 0.351326 -0.394241
Br41  Br    Br    0.499117 0.322121 0.375027 -0.467453
Br42  Br    Br    0.025410 0.256836 0.332560 -0.434069
Br43  Br    Br    0.998934 0.822494 0.375298 -0.468747
Br44  Br    Br    0.515246 0.691013 0.358955 -0.510801
Br45  Br    Br    0.440710 0.358037 0.535539 -0.571407
Br46  Br    Br    0.002710 0.154416 0.414349 -0.570205
Br47  Br    Br    0.939991 0.858070 0.536103 -0.567978
Br48  Br    Br    0.354977 0.786661 0.078481 -0.386684
C1    C     C_R   0.849390 0.750105 0.301303 0.810512
C2    C     C_3   0.551294 0.248853 0.499892 -0.117582
C3    C     C_3   0.276334 0.969976 0.423057 -0.459649
C4    C     C_3   0.792754 0.530612 0.524639 0.097754
C5    C     C_3   0.792755 0.470050 0.524636 0.099177
C6    C     C_3   0.292485 0.030597 0.525144 0.096894
C7    C     C_3   0.292563 0.970023 0.525017 0.101995
C8    C     C_3   0.681281 0.529633 0.556963 -0.371391
C9    C     C_3   0.681312 0.470307 0.556879 -0.344189
C10   C     C_3   0.181312 0.029611 0.556610 -0.364222
C11   C     C_3   0.181345 0.970293 0.556621 -0.343972
C12   C     C_3   0.749882 0.550929 0.501684 0.056314
C13   C     C_3   0.050513 0.251194 0.502088 -0.129388
C14   C     C_3   0.749936 0.449122 0.501607 0.028783
C15   C     C_3   0.249946 0.050919 0.501707 0.049519
C16   C     C_3   0.249990 0.949111 0.501622 0.027408
C17   C     C_R   0.749691 0.891289 0.500694 0.914772
C18   C     C_R   0.746898 0.108627 0.502112 0.903918
C19   C     C_R   0.250599 0.391364 0.499987 0.908998
C20   C     C_R   0.247619 0.608670 0.501678 0.909429
C21   C     C_R   0.891029 0.749148 0.500884 0.928972
C22   C     C_R   0.891932 0.249743 0.499238 0.923217
C23   C     C_R   0.391004 0.249130 0.500921 0.928360
C24   C     C_3   0.051555 0.748995 0.499377 -0.118517
C25   C     C_R   0.391971 0.749677 0.498860 0.923205
C26   C     C_R   0.608747 0.749757 0.500041 0.882522
C27   C     C_R   0.608616 0.249461 0.500279 0.934959
C28   C     C_R   0.107850 0.251331 0.502183 0.917259
C29   C     C_R   0.108757 0.749608 0.499999 0.928790
C30   C     C_3   0.509661 0.796082 0.542671 -0.470223
C31   C     C_3   0.549089 0.198108 0.463332 -0.478468
C32   C     C_3   0.018494 0.305206 0.525127 -0.491377
C33   C     C_3   0.049870 0.698602 0.461817 -0.474260
C34   C     C_3   0.448681 0.796720 0.544871 0.466102
C35   C     C_3   0.450755 0.750109 0.497055 -0.158264
C36   C     C_3   0.493014 0.199303 0.456217 0.451732
C37   C     C_3   0.962597 0.307037 0.517143 0.457033
C38   C     C_3   0.993428 0.699630 0.455372 0.452007
C39   C     C_3   0.573058 0.752668 0.416977 -0.010845
C40   C     C_3   0.553799 0.294597 0.452373 -0.007158
C41   C     C_3   0.070777 0.239872 0.421709 0.015177
C42   C     C_3   0.053587 0.795148 0.452736 -0.006451
C43   C     C_3   0.581808 0.885534 0.928648 0.104898
C44   C     C_3   0.589795 0.907960 0.859995 -0.369064
C45   C     C_3   0.593685 0.966791 0.859977 -0.923320
C46   C     C_3   0.449388 0.248335 0.499944 -0.145334
C47   C     C_3   0.535771 0.132488 0.867846 0.110918
C48   C     C_3   0.483599 0.091147 0.903807 -0.441041
C49   C     C_3   0.482748 0.060238 0.845560 -0.813997
C50   C     C_3   0.093249 0.381485 0.927974 0.107498
C51   C     C_3   0.097479 0.406620 0.862851 -0.374107
C52   C     C_3   0.105221 0.465065 0.863386 -0.931423
C53   C     C_3   0.041572 0.630800 0.869053 0.116707
C54   C     C_3   0.990027 0.588932 0.904447 -0.449489
C55   C     C_3   0.991220 0.556777 0.845701 -0.798530
C56   C     C_3   0.513549 0.851233 0.119627 0.083119
C57   C     C_3   0.950100 0.250702 0.499162 -0.155250
C58   C     C_3   0.558885 0.855651 0.142273 -0.253922
C59   C     C_3   0.535487 0.895547 0.204033 -0.862790
C60   C     C_3   0.459331 0.113659 0.086920 0.169226
C61   C     C_3   0.408916 0.115306 0.171221 -0.377888
C62   C     C_3   0.377390 0.062690 0.200854 -0.920184
C63   C     C_3   0.024440 0.341870 0.119682 0.083953
C64   C     C_3   0.068267 0.337254 0.144424 -0.262986
C65   C     C_3   0.047684 0.373442 0.209417 -0.835542
C66   C     C_3   0.957622 0.614089 0.089700 0.167265
C67   C     C_3   0.906019 0.616813 0.173646 -0.379364
C68   C     C_3   0.949511 0.748424 0.499732 -0.152561
C69   C     C_3   0.872976 0.564775 0.203957 -0.918091
C70   C     C_3   0.678617 0.734457 0.869107 0.193725
C71   C     C_3   0.731740 0.709397 0.869164 -0.295169
C72   C     C_3   0.791717 0.703543 0.790160 -0.960078
C73   C     C_3   0.677058 0.223731 0.920908 0.228616
C74   C     C_3   0.728097 0.224519 0.836757 -0.391337
C75   C     C_3   0.794310 0.231093 0.818604 -0.866337
C76   C     C_3   0.177298 0.219809 0.870401 0.196791
C77   C     C_3   0.219731 0.182705 0.876611 -0.313348
C78   C     C_3   0.277954 0.167060 0.800050 -0.915049
C79   C     C_3   0.514047 0.750797 0.414223 0.422052
C80   C     C_3   0.177166 0.722655 0.928844 0.217722
C81   C     C_3   0.233537 0.720998 0.846739 -0.396556
C82   C     C_3   0.296620 0.723464 0.837650 -0.806003
C83   C     C_3   0.855472 0.909467 0.323514 0.223724
C84   C     C_3   0.920844 0.928056 0.257162 -0.347827
C85   C     C_3   0.968447 0.883677 0.222145 -0.803737
C86   C     C_3   0.785817 0.048903 0.337772 0.074590
C87   C     C_3   0.822853 0.054107 0.253464 -0.332210
C88   C     C_3   0.778412 0.057755 0.229536 -0.806711
C89   C     C_3   0.355662 0.409265 0.324080 0.217394
C90   C     C_3   0.487753 0.300688 0.466702 0.417002
C91   C     C_3   0.421632 0.425586 0.256529 -0.349166
C92   C     C_3   0.466730 0.379579 0.222092 -0.803439
C93   C     C_3   0.288120 0.549510 0.337325 0.079755
C94   C     C_3   0.325491 0.552499 0.252731 -0.333919
C95   C     C_3   0.281636 0.549276 0.227881 -0.803091
C96   C     C_3   0.889822 0.956679 0.464488 0.132010
C97   C     C_3   0.961145 0.968125 0.421010 -0.293011
C98   C     C_3   0.977618 0.995249 0.469172 -0.826129
C99   C     C_3   0.891623 0.097406 0.393495 0.201696
C100  C     C_3   0.955170 0.086727 0.318516 -0.355438
C101  C     C_3   0.010969 0.228799 0.423248 0.399441
C102  C     C_3   0.977059 0.132940 0.266713 -0.766327
C103  C     C_3   0.391274 0.456470 0.463916 0.133268
C104  C     C_3   0.462461 0.468357 0.421431 -0.278369
C105  C     C_3   0.478078 0.494639 0.470923 -0.873418
C106  C     C_3   0.396805 0.596059 0.393084 0.205987
C107  C     C_3   0.456427 0.582797 0.315075 -0.341223
C108  C     C_3   0.467613 0.621242 0.256480 -0.759067
C109  C     C_3   0.744239 0.928549 0.669020 0.130483
C110  C     C_3   0.793995 0.922526 0.685229 -0.379274
C111  C     C_3   0.787024 0.871395 0.723549 -0.854034
C112  C     C_R   0.849560 0.249628 0.301206 0.811910
C113  C     C_3   0.987537 0.800966 0.466957 0.416475
C114  C     C_3   0.786933 0.048988 0.639039 0.159216
C115  C     C_3   0.800165 0.103378 0.653558 -0.270962
C116  C     C_3   0.810832 0.103519 0.714317 -1.051376
C117  C     C_3   0.245752 0.429208 0.668543 0.136202
C118  C     C_3   0.295836 0.422883 0.684246 -0.386055
C119  C     C_3   0.290630 0.370801 0.719608 -0.841686
C120  C     C_3   0.288837 0.549468 0.638436 0.153469
C121  C     C_3   0.305612 0.603382 0.650285 -0.278521
C122  C     C_3   0.313903 0.603760 0.712992 -1.029393
C123  C     C_3   0.492334 0.641103 0.626798 0.076159
C124  C     C_3   0.452920 0.699312 0.533589 -0.518405
C125  C     C_3   0.467194 0.637437 0.708441 -0.284129
C126  C     C_3   0.469240 0.581968 0.729884 -0.901060
C127  C     C_3   0.457790 0.224496 0.699101 0.093204
C128  C     C_3   0.447176 0.175911 0.743874 -0.339477
C129  C     C_3   0.408551 0.187387 0.827010 -0.904074
C130  C     C_3   0.973993 0.173741 0.669388 0.062260
C131  C     C_3   0.962312 0.186167 0.743915 -0.280201
C132  C     C_3   0.945363 0.137765 0.791028 -0.871316
C133  C     C_3   0.969208 0.724755 0.694057 0.085782
C134  C     C_3   0.961622 0.677073 0.738952 -0.344477
C135  C     C_3   0.430089 0.243544 0.581010 -0.526165
C136  C     C_3   0.932899 0.691162 0.819591 -0.903883
C137  C     C_3   0.939121 0.215222 0.562763 -0.504690
C138  C     C_3   0.930382 0.743276 0.580701 -0.510717
C139  C     C_3   0.468449 0.729278 0.956944 -0.065176
C140  C     C_3   0.484809 0.296747 0.957429 -0.073767
C141  C     C_3   0.966157 0.235061 0.957026 -0.077628
C142  C     C_3   0.987854 0.796704 0.957249 -0.073551
C143  C     C_3   0.528128 0.806124 0.958717 0.330225
C144  C     C_R   0.349276 0.250003 0.301283 0.813164
C145  C     C_3   0.498673 0.199951 0.956373 0.310578
C146  C     C_3   0.033080 0.305512 0.958647 0.335998
C147  C     C_3   0.001654 0.699495 0.956448 0.304044
C148  C     C_3   0.493393 0.803600 0.044876 0.273446
C149  C     C_3   0.462746 0.197219 0.042580 0.309856
C150  C     C_3   0.998993 0.301920 0.044617 0.272404
C151  C     C_3   0.964230 0.697472 0.042953 0.310592
C152  C     C_1   0.389209 0.748868 0.222135 -0.091380
C153  C     C_1   0.388510 0.250206 0.222055 -0.094448
C154  C     C_1   0.889349 0.248799 0.222023 -0.093090
C155  C     C_R   0.349507 0.749659 0.301245 0.811158
C156  C     C_1   0.889195 0.750691 0.222118 -0.091408
C157  C     C_3   0.536441 0.750316 0.926756 -0.146087
C158  C     C_3   0.535697 0.252578 0.926698 -0.103211
C159  C     C_3   0.036010 0.250711 0.926558 -0.133971
C160  C     C_3   0.038465 0.752214 0.926779 -0.104967
C161  C     C_R   0.650179 0.750500 0.698838 0.838026
C162  C     C_R   0.650662 0.250180 0.698750 0.839311
C163  C     C_R   0.150174 0.250541 0.698808 0.833651
C164  C     C_R   0.150793 0.750192 0.698765 0.841439
C165  C     C_3   0.422393 0.734910 0.043971 0.344820
C166  C     C_3   0.512089 0.698047 0.534280 0.375949
C167  C     C_3   0.436124 0.292496 0.044353 0.342241
C168  C     C_3   0.921009 0.240925 0.044111 0.352234
C169  C     C_3   0.938874 0.792889 0.043980 0.341409
C170  C     C_3   0.463095 0.748689 0.073780 -0.166125
C171  C     C_3   0.462064 0.251959 0.073529 -0.152554
C172  C     C_3   0.963124 0.248858 0.073560 -0.164859
C173  C     C_3   0.964068 0.752189 0.073615 -0.148547
C174  C     C_3   0.517663 0.707841 0.041947 0.131096
C175  C     C_3   0.531913 0.267369 0.043308 0.065731
C176  C     C_3   0.013367 0.204277 0.041134 0.130126
C177  C     C_3   0.489547 0.250783 0.581352 0.339283
C178  C     C_3   0.034060 0.766980 0.043850 0.051325
C179  C     C_3   0.567284 0.714246 0.955576 0.529607
C180  C     C_3   0.577742 0.261211 0.956322 0.513436
C181  C     C_3   0.063319 0.210310 0.954824 0.527386
C182  C     C_3   0.080473 0.760677 0.956627 0.522660
C183  C     C_1   0.422496 0.748397 0.155439 0.123376
C184  C     C_1   0.421348 0.250954 0.155306 0.137080
C185  C     C_1   0.922660 0.248365 0.155281 0.121947
C186  C     C_1   0.922690 0.751457 0.155388 0.141304
C187  C     C_1   0.576111 0.751519 0.844929 0.105354
C188  C     C_3   0.000485 0.210754 0.558603 0.354253
C189  C     C_1   0.577031 0.252116 0.844813 0.139369
C190  C     C_1   0.075901 0.251965 0.844799 0.114225
C191  C     C_1   0.079207 0.751876 0.844874 0.137099
C192  C     C_1   0.609584 0.751490 0.778103 -0.118458
C193  C     C_1   0.610972 0.251078 0.778032 -0.118036
C194  C     C_1   0.109497 0.251762 0.778012 -0.127155
C195  C     C_1   0.112013 0.751161 0.778069 -0.108646
C196  C     C_3   0.816103 0.969182 0.427919 0.735322
C197  C     C_3   0.814011 0.030935 0.426925 0.767413
C198  C     C_3   0.317898 0.469830 0.426997 0.728226
C199  C     C_3   0.989933 0.750081 0.580807 0.336961
C200  C     C_3   0.315729 0.531772 0.426991 0.773189
C201  C     C_3   0.696495 0.968760 0.494265 -0.475059
C202  C     C_3   0.689595 0.027918 0.504461 -0.574368
C203  C     C_3   0.198142 0.468992 0.493387 -0.476313
C204  C     C_3   0.191165 0.528061 0.503812 -0.578355
C205  C     C_3   0.730750 0.969920 0.580921 0.490012
C206  C     C_3   0.736958 0.031428 0.576437 0.549576
C207  C     C_3   0.232220 0.470032 0.580222 0.490908
C208  C     C_3   0.238339 0.531595 0.576178 0.550094
C209  C     C_R   0.749907 0.608649 0.500088 0.825612
C210  C     C_3   0.551787 0.748598 0.498740 -0.127604
C211  C     C_R   0.749944 0.391364 0.500042 0.844098
C212  C     C_R   0.249926 0.108646 0.500121 0.833925
C213  C     C_R   0.249956 0.891360 0.500054 0.844454
C214  C     C_3   0.750165 0.948860 0.501558 -0.203521
C215  C     C_3   0.747178 0.050688 0.501178 -0.198444
C216  C     C_3   0.251726 0.449071 0.500629 -0.202270
C217  C     C_3   0.248516 0.550904 0.500936 -0.197151
C218  C     C_3   0.775979 0.529624 0.423189 -0.478243
C219  C     C_3   0.775978 0.469979 0.423133 -0.456812
C220  C     C_3   0.276450 0.029618 0.423088 -0.474843
H1    H     H_    0.537758 0.832003 0.516493 0.197707
H2    H     H_    0.461133 0.199728 0.946286 0.070722
H3    H     H_    0.606837 0.867108 0.093228 0.235552
H4    H     H_    0.531958 0.934192 0.185161 0.247498
H5    H     H_    0.569515 0.898006 0.219026 0.301322
H6    H     H_    0.488136 0.884207 0.254215 0.283229
H7    H     H_    0.494484 0.083129 0.073852 0.173966
H8    H     H_    0.437410 0.102448 0.058007 0.102014
H9    H     H_    0.431409 0.127313 0.199128 0.265017
H10   H     H_    0.371688 0.143947 0.185011 0.222340
H11   H     H_    0.354919 0.049803 0.173306 0.274748
H12   H     H_    0.339978 0.065565 0.261550 0.269855
H13   H     H_    0.003401 0.330037 0.948724 0.098112
H14   H     H_    0.413017 0.033610 0.190902 0.259385
H15   H     H_    0.974925 0.333769 0.168343 0.140618
H16   H     H_    0.026950 0.382010 0.100529 0.110820
H17   H     H_    0.067338 0.296867 0.161784 0.285019
H18   H     H_    0.117782 0.346801 0.097068 0.239017
H19   H     H_    0.048884 0.414200 0.193230 0.248415
H20   H     H_    0.080577 0.369291 0.225826 0.303292
H21   H     H_    0.998794 0.363664 0.257996 0.287736
H22   H     H_    0.991666 0.582997 0.078330 0.174015
H23   H     H_    0.936495 0.603084 0.059829 0.102609
H24   H     H_    0.965254 0.698457 0.944553 0.070576
H25   H     H_    0.927705 0.628682 0.202524 0.264787
H26   H     H_    0.869804 0.645970 0.185690 0.221994
H27   H     H_    0.851364 0.551984 0.175390 0.275853
H28   H     H_    0.834698 0.568493 0.264287 0.267301
H29   H     H_    0.907462 0.535218 0.195900 0.261381
H30   H     H_    0.693367 0.774314 0.846996 0.170160
H31   H     H_    0.673259 0.712648 0.830005 0.137566
H32   H     H_    0.742492 0.733432 0.902280 0.246322
H33   H     H_    0.716043 0.670598 0.895183 0.272046
H34   H     H_    0.782013 0.679763 0.755926 0.294781
H35   H     H_    0.454730 0.833097 0.069671 0.049846
H36   H     H_    0.828571 0.683832 0.791988 0.283028
H37   H     H_    0.809690 0.742050 0.763966 0.250872
H38   H     H_    0.686599 0.190031 0.943858 0.184776
H39   H     H_    0.680119 0.258047 0.949009 0.186005
H40   H     H_    0.725844 0.187749 0.812389 0.237535
H41   H     H_    0.719330 0.256400 0.810589 0.271122
H42   H     H_    0.797141 0.267540 0.843203 0.306399
H43   H     H_    0.830144 0.232769 0.757441 0.273387
H44   H     H_    0.805592 0.197944 0.840645 0.260224
H45   H     H_    0.202893 0.257102 0.847768 0.160799
H46   H     H_    0.412430 0.186122 0.067377 0.063660
H47   H     H_    0.169816 0.204574 0.829307 0.135980
H48   H     H_    0.235384 0.201512 0.908631 0.239458
H49   H     H_    0.192393 0.147387 0.906945 0.280612
H50   H     H_    0.263253 0.147399 0.767630 0.304052
H51   H     H_    0.307269 0.139847 0.806662 0.284452
H52   H     H_    0.306942 0.201582 0.769073 0.244721
H53   H     H_    0.181838 0.689510 0.956987 0.192048
H54   H     H_    0.178689 0.757849 0.956691 0.184492
H55   H     H_    0.231332 0.684636 0.821565 0.239237
H56   H     H_    0.231037 0.753753 0.816437 0.283214
H57   H     H_    0.963640 0.334069 0.070046 0.048100
H58   H     H_    0.299952 0.759921 0.861840 0.305195
H59   H     H_    0.336622 0.722233 0.777760 0.286060
H60   H     H_    0.301084 0.690046 0.865542 0.259044
H61   H     H_    0.832392 0.888394 0.301352 0.170299
H62   H     H_    0.859931 0.880737 0.357413 0.155431
H63   H     H_    0.916033 0.945041 0.214760 0.234626
H64   H     H_    0.939799 0.958479 0.274799 0.257460
H65   H     H_    0.013940 0.897452 0.171438 0.286610
H66   H     H_    0.949840 0.851594 0.206554 0.267739
H67   H     H_    0.977798 0.869036 0.261897 0.293885
H68   H     H_    0.913938 0.687115 0.066636 0.064203
H69   H     H_    0.755191 0.083289 0.361798 0.184811
H70   H     H_    0.756966 0.013616 0.353736 0.184941
H71   H     H_    0.853065 0.089386 0.234778 0.245391
H72   H     H_    0.854429 0.020124 0.225965 0.244465
H73   H     H_    0.748255 0.022591 0.246765 0.262393
H74   H     H_    0.806953 0.061132 0.168100 0.298541
H75   H     H_    0.747489 0.092340 0.254782 0.275400
H76   H     H_    0.331298 0.388407 0.303364 0.171788
H77   H     H_    0.359447 0.380961 0.358939 0.154098
H78   H     H_    0.417107 0.443065 0.214173 0.235510
H79   H     H_    0.497269 0.795739 0.599922 0.246546
H80   H     H_    0.442706 0.454956 0.272808 0.255024
H81   H     H_    0.512879 0.392003 0.171081 0.287864
H82   H     H_    0.446289 0.348756 0.207061 0.266093
H83   H     H_    0.475386 0.363796 0.261916 0.293468
H84   H     H_    0.257179 0.583858 0.359535 0.183051
H85   H     H_    0.259141 0.514330 0.354791 0.185299
H86   H     H_    0.352079 0.589559 0.232844 0.240419
H87   H     H_    0.360264 0.520338 0.226791 0.247155
H88   H     H_    0.255429 0.511987 0.245447 0.262376
H89   H     H_    0.310331 0.551836 0.166351 0.298992
H90   H     H_    0.544987 0.164503 0.496965 0.251812
H91   H     H_    0.247048 0.581659 0.252186 0.273597
H92   H     H_    0.878956 0.920630 0.496243 0.230825
H93   H     H_    0.864842 0.988276 0.502823 0.248830
H94   H     H_    0.988505 0.931742 0.398736 0.278545
H95   H     H_    0.976377 0.993155 0.372834 0.239896
H96   H     H_    0.954764 0.033894 0.486703 0.274487
H97   H     H_    0.029916 0.000461 0.436766 0.287765
H98   H     H_    0.961176 0.972091 0.519406 0.283230
H99   H     H_    0.898693 0.121316 0.429360 0.176360
H100  H     H_    0.860915 0.121559 0.385257 0.135295
H101  H     H_    0.001394 0.313759 0.583266 0.250276
H102  H     H_    0.991967 0.077255 0.327407 0.250913
H103  H     H_    0.950609 0.052971 0.290809 0.249015
H104  H     H_    0.944442 0.139080 0.250231 0.250741
H105  H     H_    0.025652 0.125475 0.216105 0.302714
H106  H     H_    0.977972 0.168365 0.294328 0.297708
H107  H     H_    0.380407 0.419948 0.494683 0.230955
H108  H     H_    0.365923 0.487589 0.503107 0.249922
H109  H     H_    0.490259 0.432221 0.398208 0.279170
H110  H     H_    0.477815 0.494294 0.374028 0.234130
H111  H     H_    0.455337 0.533323 0.488754 0.252977
H112  H     H_    0.594676 0.192529 0.407604 0.218045
H113  H     H_    0.046613 0.664618 0.494391 0.252871
H114  H     H_    0.530335 0.499684 0.439388 0.281750
H115  H     H_    0.460952 0.471059 0.520994 0.291148
H116  H     H_    0.411713 0.616661 0.424569 0.148107
H117  H     H_    0.365427 0.623621 0.390456 0.137026
H118  H     H_    0.498756 0.582128 0.316169 0.228337
H119  H     H_    0.451839 0.543731 0.297801 0.247821
H120  H     H_    0.427961 0.619546 0.250668 0.252646
H121  H     H_    0.512429 0.611361 0.202065 0.289266
H122  H     H_    0.471148 0.661263 0.271738 0.289588
H123  H     H_    0.722868 0.890333 0.672751 0.228380
H124  H     H_    0.495421 0.669053 0.053975 0.153948
H125  H     H_    0.706721 0.954300 0.712672 0.148094
H126  H     H_    0.842472 0.925274 0.633034 0.276035
H127  H     H_    0.789102 0.954660 0.721723 0.185911
H128  H     H_    0.739566 0.868961 0.777712 0.248645
H129  H     H_    0.824109 0.868720 0.733737 0.272483
H130  H     H_    0.792947 0.838329 0.687859 0.286511
H131  H     H_    0.824962 0.023311 0.630221 0.152753
H132  H     H_    0.741191 0.035082 0.688739 0.155805
H133  H     H_    0.843304 0.118538 0.601513 0.240774
H134  H     H_    0.759602 0.129089 0.670258 0.266943
H135  H     H_    0.531379 0.308615 0.057414 0.162496
H136  H     H_    0.767219 0.090402 0.767818 0.285034
H137  H     H_    0.822602 0.143234 0.721339 0.276518
H138  H     H_    0.851149 0.077883 0.698814 0.269321
H139  H     H_    0.223498 0.391210 0.673421 0.227239
H140  H     H_    0.208920 0.455660 0.711551 0.146776
H141  H     H_    0.344211 0.427101 0.632169 0.274271
H142  H     H_    0.290051 0.454042 0.722479 0.183980
H143  H     H_    0.243754 0.367114 0.774211 0.249037
H144  H     H_    0.328531 0.367725 0.728408 0.270391
H145  H     H_    0.296502 0.338670 0.682668 0.289147
H146  H     H_    0.987293 0.167322 0.053078 0.157193
H147  H     H_    0.325566 0.522559 0.630377 0.149642
H148  H     H_    0.242531 0.537255 0.688899 0.157202
H149  H     H_    0.350760 0.616146 0.598193 0.223731
H150  H     H_    0.267537 0.630994 0.663700 0.273132
H151  H     H_    0.268342 0.593759 0.766565 0.281202
H152  H     H_    0.329158 0.642793 0.717546 0.284416
H153  H     H_    0.350944 0.575627 0.701358 0.264419
H154  H     H_    0.541710 0.625564 0.592082 0.152914
H155  H     H_    0.461473 0.617460 0.617559 0.128680
H156  H     H_    0.496540 0.662280 0.718603 0.260926
H157  H     H_    0.034043 0.808240 0.057547 0.163575
H158  H     H_    0.417361 0.651533 0.743962 0.228359
H159  H     H_    0.439635 0.556479 0.720974 0.256891
H160  H     H_    0.450370 0.580576 0.789526 0.291350
H161  H     H_    0.518957 0.567503 0.696172 0.264719
H162  H     H_    0.410658 0.241564 0.720066 0.134415
H163  H     H_    0.485952 0.252883 0.706734 0.174446
H164  H     H_    0.421643 0.146694 0.733514 0.249021
H165  H     H_    0.493920 0.159416 0.725095 0.230012
H166  H     H_    0.437680 0.210268 0.839199 0.292959
H167  H     H_    0.394694 0.150730 0.858619 0.266578
H168  H     H_    0.473537 0.687602 0.942634 0.213458
H169  H     H_    0.364547 0.208983 0.845879 0.285660
H170  H     H_    0.015688 0.147344 0.637921 0.155771
H171  H     H_    0.931381 0.154240 0.679270 0.138355
H172  H     H_    0.005812 0.203909 0.733936 0.258923
H173  H     H_    0.922982 0.214510 0.774914 0.256701
H174  H     H_    0.901074 0.120086 0.803178 0.259140
H175  H     H_    0.937609 0.148161 0.844444 0.301142
H176  H     H_    0.984652 0.109222 0.761484 0.267751
H177  H     H_    0.922283 0.744234 0.721638 0.147342
H178  H     H_    0.003645 0.751771 0.692249 0.173583
H179  H     H_    0.509935 0.334218 0.944275 0.233580
H180  H     H_    0.930472 0.648444 0.737168 0.250573
H181  H     H_    0.008845 0.658828 0.713824 0.232124
H182  H     H_    0.968122 0.713536 0.822082 0.283105
H183  H     H_    0.920551 0.655666 0.853210 0.266031
H184  H     H_    0.888907 0.714328 0.844033 0.294440
H185  H     H_    0.966937 0.193823 0.942650 0.207837
H186  H     H_    0.013465 0.833933 0.944109 0.232767
H187  H     H_    0.705335 0.957484 0.440770 0.240932
H188  H     H_    0.054229 0.335676 0.490617 0.209934
H189  H     H_    0.681601 0.045669 0.465509 0.205324
H190  H     H_    0.207043 0.457684 0.439868 0.239736
H191  H     H_    0.183269 0.545965 0.464827 0.206532
H192  H     H_    0.649798 0.950032 0.533737 0.253233
H193  H     H_    0.644132 0.036353 0.558752 0.276681
H194  H     H_    0.151446 0.450254 0.532889 0.253663
H195  H     H_    0.145635 0.536384 0.558110 0.276517
H196  H     H_    0.825315 0.543812 0.381969 0.198862
H197  H     H_    0.825273 0.455824 0.381754 0.193960
H198  H     H_    0.325875 0.043742 0.382182 0.197720
H199  H     H_    0.095391 0.693811 0.405795 0.217280
H200  H     H_    0.325636 0.955767 0.381843 0.193160
H201  H     H_    0.746335 0.543782 0.405343 0.194053
H202  H     H_    0.746260 0.455461 0.405353 0.209579
H203  H     H_    0.247151 0.043847 0.404802 0.200286
H204  H     H_    0.246750 0.955519 0.405061 0.210263
H205  H     H_    0.842402 0.543557 0.481979 0.151390
H206  H     H_    0.842409 0.457133 0.482059 0.146296
H207  H     H_    0.342174 0.043598 0.482786 0.152312
H208  H     H_    0.342266 0.957162 0.482556 0.145976
H209  H     H_    0.660456 0.543981 0.614246 0.225480
H210  H     H_    0.452709 0.664471 0.504309 0.171613
H211  H     H_    0.660442 0.456229 0.614144 0.226802
H212  H     H_    0.160186 0.044000 0.613946 0.225795
H213  H     H_    0.160317 0.956262 0.613946 0.227230
H214  H     H_    0.650077 0.543505 0.541136 0.175084
H215  H     H_    0.650180 0.456075 0.540924 0.204657
H216  H     H_    0.150397 0.043430 0.540349 0.184993
H217  H     H_    0.150363 0.956012 0.540475 0.206609
H218  H     H_    0.596402 0.790983 0.395976 0.201638
H219  H     H_    0.588706 0.283712 0.392961 0.193473
H220  H     H_    0.093556 0.275681 0.388806 0.201791
H221  H     H_    0.393047 0.271916 0.619553 0.196207
H222  H     H_    0.088715 0.784841 0.393136 0.192233
H223  H     H_    0.542926 0.665159 0.498512 0.103055
H224  H     H_    0.487670 0.289827 0.604351 0.147869
H225  H     H_    0.021619 0.171659 0.536531 0.127969
H226  H     H_    0.987700 0.788965 0.604487 0.143161
H227  H     H_    0.409381 0.695161 0.591233 0.250240
H228  H     H_    0.407476 0.205541 0.605208 0.241644
H229  H     H_    0.899655 0.230209 0.618038 0.240153
H230  H     H_    0.907560 0.705315 0.604799 0.247003
H231  H     H_    0.620110 0.900916 0.932121 0.182118
H232  H     H_    0.923508 0.175899 0.560347 0.192838
H233  H     H_    0.535904 0.898889 0.979621 0.107367
H234  H     H_    0.633709 0.892293 0.809228 0.231025
H235  H     H_    0.548865 0.896448 0.859143 0.246629
H236  H     H_    0.549981 0.982897 0.910701 0.262659
H237  H     H_    0.598332 0.982360 0.810556 0.305736
H238  H     H_    0.635793 0.979250 0.857883 0.257360
H239  H     H_    0.582076 0.113448 0.827045 0.209214
H240  H     H_    0.527882 0.160245 0.835743 0.122925
H241  H     H_    0.491955 0.064239 0.936119 0.229034
H242  H     H_    0.436472 0.109695 0.942418 0.216927
H243  H     H_    0.893500 0.771674 0.619471 0.196938
H244  H     H_    0.475759 0.086105 0.811200 0.266218
H245  H     H_    0.443296 0.031716 0.873593 0.272520
H246  H     H_    0.528128 0.039143 0.808562 0.300641
H247  H     H_    0.135063 0.393659 0.926676 0.182055
H248  H     H_    0.050347 0.395950 0.981406 0.109438
H249  H     H_    0.138470 0.390302 0.809816 0.232330
H250  H     H_    0.053728 0.398255 0.866346 0.245729
H251  H     H_    0.064372 0.481934 0.916232 0.264755
H252  H     H_    0.107087 0.482530 0.816608 0.296068
H253  H     H_    0.150073 0.474638 0.856866 0.258591
H254  H     H_    0.497174 0.827484 0.947528 0.099115
H255  H     H_    0.088402 0.611967 0.829912 0.207010
H256  H     H_    0.034790 0.657547 0.835151 0.121635
H257  H     H_    0.997770 0.562857 0.938117 0.231252
H258  H     H_    0.942487 0.607134 0.941662 0.215996
H259  H     H_    0.985881 0.581714 0.809135 0.268987
H260  H     H_    0.951626 0.528372 0.873360 0.273342
H261  H     H_    0.036655 0.535416 0.810911 0.299006
H262  H     H_    0.465803 0.840017 0.169350 0.142654
H263  H     H_    0.510085 0.889536 0.099765 0.107273
H264  H     H_    0.562787 0.817501 0.162086 0.282716
O1    O     O_3   0.750010 0.750010 0.500000 -0.510055
O2    O     O_R   0.740870 0.133130 0.457020 -0.686242
O3    O     O_R   0.240870 0.366870 0.457020 -0.664862
O4    O     O_R   0.240870 0.633130 0.457020 -0.682000
O5    O     O_R   0.862620 0.719400 0.336030 -0.611089
O6    O     O_R   0.862620 0.280600 0.336030 -0.634652
O7    O     O_R   0.362620 0.219400 0.336030 -0.610224
O8    O     O_R   0.362620 0.780600 0.336030 -0.631870
O9    O     O_R   0.698690 0.780630 0.663960 -0.665968
O10   O     O_R   0.698690 0.219370 0.663960 -0.641885
O11   O     O_R   0.198690 0.280630 0.663960 -0.660330
O12   O     O_3   0.750010 0.249990 0.500000 -0.507269
O13   O     O_R   0.198690 0.719370 0.663960 -0.633430
O14   O     O_R   0.801340 0.780670 0.336040 -0.634517
O15   O     O_R   0.801340 0.219330 0.336040 -0.629467
O16   O     O_R   0.301340 0.280670 0.336040 -0.636317
O17   O     O_R   0.301340 0.719330 0.336040 -0.629116
O18   O     O_R   0.637410 0.719360 0.663970 -0.614505
O19   O     O_R   0.637410 0.280640 0.663970 -0.618342
O20   O     O_R   0.137410 0.219360 0.663970 -0.628862
O21   O     O_R   0.137410 0.780640 0.663970 -0.624093
O22   O     O_R   0.802130 0.633170 0.457010 -0.627759
O23   O     O_3   0.250010 0.250010 0.500000 -0.508906
O24   O     O_R   0.802130 0.366830 0.457010 -0.632843
O25   O     O_R   0.302130 0.133170 0.457010 -0.627856
O26   O     O_R   0.302130 0.866830 0.457010 -0.633473
O27   O     O_R   0.759170 0.866860 0.542980 -0.608084
O28   O     O_R   0.759170 0.133140 0.542980 -0.595378
O29   O     O_R   0.259170 0.366860 0.542980 -0.606105
O30   O     O_R   0.259170 0.633140 0.542980 -0.597081
O31   O     O_R   0.888360 0.719380 0.456990 -0.574011
O32   O     O_R   0.888360 0.280620 0.456990 -0.570702
O33   O     O_R   0.388360 0.219380 0.456990 -0.574476
O34   O     O_3   0.250010 0.749990 0.500000 -0.508762
O35   O     O_R   0.388360 0.780620 0.456990 -0.571050
O36   O     O_R   0.654640 0.780660 0.457030 -0.631525
O37   O     O_R   0.654640 0.219340 0.457030 -0.655192
O38   O     O_R   0.154640 0.280660 0.457030 -0.634462
O39   O     O_R   0.154640 0.719340 0.457030 -0.654139
O40   O     O_R   0.845390 0.780640 0.542970 -0.630404
O41   O     O_R   0.845390 0.219360 0.542970 -0.666102
O42   O     O_R   0.345390 0.280640 0.542970 -0.632731
O43   O     O_R   0.345390 0.719360 0.542970 -0.660007
O44   O     O_R   0.611660 0.719380 0.543010 -0.618111
O45   O     O_R   0.697880 0.633160 0.542990 -0.649051
O46   O     O_R   0.611660 0.280620 0.543010 -0.618284
O47   O     O_R   0.111660 0.219380 0.543010 -0.624869
O48   O     O_R   0.111660 0.780620 0.543010 -0.624481
O49   O     O_3   0.588113 0.831102 0.922766 -0.586270
O50   O     O_3   0.540529 0.156946 0.921817 -0.553184
O51   O     O_3   0.095126 0.326923 0.921689 -0.579472
O52   O     O_3   0.044149 0.656680 0.923739 -0.548480
O53   O     O_3   0.537382 0.814029 0.062254 -0.521622
O54   O     O_3   0.492557 0.161204 0.061437 -0.521464
O55   O     O_3   0.044517 0.306635 0.060842 -0.519234
O56   O     O_R   0.697880 0.366840 0.542990 -0.620390
O57   O     O_3   0.992180 0.661032 0.063792 -0.522826
O58   O     O_3   0.622965 0.737453 0.943060 -0.521610
O59   O     O_3   0.616359 0.216075 0.936234 -0.549777
O60   O     O_3   0.120865 0.229335 0.942105 -0.520662
O61   O     O_3   0.119517 0.715792 0.936052 -0.549730
O62   O     O_3   0.815999 0.952181 0.365886 -0.679694
O63   O     O_3   0.830272 0.047817 0.355248 -0.653689
O64   O     O_3   0.318340 0.453390 0.364484 -0.682784
O65   O     O_3   0.331862 0.550481 0.356080 -0.651008
O66   O     O_3   0.874252 0.949303 0.414061 -0.689331
O67   O     O_R   0.197880 0.133160 0.542990 -0.643738
O68   O     O_3   0.863518 0.050141 0.431267 -0.664132
O69   O     O_3   0.376243 0.450111 0.412820 -0.690062
O70   O     O_3   0.364841 0.550239 0.432890 -0.669412
O71   O     O_3   0.772868 0.949133 0.596748 -0.684817
O72   O     O_3   0.791346 0.048765 0.572319 -0.626327
O73   O     O_3   0.274306 0.448986 0.595904 -0.684762
O74   O     O_3   0.292773 0.548995 0.572017 -0.624952
O75   O     O_3   0.492212 0.693396 0.608928 -0.595529
O76   O     O_3   0.491731 0.210708 0.623317 -0.638009
O77   O     O_3   0.985980 0.220286 0.630263 -0.611965
O78   O     O_R   0.197880 0.866840 0.542990 -0.619359
O79   O     O_3   0.992339 0.709008 0.621382 -0.635126
O80   O     O_R   0.740870 0.866870 0.457020 -0.661392
Zn1   Zn    Zn3+2 0.675530 0.706240 0.561430 1.005619
Zn2   Zn    Zn3+2 0.763090 0.206230 0.561410 0.982250
Zn3   Zn    Zn3+2 0.263090 0.293770 0.561410 0.991873
Zn4   Zn    Zn3+2 0.263090 0.706230 0.561410 0.991416
Zn5   Zn    Zn3+2 0.736940 0.793790 0.438590 1.000046
Zn6   Zn    Zn3+2 0.736940 0.206210 0.438590 0.975955
Zn7   Zn    Zn3+2 0.236940 0.293790 0.438590 0.999916
Zn8   Zn    Zn3+2 0.236940 0.706210 0.438590 0.977050
Zn9   Zn    Zn3+2 0.675530 0.293760 0.561430 1.043271
Zn10  Zn    Zn3+2 0.175530 0.206240 0.561430 1.004579
Zn11  Zn    Zn3+2 0.175530 0.793760 0.561430 1.038232
Zn12  Zn    Zn3+2 0.824490 0.706250 0.438570 1.059690
Zn13  Zn    Zn3+2 0.824490 0.293750 0.438570 1.039656
Zn14  Zn    Zn3+2 0.324490 0.206250 0.438570 1.062393
Zn15  Zn    Zn3+2 0.324490 0.793750 0.438570 1.045908
Zn16  Zn    Zn3+2 0.763090 0.793770 0.561410 0.991921

loop_
_geom_bond_atom_site_label_1
_geom_bond_atom_site_label_2
_ccdc_geom_bond_type
Br1   C39   S    
C139  C165  S    
C21   C68   S    
O30   Zn4   S    
C109  C110  S    
C181  O60   S    
C99   H99   S    
C173  C186  S    
C63   H16   S    
C17   C214  S    
C52   H251  S    
C171  C184  S    
C88   H75   S    
C2    C31   S    
C198  O69   S    
C66   C67   S    
C155  O17   A    
C134  H181  S    
C211  O56   A    
C123  C125  S    
C144  O7    A    
O31   Zn12  S    
C135  H221  S    
O23   Zn14  S    
C93   H85   S    
Br28  C36   S    
C6    C15   S    
C204  H191  S    
C65   H21   S    
C69   H29   S    
C179  O58   S    
C8    C9    S    
C142  H186  S    
C131  H172  S    
C50   H248  S    
C143  C148  S    
C64   C65   S    
C156  C186  T    
C54   H258  S    
C33   H113  S    
C153  C184  T    
C119  H143  S    
C115  H134  S    
C111  H129  S    
C146  H13   S    
Br23  C41   S    
C75   H44   S    
O12   Zn13  S    
C31   H112  S    
C71   H32   S    
C33   C38   S    
C83   O62   S    
C59   H4    S    
C1    C156  S    
C138  H243  S    
C204  H195  S    
C67   H26   S    
C106  H117  S    
C129  H169  S    
C1    O5    A    
C140  C167  S    
C61   H10   S    
C97   H95   S    
C89   H76   S    
C169  C173  S    
O27   Zn16  S    
C11   H213  S    
C118  H142  S    
C9    H215  S    
C157  C187  S    
C81   H56   S    
C213  O78   A    
Br15  C167  S    
C70   H30   S    
C16   C213  S    
C96   C97   S    
O20   Zn10  S    
Br38  C37   S    
O32   Zn13  S    
C96   H92   S    
C164  O13   A    
Br14  C165  S    
C92   H83   S    
C141  C168  S    
C85   H67   S    
C30   C34   S    
C127  C128  S    
C91   C92   S    
O28   Zn2   S    
Br20  C176  S    
C6    H207  S    
C31   H90   S    
O23   Zn7   S    
C17   O27   A    
Br24  C206  S    
C40   C90   S    
C20   C217  S    
C20   O4    A    
C120  C121  S    
C117  H139  S    
C23   O42   A    
C110  C111  S    
C170  C183  S    
C52   H253  S    
C93   H84   S    
C18   C215  S    
C142  C169  S    
Br32  C5    S    
C62   H11   S    
C150  O55   S    
Br48  C165  S    
C111  H128  S    
C175  C180  S    
O14   Zn5   S    
C127  H163  S    
C3    C16   S    
Br3   C168  S    
O43   Zn4   S    
C128  H164  S    
C22   C57   S    
C105  H114  S    
C110  H126  S    
C121  H149  S    
C80   O61   S    
C150  H57   S    
C107  H119  S    
C23   O33   A    
C130  H171  S    
C65   H19   S    
C176  C181  S    
C133  O79   S    
O35   Zn15  S    
C174  C179  S    
C44   H235  S    
C45   H237  S    
C75   H42   S    
O46   Zn9   S    
C76   H45   S    
C59   H5    S    
O23   Zn3   S    
C116  H137  S    
C58   H264  S    
C50   C51   S    
C58   C59   S    
C107  C108  S    
C102  H106  S    
C201  H187  S    
C137  H229  S    
C13   C32   S    
C46   C135  S    
C136  H184  S    
C25   C35   S    
O1    Zn5   S    
C55   H259  S    
C197  O68   S    
C123  O75   S    
C45   H236  S    
Br6   C140  S    
O13   Zn4   S    
C187  C192  T    
C99   C100  S    
O45   Zn1   S    
C60   H7    S    
C80   C81   S    
C135  C177  S    
C130  C131  S    
C196  C197  S    
C96   O66   S    
C146  C159  S    
C22   O32   A    
C201  C202  S    
C69   H27   S    
C47   O50   S    
C104  H109  S    
C53   H256  S    
C100  C102  S    
C88   H74   S    
C97   C98   S    
C31   C36   S    
C83   H61   S    
C98   H96   S    
C19   O3    A    
C10   H216  S    
O38   Zn7   S    
C19   O29   A    
C30   H1    S    
C5    H206  S    
O22   Zn12  S    
C122  H151  S    
C139  H168  S    
C4    C12   S    
C159  C190  S    
C95   H91   S    
Br13  C182  S    
C147  H24   S    
C147  C160  S    
C22   O41   A    
O56   Zn9   S    
C196  O62   S    
C72   H37   S    
C131  H173  S    
C30   H79   S    
C39   H218  S    
C213  O26   A    
Br29  C37   S    
C146  O51   S    
C98   H97   S    
O1    Zn1   S    
C85   H66   S    
C149  O54   S    
C73   H39   S    
O12   Zn6   S    
C56   O53   S    
O16   Zn7   S    
C74   H40   S    
C163  C194  S    
C26   O44   A    
C160  C191  S    
C109  H123  S    
C29   O48   A    
C147  C151  S    
C26   C210  S    
C41   H220  S    
C103  H107  S    
O44   Zn1   S    
O36   Zn5   S    
C66   H22   S    
C26   O36   A    
Br12  C40   S    
C124  H227  S    
C68   C113  S    
C40   H219  S    
C28   O38   A    
C196  O66   S    
C129  H166  S    
Br8   C142  S    
C43   C44   S    
C84   H63   S    
C86   O63   S    
C178  C182  S    
C149  H46   S    
C120  H148  S    
C74   H41   S    
O48   Zn11  S    
C76   H47   S    
C43   H233  S    
C106  O70   S    
C24   C42   S    
C13   C28   S    
O47   Zn10  S    
C166  H223  S    
C66   O57   S    
C144  C153  S    
C139  C157  S    
C102  H104  S    
C49   H245  S    
C86   H69   S    
C92   H82   S    
C140  H179  S    
C82   H60   S    
O23   Zn10  S    
C126  H160  S    
C48   H241  S    
C94   H86   S    
C123  H155  S    
C114  O72   S    
O40   Zn16  S    
C196  C214  S    
C64   H17   S    
C100  H103  S    
C32   H188  S    
C27   O46   A    
C198  C216  S    
C4    C5    S    
C42   H222  S    
O42   Zn3   S    
Br33  C6    S    
C6    C7    S    
O78   Zn11  S    
C63   H15   S    
Br27  C34   S    
C52   H252  S    
C51   H250  S    
C12   C218  S    
C209  O45   A    
C165  C170  S    
C86   C87   S    
C62   H14   S    
O39   Zn8   S    
C189  C193  T    
C125  H158  S    
O41   Zn2   S    
C53   O52   S    
C95   H89   S    
C105  H111  S    
C25   O43   A    
C134  H180  S    
C96   H93   S    
C202  H189  S    
Br45  C90   S    
C180  O59   S    
C206  O72   S    
O12   Zn2   S    
C54   C55   S    
C29   O39   A    
C134  C136  S    
C211  O24   A    
C161  O9    A    
C207  O73   S    
C145  O50   S    
O7    Zn14  S    
Br46  C101  S    
C104  C105  S    
C55   H261  S    
C147  O52   S    
C115  H133  S    
C44   H234  S    
C75   H43   S    
C89   O64   S    
C14   C211  S    
C116  H136  S    
C197  C215  S    
C208  C217  S    
Br44  C79   S    
C53   C54   S    
C132  H175  S    
C67   H25   S    
C133  H178  S    
C174  H124  S    
C144  O16   A    
C56   C58   S    
Br25  C207  S    
C87   C88   S    
C97   H94   S    
C119  H145  S    
C100  H102  S    
Br21  C178  S    
C89   C91   S    
C56   H263  S    
C140  C158  S    
C117  C118  S    
O34   Zn4   S    
C128  H165  S    
C81   H55   S    
C43   H231  S    
C81   C82   S    
O18   Zn1   S    
C77   H48   S    
C112  C154  S    
C124  C166  S    
C114  H131  S    
C188  O77   S    
C108  H121  S    
C43   O49   S    
C112  O15   A    
C103  H108  S    
C80   H53   S    
C143  C157  S    
C141  H185  S    
Br16  C168  S    
Br42  C101  S    
Br22  C205  S    
C77   H49   S    
O5    Zn12  S    
C148  O53   S    
C82   H58   S    
C106  C107  S    
C35   C124  S    
C63   C64   S    
C67   C69   S    
C47   H240  S    
C103  C104  S    
C18   O2    A    
C7    H208  S    
O4    Zn8   S    
C28   O47   A    
C201  C214  S    
C15   C220  S    
C24   C33   S    
C177  O76   S    
C8    H214  S    
C95   H88   S    
C41   C101  S    
C117  O73   S    
Br2   C167  S    
C99   H100  S    
C8    H209  S    
O1    Zn16  S    
C72   H34   S    
C62   H12   S    
C162  O19   A    
O12   Zn9   S    
C73   O59   S    
C117  H140  S    
C168  C172  S    
C151  O57   S    
Br19  C175  S    
O17   Zn8   S    
C203  C204  S    
C123  H154  S    
C35   C79   S    
C23   C46   S    
C130  O77   S    
C110  H127  S    
C203  H190  S    
C10   C11   S    
C125  C126  S    
Br40  C79   S    
C68   C138  S    
C91   H80   S    
C8    C12   S    
C120  O74   S    
C164  C195  S    
C3    H204  S    
C199  H226  S    
C32   C37   S    
C54   H257  S    
C167  C171  S    
C61   H9    S    
C202  H193  S    
C119  H144  S    
C161  O18   A    
O3    Zn7   S    
C3    C220  S    
O10   Zn2   S    
C111  H130  S    
O80   Zn5   S    
Br9   C179  S    
C212  O67   A    
C36   C46   S    
C32   H101  S    
C116  H138  S    
C4    H205  S    
C164  O21   A    
C112  O6    A    
C70   H31   S    
C20   O30   A    
C151  H68   S    
O24   Zn13  S    
C77   C78   S    
C46   C90   S    
C191  C195  T    
Br5   C139  S    
C83   C84   S    
O1    Zn12  S    
O33   Zn14  S    
C198  O64   S    
C114  C115  S    
C12   C209  S    
C63   O55   S    
C118  H141  S    
C33   H199  S    
C155  O8    A    
C159  C181  S    
C162  C193  S    
C60   H8    S    
O29   Zn3   S    
C148  C170  S    
C71   C72   S    
C218  H201  S    
O34   Zn8   S    
C104  H110  S    
C53   H255  S    
O6    Zn13  S    
Br26  C208  S    
C61   C62   S    
C154  C185  T    
C78   H52   S    
C78   H51   S    
C141  C159  S    
C173  C178  S    
C44   C45   S    
O34   Zn11  S    
C157  C179  S    
C158  C189  S    
C200  C217  S    
Br18  C174  S    
C122  H152  S    
C202  C215  S    
C219  H202  S    
C171  C175  S    
C131  C132  S    
Br47  C113  S    
O19   Zn9   S    
C137  C188  S    
C207  C216  S    
C201  H192  S    
C34   C35   S    
C138  H230  S    
C200  O70   S    
C94   C95   S    
Br7   C141  S    
C2    C177  S    
Br39  C38   S    
Br41  C90   S    
C149  C171  S    
C178  H157  S    
C72   H36   S    
C219  H197  S    
C98   H98   S    
C205  C214  S    
C50   H247  S    
C127  O76   S    
C103  O69   S    
C73   H38   S    
C56   H262  S    
C135  H228  S    
C121  C122  S    
C2    C27   S    
C115  C116  S    
C122  H153  S    
C39   C79   S    
C19   C216  S    
C105  H115  S    
C199  O79   S    
C9    C14   S    
O67   Zn10  S    
C146  C150  S    
C121  H150  S    
C21   O31   A    
C91   H78   S    
C66   H23   S    
C130  H170  S    
C132  H174  S    
O26   Zn15  S    
C49   H244  S    
C205  O71   S    
C24   C199  S    
O8    Zn15  S    
C65   H20   S    
C162  O10   A    
C143  H254  S    
C108  H122  S    
C84   H64   S    
C11   H217  S    
C133  C134  S    
C175  H135  S    
C45   H238  S    
C38   C68   S    
C99   O68   S    
C9    H211  S    
C57   C137  S    
C59   H6    S    
C218  H196  S    
C70   C71   S    
C177  H224  S    
O25   Zn14  S    
Br36  C34   S    
C84   C85   S    
C108  H120  S    
C102  H105  S    
Br37  C36   S    
C86   H70   S    
C152  C183  T    
C60   C61   S    
Br30  C38   S    
C136  H183  S    
C2    C40   S    
C203  C216  S    
C55   H260  S    
O37   Zn6   S    
C126  H161  S    
C48   H242  S    
C94   H87   S    
O34   Zn15  S    
Br10  C180  S    
C145  H2    S    
C64   H18   S    
C50   O51   S    
C27   O37   A    
C37   C57   S    
C39   C210  S    
C138  C199  S    
C148  H35   S    
C13   C41   S    
C170  C174  S    
C30   C210  S    
C25   O35   A    
C198  C200  S    
C124  H210  S    
C69   H28   S    
Br35  C7    S    
C209  O22   A    
C109  O71   S    
C203  H194  S    
C88   H73   S    
C208  O74   S    
C78   H50   S    
C83   H62   S    
C136  H182  S    
C60   O54   S    
C200  O65   S    
O2    Zn6   S    
C76   O60   S    
O11   Zn3   S    
Br34  C42   S    
C24   C29   S    
C205  C206  S    
C89   H77   S    
C14   C219  S    
C109  H125  S    
C5    C14   S    
C204  C217  S    
C87   H71   S    
C51   C52   S    
C197  O63   S    
C161  C192  S    
C18   O28   A    
C48   C49   S    
C87   H72   S    
C73   C74   S    
C51   H249  S    
C71   H33   S    
C15   C212  S    
C151  C173  S    
Br43  C113  S    
C142  C160  S    
C128  C129  S    
O9    Zn16  S    
C206  C215  S    
C158  C180  S    
C118  C119  S    
C125  H156  S    
C127  H162  S    
C166  O75   S    
C207  C208  S    
C172  C176  S    
Br17  C169  S    
C188  H225  S    
C93   O65   S    
C10   C15   S    
C107  H118  S    
C145  C158  S    
C132  H176  S    
C133  H177  S    
C3    H200  S    
C150  C172  S    
C17   O80   A    
C129  H167  S    
C176  H146  S    
C182  O61   S    
C7    C16   S    
C57   C101  S    
C163  O20   A    
C190  C194  T    
C120  H147  S    
Br31  C4    S    
C220  H198  S    
O15   Zn6   S    
C106  H116  S    
C93   C94   S    
C21   O40   A    
C114  H132  S    
C1    O14   A    
C152  C155  S    
C145  C149  S    
C70   O58   S    
C80   H54   S    
C49   H246  S    
C137  H232  S    
C212  O25   A    
C92   H81   S    
C218  C219  S    
C85   H65   S    
C82   H59   S    
C11   C16   S    
C42   C113  S    
C58   H3    S    
C163  O11   A    
C126  H159  S    
Br11  C181  S    
Br4   C169  S    
O21   Zn11  S    
C47   H239  S    
C47   C48   S    
C13   C188  S    
C10   H212  S    
C166  C210  S    
C172  C185  S    
C220  H203  S    
C74   C75   S    
C143  O49   S    
C160  C182  S    
C76   C77   S    
