data_mof_unit_18445.cif
_audit_creation_date              2012-12-10T20:42:41-0500
_audit_creation_method            fapswitch 2.2
_symmetry_space_group_name_H-M    P1
_symmetry_Int_Tables_number       1
_space_group_crystal_system       triclinic
_cell_length_a                    8.90764
_cell_length_b                    10.682587
_cell_length_c                    9.893007
_cell_angle_alpha                 89.945384
_cell_angle_beta                  89.79635
_cell_angle_gamma                 90.021358
_cell_volume                      941.378857564

loop_
_atom_site_label
_atom_site_type_symbol
_atom_type_description
_atom_site_fract_x
_atom_site_fract_y
_atom_site_fract_z
_atom_type_partial_charge
C1    C     C_R   0.506101 0.259940 0.499879 0.903652
C2    C     C_R   0.565465 0.934325 0.380224 -0.285709
C3    C     C_R   0.531270 0.871004 0.500583 -0.202821
C4    C     C_R   0.528599 0.935828 0.622355 0.132976
C5    C     C_3   0.420015 0.928618 0.737547 -0.426162
C6    C     C_3   0.420987 0.070463 0.737675 -0.449895
C7    C     C_R   0.369513 0.483722 0.071614 0.052699
C8    C     C_R   0.626068 0.529283 0.070761 0.673688
C9    C     C_R   0.625974 0.528778 0.927314 -0.215934
C10   C     C_R   0.369419 0.484072 0.929353 0.113845
C11   C     C_3   0.266612 0.374168 0.923524 -0.523433
C12   C     C_R   0.218798 0.499885 0.500135 0.917433
C13   C     C_3   0.267772 0.373088 0.077141 0.490573
C14   C     C_R   0.505280 0.739897 0.499946 0.903899
C15   C     C_R   0.781220 0.499989 0.499867 0.924231
C16   C     C_1   0.065429 0.499841 0.500211 -0.134565
C17   C     C_1   0.934595 0.499884 0.499787 -0.125310
C18   C     C_R   0.529314 0.063488 0.622127 0.075499
C19   C     C_R   0.532567 0.128429 0.499977 -0.252307
C20   C     C_R   0.566515 0.063894 0.379502 0.619918
H1    H     H_    0.320919 0.290852 0.878059 0.165726
H2    H     H_    0.320080 0.288641 0.122868 0.110910
H3    H     H_    0.581091 0.884780 0.285705 0.208952
H4    H     H_    0.310000 0.887838 0.708024 0.202669
H5    H     H_    0.471455 0.887159 0.829507 0.216126
H6    H     H_    0.311338 0.112232 0.708693 0.200236
H7    H     H_    0.473622 0.110490 0.829718 0.220032
H8    H     H_    0.728353 0.550352 0.873084 0.190967
H9    H     H_    0.155779 0.398948 0.879661 0.239506
N1    N     N_R   0.499010 0.499140 0.142800 -0.194615
N2    N     N_R   0.499010 0.499180 0.857150 -0.131450
O1    O     O_R   0.500020 0.316790 0.614690 -0.620731
O2    O     O_R   0.500000 0.316760 0.385350 -0.564597
O3    O     O_R   0.285350 0.500020 0.614650 -0.625691
O4    O     O_R   0.285340 0.499980 0.385310 -0.573545
O5    O     O_R   0.500000 0.683240 0.614650 -0.616473
O6    O     O_R   0.499980 0.683210 0.385310 -0.614894
O7    O     O_R   0.714660 0.500020 0.614690 -0.642684
O8    O     O_R   0.714650 0.499980 0.385350 -0.520841
Zn1   Zn    Zn3+2 0.500010 0.500020 0.653130 0.952386
Zn2   Zn    Zn3+2 0.499990 0.499980 0.346870 1.062784
F1    F     F_    0.589031 0.124134 0.260166 -0.650143
F2    F     F_    0.129364 0.403863 0.131760 -0.596085
F3    F     F_    0.754769 0.558705 0.135686 -0.610821

loop_
_geom_bond_atom_site_label_1
_geom_bond_atom_site_label_2
_ccdc_geom_bond_type
C7    C10   A    
C20   F1    S    
C15   O7    A    
O4    Zn2   S    
C3    C14   S    
C19   C20   A    
C6    H7    S    
C7    C13   S    
C8    N1    A    
C2    C3    A    
C1    O2    A    
N1    Zn2   S    
C7    N1    A    
N2    Zn1   S    
C12   O4    A    
O7    Zn1   S    
C11   C13   S    
C15   O8    A    
C6    H6    S    
C5    H4    S    
O3    Zn1   S    
C10   N2    A    
C13   H2    S    
O1    Zn1   S    
O6    Zn2   S    
C5    C6    S    
C6    C18   S    
C5    H5    S    
C1    C19   S    
C16   C17   T    
C10   C11   S    
C9    N2    A    
C12   O3    A    
C3    C4    A    
C8    F3    S    
C13   F2    S    
O5    Zn1   S    
O2    Zn2   S    
C11   H9    S    
O8    Zn2   S    
C18   C19   A    
C2    H3    S    
C15   C17   S    
C8    C9    A    
C14   O5    A    
C2    C20   A    
C4    C18   A    
C11   H1    S    
C1    O1    A    
C12   C16   S    
C9    H8    S    
C4    C5    S    
C14   O6    A    
