data_mof_unit_8482.cif
_audit_creation_date              2012-10-26T20:13:54-0400
_audit_creation_method            fapswitch 2.2
_symmetry_space_group_name_H-M    P1
_symmetry_Int_Tables_number       1
_space_group_crystal_system       triclinic
_cell_length_a                    8.795148
_cell_length_b                    10.821287
_cell_length_c                    9.568389
_cell_angle_alpha                 89.401569
_cell_angle_beta                  97.242215
_cell_angle_gamma                 91.566712
_cell_volume                      903.044258653

loop_
_atom_site_label
_atom_site_type_symbol
_atom_type_description
_atom_site_fract_x
_atom_site_fract_y
_atom_site_fract_z
_atom_type_partial_charge
C1    C     C_R   0.497140 0.262430 0.500060 0.553391
C2    C     C_R   0.569561 0.594862 0.932901 0.149553
C3    C     C_3   0.735951 0.630088 0.946947 -0.285011
C4    C     C_R   0.204271 0.496708 0.465102 0.555583
C5    C     C_3   0.734761 0.631742 0.104949 -0.279381
C6    C     C_R   0.494251 0.737491 0.498627 0.551904
C7    C     C_R   0.795031 0.495640 0.535932 0.546863
C8    C     C_2   0.039138 0.496059 0.448727 -0.119607
C9    C     C_2   0.958473 0.480105 0.558360 0.091829
C10   C     C_R   0.504421 0.062108 0.623725 0.049982
C11   C     C_R   0.480780 0.129224 0.498680 -0.010285
C12   C     C_R   0.425492 0.936533 0.370380 0.104205
C13   C     C_R   0.431176 0.066226 0.372715 -0.153686
C14   C     C_1   0.351504 0.304768 0.846784 0.229864
C15   C     C_3   0.978853 0.331757 0.751794 -0.281744
C16   C     C_3   0.220850 0.826109 0.228576 -0.276545
C17   C     C_R   0.474577 0.870358 0.496110 0.023612
C18   C     C_R   0.500909 0.935254 0.622617 -0.002155
C19   C     C_3   0.629458 0.928305 0.740180 -0.274524
C20   C     C_3   0.634278 0.068583 0.740139 -0.264173
C21   C     C_R   0.569195 0.595010 0.080351 0.174736
C22   C     C_R   0.421901 0.411867 0.067772 -0.025876
C23   C     C_R   0.423354 0.410235 0.919939 0.077362
Cu1   Cu    Cu3+1 0.499990 0.499980 0.640670 0.960631
Cu2   Cu    Cu3+1 0.500010 0.500020 0.359330 0.935224
H1    H     H_    0.982527 0.514333 0.343704 0.075669
H2    H     H_    0.740892 0.109403 0.705598 0.117783
H3    H     H_    0.361892 0.339103 0.118976 0.112795
H4    H     H_    0.024124 0.520605 0.767388 0.243976
H5    H     H_    0.041580 0.315354 0.858027 0.138777
H6    H     H_    0.001084 0.255817 0.680429 0.168394
H7    H     H_    0.855312 0.330071 0.764387 0.149511
H8    H     H_    0.398794 0.924124 0.152702 0.239687
H9    H     H_    0.203790 0.764080 0.318832 0.162165
H10   H     H_    0.139233 0.903067 0.224709 0.122721
H11   H     H_    0.196080 0.771809 0.130109 0.141465
H12   H     H_    0.807287 0.555640 0.912753 0.147256
H13   H     H_    0.758265 0.722606 0.901919 0.116347
H14   H     H_    0.805889 0.558564 0.159408 0.144649
H15   H     H_    0.753687 0.725595 0.151095 0.126768
H16   H     H_    0.400261 0.117150 0.275627 0.123240
H17   H     H_    0.590489 0.888051 0.837339 0.140852
H18   H     H_    0.734007 0.887528 0.707321 0.128960
H19   H     H_    0.600393 0.108442 0.837870 0.148485
N1    N     N_R   0.500980 0.500930 0.148050 -0.239625
N2    N     N_R   0.500990 0.500890 0.852140 -0.247123
N3    N     N_1   0.294670 0.217858 0.790730 -0.336173
N4    N     N_2   0.028530 0.449634 0.697039 -0.479367
N5    N     N_2   0.376850 0.874720 0.241122 -0.490407
O1    O     O_R   0.500000 0.319640 0.618810 -0.486314
O2    O     O_R   0.500020 0.319680 0.381230 -0.520193
O3    O     O_R   0.274830 0.499980 0.591380 -0.452801
O4    O     O_R   0.274850 0.500020 0.353800 -0.519221
O5    O     O_R   0.499980 0.680320 0.618770 -0.509529
O6    O     O_R   0.500000 0.680360 0.381190 -0.464952
O7    O     O_R   0.725150 0.499980 0.646200 -0.514592
O8    O     O_R   0.725170 0.500020 0.408620 -0.520959

loop_
_geom_bond_atom_site_label_1
_geom_bond_atom_site_label_2
_ccdc_geom_bond_type
C14   C23   S    
C12   C17   A    
Cu2   O2    S    
Cu1   O3    S    
C14   N3    T    
C20   H2    S    
C4    O4    A    
Cu1   O7    S    
C8    H1    S    
C1    O1    A    
C19   C20   S    
C1    C11   S    
C19   H17   S    
C6    O6    A    
C4    C8    S    
Cu1   N2    S    
C2    C21   A    
C13   H16   S    
C2    C3    S    
C15   H7    S    
C23   N2    A    
C22   H3    S    
C16   H11   S    
C15   H6    S    
C12   C13   A    
C1    O2    A    
Cu2   O8    S    
C15   N4    S    
C10   C18   A    
C7    O7    A    
C20   H19   S    
C4    O3    A    
C12   N5    S    
C21   N1    A    
C5    H14   S    
C16   H10   S    
Cu1   O1    S    
C10   C11   A    
H4    N4    S    
H8    N5    S    
C16   N5    S    
Cu2   N1    S    
C11   C13   A    
C22   N1    A    
C5    C21   S    
Cu1   Cu2   S    
C3    H12   S    
C9    N4    S    
C17   C18   A    
C18   C19   S    
C15   H5    S    
C5    H15   S    
C7    C9    S    
C6    C17   S    
C22   C23   A    
C16   H9    S    
Cu1   O5    S    
C7    O8    A    
C6    O5    A    
C2    N2    A    
Cu2   O4    S    
Cu2   O6    S    
C3    H13   S    
C10   C20   S    
C8    C9    D    
C3    C5    S    
C19   H18   S    
