data_mof_unit_62279.cif
_audit_creation_date              2012-12-10T19:27:27-0500
_audit_creation_method            fapswitch 2.2
_symmetry_space_group_name_H-M    P1
_symmetry_Int_Tables_number       1
_space_group_crystal_system       triclinic
_cell_length_a                    19.221767
_cell_length_b                    18.66217
_cell_length_c                    18.4346
_cell_angle_alpha                 108.69537
_cell_angle_beta                  109.689919
_cell_angle_gamma                 110.418943
_cell_volume                      5065.03013904

loop_
_atom_site_label
_atom_site_type_symbol
_atom_type_description
_atom_site_fract_x
_atom_site_fract_y
_atom_site_fract_z
_atom_type_partial_charge
C1    C     C_R   0.377953 0.379818 0.497646 0.916119
C2    C     C_R   0.754048 0.583623 0.768310 0.081497
C3    C     C_R   0.819589 0.503977 0.812308 -0.137231
C4    C     C_R   0.760633 0.428792 0.728096 -0.011797
C5    C     C_R   0.683603 0.422203 0.678309 -0.068442
C6    C     C_R   0.684681 0.501846 0.691602 -0.156908
C7    C     C_R   0.774867 0.359993 0.690966 0.211745
C8    C     C_R   0.705530 0.278320 0.619673 -0.271580
C9    C     C_R   0.622596 0.264467 0.586249 0.277861
C10   C     C_R   0.610817 0.336402 0.615772 0.243361
C11   C     C_R   0.245403 0.237979 0.421309 0.126679
C12   C     C_R   0.619619 0.500412 0.621619 0.920408
C13   C     C_R   0.312664 0.314642 0.498613 -0.074603
C14   C     C_R   0.314585 0.327995 0.579164 -0.144145
C15   C     C_R   0.250395 0.263196 0.579572 -0.200533
C16   C     C_R   0.182906 0.186725 0.499111 -0.073197
C17   C     C_R   0.182056 0.177435 0.421311 0.149991
C18   C     C_3   0.135600 0.117504 0.323693 -0.473374
C19   C     C_3   0.207935 0.187536 0.323586 -0.464481
C20   C     C_R   0.314816 0.492604 0.236686 0.136119
C21   C     C_R   0.310234 0.492004 0.310228 -0.125001
C22   C     C_R   0.235768 0.479889 0.314321 -0.205449
C23   C     C_R   0.619779 0.620612 0.500212 0.881450
C24   C     C_R   0.170935 0.478871 0.249627 -0.194539
C25   C     C_R   0.182346 0.492797 0.182967 -0.084868
C26   C     C_R   0.252111 0.494336 0.174322 0.056054
C27   C     C_3   0.315890 0.558240 0.164313 -0.482357
C28   C     C_3   0.385184 0.556519 0.233480 0.079700
C29   C     C_R   0.766519 0.694667 0.529733 -0.012731
C30   C     C_R   0.687080 0.688860 0.504355 -0.054434
C31   C     C_R   0.676818 0.756513 0.494483 -0.189670
C32   C     C_R   0.741701 0.821524 0.495702 -0.187737
C33   C     C_R   0.817259 0.819606 0.509286 -0.164863
C34   C     C_R   0.379691 0.498848 0.378888 0.864760
C35   C     C_R   0.831488 0.760103 0.533082 0.115656
C36   C     C_3   0.860129 0.699586 0.496448 0.500192
C37   C     C_3   0.788363 0.627404 0.492864 -0.519176
C38   C     C_R   0.002893 0.379565 0.883608 0.933202
C39   C     C_R   0.881279 0.499740 0.878489 0.929290
C40   C     C_R   0.000759 0.620850 0.120522 0.880117
C41   C     C_R   0.119346 0.499142 0.120403 0.871358
C42   C     C_R   0.000985 0.119823 0.620861 0.864923
C43   C     C_R   0.118998 0.119505 0.498806 0.893213
C44   C     C_R   0.999700 0.880785 0.378991 0.913316
C45   C     C_R   0.763735 0.666732 0.782164 -0.147625
C46   C     C_R   0.880676 0.880359 0.501519 0.859937
C47   C     C_R   0.934500 0.229105 0.763942 0.160565
C48   C     C_R   0.006036 0.313000 0.821871 -0.088965
C49   C     C_R   0.080821 0.332006 0.815516 -0.180558
C50   C     C_R   0.080119 0.267455 0.749689 -0.199213
C51   C     C_R   0.003986 0.185294 0.689061 -0.071111
C52   C     C_R   0.932934 0.168672 0.698913 0.122009
C53   C     C_3   0.840690 0.103044 0.658992 -0.510270
C54   C     C_3   0.842004 0.172684 0.733183 -0.427639
C55   C     C_R   0.923266 0.678819 0.178534 0.107215
C56   C     C_R   0.825743 0.743128 0.863624 -0.129514
C57   C     C_R   0.000306 0.689496 0.183319 -0.154875
C58   C     C_R   0.076631 0.771332 0.244187 -0.229114
C59   C     C_R   0.077539 0.836622 0.308596 0.235734
C60   C     C_R   0.000844 0.819490 0.310035 -0.158729
C61   C     C_R   0.923477 0.743680 0.240763 0.093862
C62   C     C_3   0.854255 0.678590 0.244232 -0.493677
C63   C     C_3   0.854142 0.606864 0.175526 -0.416732
C64   C     C_R   0.880136 0.738985 0.932262 -0.120704
C65   C     C_R   0.876359 0.659459 0.917803 -0.153068
C66   C     C_R   0.816420 0.582013 0.834044 0.071851
H1    H     H_    0.253060 0.272852 0.641846 0.155283
H2    H     H_    0.135549 0.054711 0.306554 0.237549
H3    H     H_    0.071837 0.110625 0.289263 0.205004
H4    H     H_    0.249324 0.164955 0.306015 0.239307
H5    H     H_    0.186126 0.221580 0.289606 0.196069
H6    H     H_    0.229165 0.474069 0.368583 0.160205
H7    H     H_    0.114857 0.472760 0.254765 0.165321
H8    H     H_    0.307262 0.528712 0.096859 0.231788
H9    H     H_    0.319986 0.623181 0.187898 0.199506
H10   H     H_    0.725557 0.675149 0.731021 0.161087
H11   H     H_    0.429763 0.620234 0.296887 0.122008
H12   H     H_    0.617231 0.756118 0.480945 0.152504
H13   H     H_    0.731680 0.870891 0.482906 0.169446
H14   H     H_    0.852584 0.688220 0.430632 0.041376
H15   H     H_    0.737040 0.573870 0.424068 0.189442
H16   H     H_    0.811708 0.604859 0.539976 0.240785
H17   H     H_    0.138828 0.396189 0.860340 0.168447
H18   H     H_    0.137462 0.282225 0.744589 0.150338
H19   H     H_    0.800231 0.090298 0.591588 0.225278
H20   H     H_    0.831218 0.805706 0.873627 0.141737
H21   H     H_    0.831825 0.043500 0.665013 0.203630
H22   H     H_    0.802386 0.199984 0.708434 0.225090
H23   H     H_    0.833295 0.153230 0.781923 0.205065
H24   H     H_    0.136151 0.782804 0.244770 0.198531
H25   H     H_    0.877169 0.681490 0.309633 0.199775
H26   H     H_    0.793918 0.680290 0.218558 0.218078
H27   H     H_    0.876834 0.568114 0.201167 0.216922
H28   H     H_    0.793722 0.567133 0.110081 0.207879
H29   H     H_    0.927174 0.798040 0.996036 0.143542
H30   H     H_    0.921737 0.660001 0.972323 0.141179
H31   H     H_    0.716051 0.225519 0.590637 0.197462
H32   H     H_    0.366230 0.387027 0.641359 0.176774
O1    O     O_R   0.408400 0.356680 0.448290 -0.584812
O2    O     O_R   0.051700 0.460090 0.908430 -0.596597
O3    O     O_R   0.856640 0.448300 0.908430 -0.615212
O4    O     O_R   0.960090 0.551710 0.908400 -0.595315
O5    O     O_R   0.948250 0.539920 0.091630 -0.622836
O6    O     O_R   0.051690 0.643330 0.091610 -0.630261
O7    O     O_R   0.039870 0.448310 0.091660 -0.628797
O8    O     O_R   0.143310 0.551720 0.091640 -0.626104
O9    O     O_R   0.051740 0.091620 0.643380 -0.624169
O10   O     O_R   0.948300 0.091670 0.539990 -0.614655
O11   O     O_R   0.143340 0.091640 0.551750 -0.591488
O12   O     O_R   0.408370 0.460100 0.551700 -0.632281
O13   O     O_R   0.039900 0.091690 0.448360 -0.631556
O14   O     O_R   0.051700 0.908430 0.460110 -0.572229
O15   O     O_R   0.948260 0.908480 0.356720 -0.629281
O16   O     O_R   0.960100 0.908410 0.551740 -0.588913
O17   O     O_R   0.856660 0.908460 0.448350 -0.624514
O18   O     O_R   0.591630 0.448290 0.539910 -0.594916
O19   O     O_R   0.591590 0.551710 0.643320 -0.632563
O20   O     O_R   0.591630 0.539900 0.448300 -0.603175
O21   O     O_R   0.591600 0.643320 0.551710 -0.637907
O22   O     O_R   0.408410 0.448290 0.356680 -0.595585
O23   O     O_R   0.408370 0.551710 0.460090 -0.624368
O24   O     O_R   0.948260 0.356680 0.908450 -0.624865
Zn1   Zn    Zn3+2 0.500020 0.430950 0.430950 1.048566
Zn2   Zn    Zn3+2 0.499980 0.569050 0.569050 0.972487
Zn3   Zn    Zn3+2 0.930910 0.430960 0.000050 0.975340
Zn4   Zn    Zn3+2 0.069050 0.569060 0.000020 1.006647
Zn5   Zn    Zn3+2 0.069070 0.000020 0.569080 1.064036
Zn6   Zn    Zn3+2 0.930930 0.000080 0.431020 0.977069
Br1   Br    Br    0.528080 0.147605 0.497489 -0.401348
Br2   Br    Br    0.441376 0.502401 0.186580 -0.483850
F1    F     F_    0.940959 0.723459 0.558606 -0.616527
Br3   Br    Br    0.184474 0.945616 0.393933 -0.461284
Br4   Br    Br    0.886846 0.383093 0.712352 -0.513493
Br5   Br    Br    0.498068 0.312569 0.592426 -0.450923

loop_
_geom_bond_atom_site_label_1
_geom_bond_atom_site_label_2
_ccdc_geom_bond_type
O18   Zn1   S    
C19   H5    S    
C35   C36   S    
C1    O1    A    
C23   O20   A    
C50   H18   S    
C7    C8    A    
O15   Zn6   S    
O21   Zn2   S    
C63   H28   S    
C11   C19   S    
C26   C27   S    
C62   C63   S    
C41   O7    A    
C46   O17   A    
C31   H12   S    
C45   H10   S    
O2    Zn4   S    
C36   C37   S    
O19   Zn2   S    
C7    Br4   S    
C6    C12   S    
C5    C6    A    
C24   H7    S    
C18   H2    S    
C15   C16   A    
C17   C18   S    
C18   C19   S    
O23   Zn2   S    
O12   Zn2   S    
O11   Zn5   S    
C65   H30   S    
C47   C48   A    
C45   C56   A    
C8    C9    A    
O14   Zn5   S    
C55   C63   S    
O3    Zn3   S    
C56   C64   A    
C39   O3    A    
C13   C14   A    
C27   H8    S    
C40   O5    A    
C9    C10   A    
C38   C48   S    
O22   Zn1   S    
C42   C51   S    
C18   H3    S    
C3    C39   S    
C59   C60   A    
C21   C22   A    
C33   C46   S    
C37   H15   S    
C2    C6    A    
C43   O13   A    
C4    C7    A    
C27   H9    S    
C22   H6    S    
C14   H32   S    
C2    C45   A    
C34   O22   A    
C59   Br3   S    
C41   O8    A    
C46   O16   A    
C51   C52   A    
C23   C30   S    
C24   C25   A    
C54   H23   S    
C38   O2    A    
C36   H14   S    
C36   F1    S    
C25   C41   S    
C16   C17   A    
C21   C34   S    
C20   C28   S    
C2    C66   A    
C58   C59   A    
C53   C54   S    
O17   Zn6   S    
C62   H26   S    
C60   C61   A    
C8    H31   S    
C29   C30   A    
C1    O12   A    
C40   O6    A    
C56   H20   S    
C31   C32   A    
C15   H1    S    
C62   H25   S    
C50   C51   A    
C53   H21   S    
O10   Zn6   S    
C28   H11   S    
C58   H24   S    
C16   C43   S    
O8    Zn4   S    
C38   O24   A    
C47   C54   S    
C44   O14   A    
C48   C49   A    
C44   O15   A    
C49   C50   A    
C34   O23   A    
C55   C57   A    
C22   C24   A    
C37   H16   S    
C3    C66   A    
C1    C13   S    
C3    C4    A    
O13   Zn6   S    
C52   C53   S    
C39   O4    A    
O1    Zn1   S    
C42   O9    A    
C29   C35   A    
C11   C17   A    
C40   C57   S    
C10   Br5   S    
C64   H29   S    
C4    C5    A    
O4    Zn4   S    
C47   C52   A    
C9    Br1   S    
C63   H27   S    
O7    Zn3   S    
C64   C65   A    
C49   H17   S    
O24   Zn3   S    
C25   C26   A    
O9    Zn5   S    
C5    C10   A    
C32   C33   A    
C32   H13   S    
C54   H22   S    
O16   Zn5   S    
C11   C13   A    
C57   C58   A    
C30   C31   A    
C20   C26   A    
C44   C60   S    
C55   C61   A    
C33   C35   A    
C28   Br2   S    
O20   Zn1   S    
C61   C62   S    
O5    Zn3   S    
C12   O19   A    
O6    Zn4   S    
C20   C21   A    
C65   C66   A    
C29   C37   S    
C27   C28   S    
C14   C15   A    
C23   O21   A    
C53   H19   S    
C43   O11   A    
C19   H4    S    
C42   O10   A    
C12   O18   A    
