data_mof_unit_12307.cif
_audit_creation_date              2012-12-10T20:49:48-0500
_audit_creation_method            fapswitch 2.2
_symmetry_space_group_name_H-M    P1
_symmetry_Int_Tables_number       1
_space_group_crystal_system       triclinic
_cell_length_a                    8.098532
_cell_length_b                    8.936979
_cell_length_c                    16.792427
_cell_angle_alpha                 90.004434
_cell_angle_beta                  85.465554
_cell_angle_gamma                 89.997473
_cell_volume                      1211.57143854

loop_
_atom_site_label
_atom_site_type_symbol
_atom_type_description
_atom_site_fract_x
_atom_site_fract_y
_atom_site_fract_z
_atom_type_partial_charge
C1    C     C_R   0.500003 0.782058 0.499966 0.944754
C2    C     C_R   0.393894 0.374253 0.234332 -0.205856
C3    C     C_R   0.594310 0.441382 0.861942 -0.209426
C4    C     C_R   0.403724 0.314666 0.158292 -0.223117
C5    C     C_R   0.438312 0.421004 0.903282 0.166228
C6    C     C_R   0.551934 0.323924 0.109706 0.169076
C7    C     C_R   0.293277 0.441370 0.863514 0.237182
C8    C     C_R   0.697204 0.376771 0.141339 0.252233
C9    C     C_R   0.306958 0.470121 0.781641 -0.265031
C10   C     C_R   0.686365 0.436386 0.218606 -0.277299
C11   C     C_2   0.426951 0.387797 0.988744 -0.225926
C12   C     C_R   0.500003 0.217940 0.499991 0.940836
C13   C     C_2   0.545255 0.312053 0.023262 -0.237215
C14   C     C_3   0.063926 0.572467 0.930565 -0.822024
C15   C     C_3   0.934931 0.237281 0.087640 -0.819809
C16   C     C_1   0.500002 0.934833 0.499954 -0.197017
C17   C     C_1   0.500007 0.065177 0.499960 -0.193203
C18   C     C_R   0.477550 0.499394 0.653751 0.875134
C19   C     C_R   0.522169 0.491382 0.346565 0.872986
C20   C     C_R   0.463348 0.483644 0.740179 -0.064719
C21   C     C_R   0.533669 0.439753 0.264113 -0.059967
C22   C     C_R   0.606662 0.472271 0.781053 -0.210414
H1    H     H_    0.292622 0.269921 0.135353 0.152797
H2    H     H_    0.045749 0.644509 0.877997 0.243056
H3    H     H_    0.146466 0.630312 0.970480 0.247848
H4    H     H_    0.941765 0.554811 0.963921 0.253912
H5    H     H_    0.929224 0.464852 0.109198 0.226423
H6    H     H_    0.047387 0.247255 0.045685 0.256900
H7    H     H_    0.853574 0.150185 0.064395 0.246125
H8    H     H_    0.972642 0.202088 0.147049 0.239007
H9    H     H_    0.707456 0.434987 0.891973 0.152769
H10   H     H_    0.728700 0.484498 0.750365 0.165981
H11   H     H_    0.276192 0.369012 0.269678 0.169110
H12   H     H_    0.796582 0.480562 0.242761 0.155672
H13   H     H_    0.195124 0.480723 0.750655 0.161746
H14   H     H_    0.649492 0.263705 0.987701 0.175478
H15   H     H_    0.324412 0.437431 0.025146 0.181241
H16   H     H_    0.051710 0.367976 0.874317 0.224810
N1    N     N_1   0.926360 0.500000 0.499990 -0.038046
N2    N     N_1   0.073640 0.500000 0.500010 -0.038660
N3    N     N_2   0.133720 0.429732 0.904970 -0.322224
N4    N     N_2   0.850976 0.380130 0.094056 -0.322275
O1    O     O_R   0.363150 0.714660 0.500000 -0.611750
O2    O     O_R   0.636850 0.285340 0.500000 -0.613718
O3    O     O_R   0.636850 0.714660 0.500000 -0.612582
O4    O     O_R   0.363150 0.285340 0.500000 -0.616025
O5    O     O_R   0.346950 0.500000 0.615800 -0.622965
O6    O     O_R   0.653050 0.500000 0.384200 -0.619317
O7    O     O_R   0.620700 0.500000 0.615800 -0.622935
O8    O     O_R   0.379300 0.500000 0.384200 -0.624083
Zn1   Zn    Zn3+2 0.317220 0.500000 0.500010 0.980883
Zn2   Zn    Zn3+2 0.682780 0.500000 0.499990 0.983414

loop_
_geom_bond_atom_site_label_1
_geom_bond_atom_site_label_2
_ccdc_geom_bond_type
C12   C17   S    
C2    C4    A    
C15   H7    S    
N2    Zn1   S    
C5    C7    A    
C9    C20   A    
C19   O8    A    
O7    Zn2   S    
O1    Zn1   S    
C18   O5    A    
O2    Zn2   S    
C2    C21   A    
N1    Zn2   S    
C10   H12   S    
C1    C16   S    
C14   H4    S    
C6    C13   S    
C3    H9    S    
C11   C13   D    
H5    N4    S    
C1    O3    A    
C15   H6    S    
C22   H10   S    
C13   H14   S    
C14   N3    S    
C2    H11   S    
C4    C6    A    
C19   C21   S    
C20   C22   A    
C5    C11   S    
C18   C20   S    
C7    N3    S    
C14   H3    S    
C9    H13   S    
C7    C9    A    
O6    Zn2   S    
C18   O7    A    
C15   H8    S    
C8    C10   A    
H16   N3    S    
C14   H2    S    
N1    N2    T    
C11   H15   S    
C4    H1    S    
C19   O6    A    
C12   O2    A    
C3    C22   A    
C6    C8    A    
O3    Zn2   S    
O8    Zn1   S    
C10   C21   A    
O4    Zn1   S    
C1    O1    A    
O5    Zn1   S    
C15   N4    S    
C8    N4    S    
C16   C17   T    
C3    C5    A    
C12   O4    A    
