data_mof_unit_52693.cif
_audit_creation_date              2012-12-11T14:15:44-0500
_audit_creation_method            fapswitch 2.2
_symmetry_space_group_name_H-M    P1
_symmetry_Int_Tables_number       1
_space_group_crystal_system       triclinic
_cell_length_a                    11.155419
_cell_length_b                    12.682204
_cell_length_c                    23.502468
_cell_angle_alpha                 90.558923
_cell_angle_beta                  96.655356
_cell_angle_gamma                 68.515282
_cell_volume                      3071.20803599

loop_
_atom_site_label
_atom_site_type_symbol
_atom_type_description
_atom_site_fract_x
_atom_site_fract_y
_atom_site_fract_z
_atom_type_partial_charge
C1    C     C_R   0.116836 0.599122 0.420180 0.552736
C2    C     C_2   0.180320 0.233604 0.226548 -0.121629
C3    C     C_2   0.155245 0.165285 0.262743 -0.122245
C4    C     C_R   0.748796 0.604709 0.404232 0.539891
C5    C     C_1   0.132604 0.198605 0.320605 -0.046981
C6    C     C_1   0.209772 0.198218 0.169619 -0.049163
C7    C     C_1   0.116417 0.231746 0.368448 -0.002515
C8    C     C_1   0.159424 0.744033 0.119773 -0.009783
C9    C     C_2   0.119016 0.673426 0.218661 -0.134412
C10   C     C_2   0.210659 0.653385 0.263597 -0.127006
C11   C     C_1   0.184360 0.630119 0.319679 -0.051347
C12   C     C_R   0.648199 0.565748 0.312061 -0.126860
C13   C     C_1   0.139750 0.710167 0.164144 -0.056829
C14   C     C_1   0.157377 0.614144 0.366176 -0.000362
C15   C     C_1   0.629202 0.756715 0.865057 -0.007287
C16   C     C_R   0.101305 0.282121 0.423405 0.535980
C17   C     C_2   0.700049 0.714053 0.761035 -0.127924
C18   C     C_2   0.614444 0.701300 0.719168 -0.126702
C19   C     C_1   0.652113 0.669036 0.662999 -0.052064
C20   C     C_1   0.664877 0.738342 0.818191 -0.051573
C21   C     C_1   0.690498 0.639818 0.617343 -0.006675
C22   C     C_R   0.202098 0.185561 0.853870 0.007517
C23   C     C_R   0.716463 0.727570 0.318472 -0.131299
C24   C     C_R   0.109154 0.218252 0.639321 0.015939
C25   C     C_R   0.985968 0.211990 0.716833 -0.145366
C26   C     C_R   0.993595 0.221166 0.658721 -0.154885
C27   C     C_R   0.222278 0.191498 0.678277 0.000485
C28   C     C_R   0.151089 0.617686 0.590614 0.554364
C29   C     C_R   0.208836 0.201389 0.736784 0.053683
C30   C     C_R   0.092215 0.204821 0.757134 0.053875
C31   C     C_R   0.087633 0.198628 0.817062 0.002354
C32   C     C_R   0.300652 0.212441 0.832776 -0.141063
C33   C     C_R   0.307038 0.215119 0.774926 -0.142399
C34   C     C_R   0.706125 0.735454 0.258896 0.022167
C35   C     C_R   0.126553 0.745444 0.852206 0.006915
C36   C     C_R   0.196275 0.640926 0.648918 0.016292
C37   C     C_R   0.302274 0.558731 0.742714 -0.145774
C38   C     C_R   0.290938 0.552533 0.683247 -0.145961
C39   C     C_R   0.120248 0.740406 0.674904 0.001421
C40   C     C_R   0.749588 0.602470 0.566012 0.549447
C41   C     C_R   0.113656 0.735228 0.733787 0.063993
C42   C     C_R   0.210817 0.647636 0.768268 0.033300
C43   C     C_R   0.218179 0.654289 0.827732 -0.122633
C44   C     C_R   0.015147 0.815851 0.818037 -0.149117
C45   C     C_R   0.674078 0.653448 0.226736 0.035918
C46   C     C_R   0.011307 0.814511 0.759008 -0.146071
C47   C     C_R   0.265629 0.110254 0.069384 0.542855
C48   C     C_R   0.601710 0.774275 0.081078 0.536432
C49   C     C_R   0.188384 0.786926 0.069033 0.547003
C50   C     C_R   0.240432 0.117669 0.908068 0.541645
C51   C     C_R   0.574205 0.776342 0.918210 0.546307
C52   C     C_R   0.100576 0.276240 0.584532 0.545167
C53   C     C_R   0.163342 0.785459 0.907493 0.542392
C54   C     C_R   0.672342 0.751890 0.139322 0.004831
C55   C     C_R   0.694020 0.638898 0.345122 0.011913
C56   C     C_R   0.669064 0.656895 0.168149 -0.131085
C57   C     C_R   0.641095 0.571404 0.253120 -0.140391
C58   C     C_3   0.963867 0.209501 0.841829 -0.269507
C59   C     C_3   0.934721 0.101061 0.835979 -0.404313
C60   C     C_3   0.355659 0.152659 0.658148 -0.382815
C61   C     C_3   0.732226 0.928663 0.139856 -0.258045
C62   C     C_3   0.827918 0.975185 0.172666 -0.452807
C63   C     C_3   0.050562 0.851981 0.641324 -0.380089
C64   C     C_R   0.713397 0.831780 0.170558 0.002097
C65   C     C_R   0.730547 0.821488 0.230985 -0.116297
C66   C     C_1   0.235276 0.163130 0.122877 -0.006691
Cr1   Cr    Cr6+3 0.189770 0.415650 0.511620 1.019672
Cr2   Cr    Cr6+3 0.930400 0.667320 0.496770 1.011324
Cr3   Cr    Cr6+3 0.879870 0.417010 0.491650 1.016946
Cr4   Cr    Cr6+3 0.149500 0.973980 0.985330 1.005784
Cr5   Cr    Cr6+3 0.457000 0.976510 0.994660 1.009305
Cr6   Cr    Cr6+3 0.411170 0.724270 0.995270 1.018895
H1    H     H_    0.646117 0.590951 0.144977 0.137624
H2    H     H_    0.937816 0.880386 0.836725 0.127951
H3    H     H_    0.376870 0.490715 0.768631 0.106869
H4    H     H_    0.929330 0.876787 0.733525 0.108506
H5    H     H_    0.352236 0.476594 0.664295 0.128644
H6    H     H_    0.611828 0.510523 0.228261 0.107793
H7    H     H_    0.757513 0.882404 0.256632 0.114905
H8    H     H_    0.628195 0.497991 0.331718 0.140722
H9    H     H_    0.750076 0.785444 0.343830 0.124149
H10   H     H_    0.154635 0.083132 0.249510 0.136224
H11   H     H_    0.181755 0.315420 0.239968 0.138082
H12   H     H_    0.025422 0.668506 0.223377 0.142331
H13   H     H_    0.303420 0.660206 0.259060 0.141669
H14   H     H_    0.876480 0.100491 0.794539 0.113519
H15   H     H_    0.026546 0.026405 0.838596 0.202630
H16   H     H_    0.878710 0.093726 0.870843 0.141662
H17   H     H_    0.971580 0.230072 0.887836 0.152123
H18   H     H_    0.880664 0.282550 0.820960 0.130072
H19   H     H_    0.354604 0.117785 0.614651 0.148342
H20   H     H_    0.390699 0.224103 0.658097 0.138944
H21   H     H_    0.425459 0.082534 0.686817 0.119417
H22   H     H_    0.784378 0.026690 0.208710 0.143794
H23   H     H_    0.517025 0.711366 0.727404 0.142436
H24   H     H_    0.919224 0.905101 0.189221 0.167660
H25   H     H_    0.851617 0.031154 0.143471 0.150978
H26   H     H_    0.770691 0.898147 0.098713 0.158071
H27   H     H_    0.636858 0.999143 0.130100 0.178619
H28   H     H_    0.094726 0.854137 0.601580 0.151120
H29   H     H_    0.946044 0.866431 0.630531 0.144428
H30   H     H_    0.060061 0.923237 0.666945 0.121405
H31   H     H_    0.797901 0.702829 0.752996 0.143295
H32   H     H_    0.383156 0.216133 0.860843 0.137635
H33   H     H_    0.893628 0.218265 0.729252 0.113807
H34   H     H_    0.391017 0.225358 0.760542 0.107089
H35   H     H_    0.905883 0.238431 0.629261 0.135023
H36   H     H_    0.300987 0.594941 0.854304 0.122037
O1    O     O_R   0.196340 0.303200 0.448500 -0.514342
O2    O     O_R   0.555390 0.700940 0.062700 -0.521985
O3    O     O_R   0.295020 0.731920 0.049950 -0.494153
O4    O     O_R   0.199310 0.519670 0.454880 -0.490179
O5    O     O_R   0.094290 0.884230 0.921550 -0.531450
O6    O     O_R   0.168980 0.069410 0.926940 -0.500204
O7    O     O_R   0.358400 0.089990 0.927950 -0.520159
O8    O     O_R   0.544850 0.873850 0.939920 -0.493415
O9    O     O_R   0.536020 0.701900 0.936430 -0.511308
O10   O     O_R   0.277070 0.732810 0.932890 -0.501675
O11   O     O_3   0.339220 0.891590 0.991750 -0.235748
O12   O     O_R   0.811960 0.658090 0.547150 -0.494195
O13   O     O_R   0.045660 0.691380 0.441680 -0.511004
O14   O     O_R   0.811930 0.659460 0.430950 -0.518240
O15   O     O_R   0.757900 0.507620 0.421760 -0.515725
O16   O     O_R   0.988630 0.322990 0.439840 -0.496775
O17   O     O_R   0.196380 0.301720 0.573850 -0.516529
O18   O     O_R   0.199350 0.518300 0.571080 -0.495533
O19   O     O_R   0.045700 0.689900 0.567030 -0.513953
O20   O     O_R   0.757930 0.506140 0.547110 -0.508034
O21   O     O_R   0.988670 0.321620 0.556040 -0.503327
O22   O     O_3   0.000020 0.499990 0.500010 -0.256983
O23   O     O_R   0.113660 0.883270 0.047820 -0.512508
O24   O     O_R   0.186930 0.068530 0.043990 -0.495895
O25   O     O_R   0.377770 0.089040 0.054220 -0.518335
O26   O     O_R   0.562800 0.872960 0.056970 -0.508804

loop_
_geom_bond_atom_site_label_1
_geom_bond_atom_site_label_2
_ccdc_geom_bond_type
C24   C52   S    
C48   O2    A    
C10   H13   S    
C8    C13   T    
C65   H7    S    
C62   H24   S    
C35   C53   S    
C41   C42   A    
C61   H26   S    
C24   C27   A    
C63   H29   S    
Cr5   O26   S    
C46   H4    S    
C25   H33   S    
C39   C41   A    
C61   H27   S    
Cr4   O6    S    
C48   C54   S    
C49   O23   A    
C45   C57   A    
C37   C38   A    
C22   C32   A    
C52   O21   A    
C31   C58   S    
C48   O26   A    
C19   C21   T    
C24   C26   A    
C18   C19   S    
C27   C60   S    
Cr1   O17   S    
C1    O4    A    
C30   C31   A    
C11   C14   T    
C27   C29   A    
Cr3   O15   S    
C40   O20   A    
C29   C33   A    
C17   C20   S    
C50   O7    A    
C37   C42   A    
C9    C13   S    
C59   H16   S    
C53   O5    A    
Cr1   O1    S    
Cr3   O20   S    
C44   C46   A    
Cr3   O22   S    
Cr6   O9    S    
C41   C46   A    
C32   H32   S    
C15   C51   S    
C29   C30   A    
C35   C43   A    
C9    C10   D    
C47   C66   S    
C28   O19   A    
C49   O3    A    
C60   H21   S    
C37   H3    S    
Cr6   O3    S    
C47   O25   A    
C18   H23   S    
C2    H11   S    
C2    C6    S    
C63   H30   S    
C34   C65   A    
C28   O18   A    
C16   O1    A    
C54   C56   A    
C60   H20   S    
Cr4   O5    S    
C15   C20   T    
Cr6   O2    S    
C22   C31   A    
Cr5   O7    S    
C45   C56   A    
C59   H15   S    
Cr1   O18   S    
Cr2   O14   S    
C5    C7    T    
C53   O10   A    
Cr3   O16   S    
C58   C59   S    
C4    O15   A    
C50   O6    A    
C26   H35   S    
C61   C64   S    
Cr2   O22   S    
C63   H28   S    
C62   H25   S    
Cr4   O11   S    
C23   C34   A    
C3    H10   S    
Cr4   O24   S    
C17   C18   D    
C4    O14   A    
C34   C45   A    
C44   H2    S    
C35   C44   A    
C58   H18   S    
Cr2   O19   S    
C12   C57   A    
C7    C16   S    
C40   O12   A    
C62   H22   S    
C4    C55   S    
Cr1   O22   S    
C42   C43   A    
C60   H19   S    
C25   C30   A    
C56   H1    S    
C23   H9    S    
C57   H6    S    
C36   C39   A    
C33   H34   S    
C3    C5    S    
Cr2   O13   S    
Cr5   O25   S    
C52   O17   A    
C23   C55   A    
C38   H5    S    
Cr5   O11   S    
C39   C63   S    
C51   O8    A    
C22   C50   S    
C47   O24   A    
C32   C33   A    
C36   C38   A    
C2    C3    D    
C25   C26   A    
C59   H14   S    
C64   C65   A    
C21   C40   S    
C54   C64   A    
C12   H8    S    
Cr6   O11   S    
Cr4   O23   S    
C51   O9    A    
Cr5   O8    S    
C43   H36   S    
C17   H31   S    
C61   C62   S    
C58   H17   S    
C1    O13   A    
C12   C55   A    
C10   C11   S    
C9    H12   S    
Cr1   O4    S    
C6    C66   T    
C28   C36   S    
Cr3   O21   S    
Cr6   O10   S    
C1    C14   S    
C16   O16   A    
C8    C49   S    
Cr2   O12   S    
