data_mof_unit_45621.cif
_audit_creation_date              2012-12-10T18:21:18-0500
_audit_creation_method            fapswitch 2.2
_symmetry_space_group_name_H-M    P1
_symmetry_Int_Tables_number       1
_space_group_crystal_system       triclinic
_cell_length_a                    14.963699
_cell_length_b                    14.016932
_cell_length_c                    10.624126
_cell_angle_alpha                 90.14132
_cell_angle_beta                  89.849727
_cell_angle_gamma                 89.956703
_cell_volume                      2228.34382616

loop_
_atom_site_label
_atom_site_type_symbol
_atom_type_description
_atom_site_fract_x
_atom_site_fract_y
_atom_site_fract_z
_atom_type_partial_charge
C1    C     C_R   0.326924 0.500008 0.497027 0.889378
C2    C     C_3   0.587565 0.482963 0.926068 -0.563444
C3    C     C_R   0.813648 0.561757 0.404906 0.389288
C4    C     C_R   0.768486 0.499858 0.488091 -0.182772
C5    C     C_R   0.814487 0.438163 0.567381 -0.266076
C6    C     C_R   0.906748 0.438226 0.568242 0.053337
C7    C     C_R   0.953438 0.501194 0.488527 0.007778
C8    C     C_R   0.906796 0.563535 0.407267 0.095376
C9    C     C_R   0.952587 0.376416 0.648290 -0.224882
C10   C     C_R   0.045370 0.375628 0.649703 0.406900
C11   C     C_R   0.092949 0.437591 0.569602 0.020473
C12   C     C_R   0.496936 0.500028 0.257579 0.846058
C13   C     C_R   0.046792 0.500894 0.488963 -0.048108
C14   C     C_R   0.093789 0.563008 0.407405 0.102738
C15   C     C_R   0.046798 0.624795 0.327779 -0.161188
C16   C     C_R   0.954242 0.625126 0.327801 -0.173543
C17   C     C_R   0.185525 0.438266 0.568352 -0.208397
C18   C     C_R   0.231601 0.499737 0.488664 -0.201137
C19   C     C_R   0.186824 0.560849 0.404718 0.401502
C20   C     C_R   0.552751 0.797725 0.416523 0.033987
C21   C     C_R   0.552712 0.201870 0.416492 0.017522
C22   C     C_R   0.447097 0.798227 0.583059 0.029673
C23   C     C_R   0.447495 0.202272 0.583680 0.022317
C24   C     C_R   0.445944 0.899070 0.586068 -0.022181
C25   C     C_R   0.445710 0.101420 0.585846 -0.023561
C26   C     C_R   0.673119 0.499992 0.496646 0.891047
C27   C     C_R   0.500451 0.949531 0.500454 -0.085694
C28   C     C_R   0.499626 0.050520 0.499449 -0.083640
C29   C     C_R   0.554415 0.898604 0.414153 -0.026645
C30   C     C_R   0.554003 0.100997 0.413653 -0.022578
C31   C     C_R   0.390329 0.949541 0.670729 0.327320
C32   C     C_R   0.392795 0.051356 0.673830 0.332794
C33   C     C_R   0.609574 0.050499 0.328964 0.325803
C34   C     C_R   0.607226 0.948669 0.326047 0.335225
C35   C     C_R   0.494633 0.500200 0.742118 0.857456
C36   C     C_3   0.464046 0.600066 0.072971 -0.338995
C37   C     C_3   0.426176 0.424521 0.073453 -0.339133
C38   C     C_3   0.457449 0.599362 0.929500 0.311967
C39   C     C_3   0.429430 0.419153 0.928903 0.333580
C40   C     C_3   0.588102 0.477556 0.069995 -0.430675
C41   C     C_3   0.493760 0.500389 0.121235 -0.004391
C42   C     C_3   0.491047 0.500684 0.878529 0.017583
H1    H     H_    0.513404 0.655393 0.101913 0.161113
H2    H     H_    0.442195 0.352777 0.112109 0.159410
H3    H     H_    0.222977 0.392113 0.630539 0.215671
H4    H     H_    0.081264 0.673003 0.264663 0.216340
H5    H     H_    0.920166 0.673545 0.264727 0.215972
H6    H     H_    0.593370 0.756482 0.351819 0.197614
H7    H     H_    0.593597 0.242803 0.352127 0.186882
H8    H     H_    0.405716 0.757454 0.646696 0.174528
H9    H     H_    0.406967 0.243503 0.648510 0.180446
H10   H     H_    0.398647 0.620291 0.115722 0.217304
H11   H     H_    0.357709 0.443349 0.106656 0.212500
H12   H     H_    0.501110 0.658095 0.893752 0.098425
H13   H     H_    0.458706 0.348443 0.902466 0.096719
H14   H     H_    0.637763 0.529212 0.107741 0.192023
H15   H     H_    0.609075 0.404872 0.100071 0.205872
H16   H     H_    0.632355 0.541724 0.894547 0.203379
H17   H     H_    0.614826 0.415200 0.886610 0.205577
H18   H     H_    0.777994 0.391191 0.630299 0.171297
H19   H     H_    0.916210 0.328441 0.709752 0.183071
N1    N     N_R   0.500070 0.750030 0.500050 -0.145972
N2    N     N_R   0.500070 0.249970 0.500050 -0.145280
O1    O     O_R   0.367860 0.580280 0.500020 -0.600585
O2    O     O_R   0.367860 0.419720 0.500020 -0.624429
O3    O     O_R   0.500000 0.580270 0.314790 -0.639082
O4    O     O_R   0.500000 0.419730 0.314790 -0.626253
O5    O     O_R   0.632160 0.580270 0.499960 -0.601041
O6    O     O_R   0.632160 0.419730 0.499960 -0.616104
O7    O     O_R   0.500030 0.580270 0.685200 -0.643835
O8    O     O_R   0.500030 0.419730 0.685200 -0.645050
Zn1   Zn    Zn3+2 0.500020 0.607200 0.499990 0.962341
Zn2   Zn    Zn3+2 0.500020 0.392800 0.499990 0.946563
Cl1   Cl    Cl    0.098629 0.295434 0.753079 -0.561137
O9    O     O_3   0.231546 0.617297 0.318346 -0.754538
H20   H     H_    0.289587 0.587378 0.297100 0.331111
O10   O     O_3   0.333444 0.897917 0.747301 -0.771463
H21   H     H_    0.279991 0.937170 0.766123 0.363732
O11   O     O_3   0.345806 0.103360 0.762733 -0.756896
H22   H     H_    0.339332 0.064408 0.839844 0.356188
O12   O     O_3   0.666389 0.102108 0.252281 -0.785186
H23   H     H_    0.719854 0.062876 0.233445 0.356254
O13   O     O_3   0.654188 0.896653 0.237137 -0.770258
H24   H     H_    0.660517 0.935546 0.159950 0.350229
O14   O     O_3   0.368187 0.616530 0.894438 -0.680793
H25   H     H_    0.369131 0.648270 0.811210 0.347420
O15   O     O_3   0.342235 0.426272 0.880425 -0.680761
H26   H     H_    0.341476 0.391215 0.799181 0.335006
O16   O     O_3   0.769350 0.619533 0.319875 -0.763903
H27   H     H_    0.710705 0.591042 0.299403 0.327518

loop_
_geom_bond_atom_site_label_1
_geom_bond_atom_site_label_2
_ccdc_geom_bond_type
O15   H26   S    
C27   C29   A    
C11   C13   A    
C24   C27   A    
C39   O15   S    
C6    C9    A    
C21   H7    S    
O12   H23   S    
C7    C8    A    
O10   H21   S    
C25   C28   A    
C1    C18   S    
C9    H19   S    
C17   H3    S    
C38   C42   S    
C5    C6    A    
C15   C16   A    
O2    Zn2   S    
C18   C19   A    
C35   C42   S    
C39   H13   S    
O13   H24   S    
C35   O7    A    
C40   H14   S    
C1    O2    A    
O6    Zn2   S    
O4    Zn2   S    
C9    C10   A    
C36   H10   S    
C22   H8    S    
C37   H11   S    
C25   C32   A    
C23   N2    A    
C35   O8    A    
C8    C16   A    
C13   C14   A    
C37   C41   S    
C36   C41   S    
C16   H5    S    
C17   C18   A    
C39   C42   S    
C20   C29   A    
C12   O4    A    
O3    Zn1   S    
C38   O14   S    
C3    C8    A    
O8    Zn2   S    
C2    H17   S    
N2    Zn2   S    
O14   H25   S    
C12   O3    A    
C29   C34   A    
O9    H20   S    
C30   C33   A    
C12   C41   S    
C22   N1    A    
C23   H9    S    
C31   C32   A    
C38   H12   S    
O5    Zn1   S    
C33   C34   A    
N1    Zn1   S    
C20   H6    S    
C40   C41   S    
C22   C24   A    
C34   O13   S    
C3    C4    A    
C1    O1    A    
C19   O9    S    
C11   C17   A    
C31   O10   S    
C40   H15   S    
C5    H18   S    
C14   C19   A    
C4    C5    A    
C4    C26   S    
C2    H16   S    
C6    C7    A    
C21   C30   A    
C3    O16   S    
C26   O5    A    
C37   H2    S    
C28   C30   A    
C24   C31   A    
C37   C39   S    
C32   O11   S    
C10   Cl1   S    
C2    C42   S    
C36   C38   S    
O1    Zn1   S    
C20   N1    A    
C21   N2    A    
C10   C11   A    
O11   H22   S    
C2    C40   S    
C7    C13   A    
C23   C25   A    
C27   C28   A    
C26   O6    A    
C14   C15   A    
C36   H1    S    
O7    Zn1   S    
C15   H4    S    
O16   H27   S    
C33   O12   S    
