data_mof_unit_36188.cif
_audit_creation_date              2012-10-26T20:08:17-0400
_audit_creation_method            fapswitch 2.2
_symmetry_space_group_name_H-M    P1
_symmetry_Int_Tables_number       1
_space_group_crystal_system       triclinic
_cell_length_a                    10.933624
_cell_length_b                    10.823254
_cell_length_c                    9.602925
_cell_angle_alpha                 90.0549
_cell_angle_beta                  90.959297
_cell_angle_gamma                 89.961251
_cell_volume                      1136.22503407

loop_
_atom_site_label
_atom_site_type_symbol
_atom_type_description
_atom_site_fract_x
_atom_site_fract_y
_atom_site_fract_z
_atom_type_partial_charge
C1    C     C_R   0.500090 0.262343 0.499922 0.549135
C2    C     C_R   0.489280 0.064016 0.625627 -0.142038
C3    C     C_R   0.500423 0.871624 0.500041 0.022883
C4    C     C_R   0.500298 0.128341 0.499916 0.021654
C5    C     C_R   0.497352 0.391902 0.073701 0.023996
C6    C     C_R   0.500685 0.608034 0.926269 -0.003020
C7    C     C_R   0.496954 0.391965 0.925954 0.069721
C8    C     C_R   0.498305 0.607936 0.073856 -0.008266
C9    C     C_R   0.262512 0.500454 0.498428 0.547018
C10   C     C_R   0.737851 0.500625 0.501580 0.542776
C11   C     C_R   0.183192 0.682327 0.057686 -0.148139
C12   C     C_R   0.500163 0.737646 0.500067 0.544771
C13   C     C_R   0.787748 0.367731 0.949159 -0.167702
C14   C     C_R   0.136913 0.662820 0.190202 -0.039202
C15   C     C_R   0.835829 0.370140 0.815762 -0.082437
C16   C     C_R   0.112787 0.542556 0.235414 0.039603
C17   C     C_R   0.890283 0.478368 0.766894 0.016690
C18   C     C_R   0.136477 0.441663 0.148309 -0.057455
C19   C     C_R   0.900460 0.582194 0.853329 -0.049967
C20   C     C_R   0.183366 0.460517 0.013433 0.297746
C21   C     C_R   0.851188 0.581321 0.986151 0.286084
C22   C     C_R   0.205952 0.582052 0.970274 -0.076097
C23   C     C_R   0.872271 0.501325 0.504506 -0.009483
C24   C     C_R   0.793420 0.473086 0.033257 -0.101276
C25   C     C_R   0.932449 0.522596 0.379795 -0.150016
C26   C     C_R   0.069113 0.482129 0.620961 -0.160546
C27   C     C_3   0.153132 0.254454 0.945906 -0.151773
C28   C     C_3   0.765852 0.738339 0.111546 -0.147303
C29   C     C_R   0.128815 0.500690 0.495559 -0.013638
C30   C     C_R   0.942614 0.483540 0.627511 -0.034631
C31   C     C_R   0.059003 0.521639 0.372947 -0.031378
C32   C     C_R   0.511569 0.063736 0.374275 -0.143007
C33   C     C_R   0.489332 0.936225 0.625686 -0.142484
C34   C     C_R   0.511695 0.935927 0.374338 -0.145351
Cu1   Cu    Cu3+1 0.500000 0.500020 0.640660 0.956807
Cu2   Cu    Cu3+1 0.500000 0.499980 0.359340 0.919740
H1    H     H_    0.242534 0.599190 0.868164 0.137696
H2    H     H_    0.947363 0.664109 0.817449 0.116713
H3    H     H_    0.881025 0.543166 0.286977 0.168157
H4    H     H_    0.120998 0.467728 0.715898 0.185972
H5    H     H_    0.520747 0.111577 0.276039 0.111691
H6    H     H_    0.480161 0.888400 0.723934 0.110850
H7    H     H_    0.521032 0.887856 0.276141 0.105793
H8    H     H_    0.480084 0.112052 0.723847 0.116061
H9    H     H_    0.495812 0.304340 0.127136 0.101002
H10   H     H_    0.501095 0.695616 0.872829 0.098485
H11   H     H_    0.053235 0.269692 0.958167 0.119688
H12   H     H_    0.753607 0.468506 0.134681 0.139028
H13   H     H_    0.193395 0.204842 0.036950 0.112364
H14   H     H_    0.164574 0.194182 0.853555 0.140960
H15   H     H_    0.717034 0.681528 0.188882 0.148716
H16   H     H_    0.706656 0.760002 0.019327 0.101808
H17   H     H_    0.788617 0.827383 0.163013 0.135941
H18   H     H_    0.494974 0.304427 0.872244 0.111409
H19   H     H_    0.495645 0.695482 0.127426 0.098315
H20   H     H_    0.201603 0.775334 0.022490 0.098061
H21   H     H_    0.745251 0.284329 0.987252 0.092561
H22   H     H_    0.118713 0.741153 0.257017 0.117329
H23   H     H_    0.830211 0.288589 0.750521 0.111306
H24   H     H_    0.119368 0.349866 0.187874 0.087105
N1    N     N_R   0.500030 0.500030 0.852070 -0.214875
N2    N     N_R   0.499970 0.499970 0.147930 -0.234082
O1    O     O_R   0.499990 0.319660 0.618740 -0.513084
O2    O     O_3   0.875521 0.680951 0.072689 -0.591954
O3    O     O_R   0.500010 0.680340 0.381260 -0.524258
O4    O     O_R   0.499990 0.319630 0.381170 -0.518656
O5    O     O_R   0.500010 0.680370 0.618830 -0.521366
O6    O     O_R   0.319650 0.500020 0.618780 -0.493971
O7    O     O_R   0.680350 0.499980 0.381220 -0.531614
O8    O     O_R   0.319640 0.500000 0.381210 -0.487730
O9    O     O_R   0.680360 0.500000 0.618790 -0.484393
O10   O     O_3   0.216265 0.365919 0.922779 -0.584441

loop_
_geom_bond_atom_site_label_1
_geom_bond_atom_site_label_2
_ccdc_geom_bond_type
C25   C31   A    
C2    C4    A    
C32   H5    S    
C10   O7    A    
C19   H2    S    
C9    C29   S    
C10   C23   S    
C5    C7    A    
C12   O3    A    
C11   C22   A    
Cu1   Cu2   S    
C3    C34   A    
C27   H14   S    
Cu1   O5    S    
C28   H17   S    
C1    C4    S    
C10   O9    A    
C13   C15   A    
C1    O4    A    
C9    O6    A    
Cu1   O9    S    
C29   C31   A    
C25   H3    S    
C16   C31   S    
C2    H8    S    
C17   C30   S    
C28   H16   S    
C26   H4    S    
C4    C32   A    
C5    H9    S    
Cu1   O6    S    
Cu1   N1    S    
Cu2   N2    S    
C33   H6    S    
C28   O2    S    
C2    C33   A    
C18   H24   S    
C12   O5    A    
C20   C22   A    
C5    N2    A    
C26   C30   A    
C18   C20   A    
C23   C25   A    
Cu2   O8    S    
C14   H22   S    
C28   H15   S    
Cu2   O4    S    
C13   H21   S    
C11   H20   S    
C9    O8    A    
C24   H12   S    
C23   C30   A    
C1    O1    A    
Cu2   O7    S    
C8    H19   S    
C26   C29   A    
C16   C18   A    
C21   C24   A    
C27   H11   S    
C11   C14   A    
C15   C17   A    
C3    C33   A    
Cu2   O3    S    
C7    N1    A    
C21   O2    S    
C6    C8    A    
C3    C12   S    
C6    H10   S    
C7    H18   S    
C17   C19   A    
C14   C16   A    
C34   H7    S    
C22   H1    S    
C15   H23   S    
Cu1   O1    S    
C20   O10   S    
C27   O10   S    
C27   H13   S    
C13   C24   A    
C8    N2    A    
C19   C21   A    
C6    N1    A    
C32   C34   A    
