data_mof_unit_20144.cif
_audit_creation_date              2013-03-05T15:45:11-0500
_audit_creation_method            fapswitch 2.2
_symmetry_space_group_name_H-M    P1
_symmetry_Int_Tables_number       1
_space_group_crystal_system       triclinic
_cell_length_a                    24.859703
_cell_length_b                    17.249682
_cell_length_c                    15.598842
_cell_angle_alpha                 89.716939
_cell_angle_beta                  50.282325
_cell_angle_gamma                 89.377096
_cell_volume                      5144.97077886

loop_
_atom_site_label
_atom_site_type_symbol
_atom_site_description
_atom_site_fract_x
_atom_site_fract_y
_atom_site_fract_z
_atom_type_partial_charge
C1    C     C_R   0.338538 0.122685 0.789990 -0.137730
C2    C     C_R   0.655713 0.866362 0.224225 -0.116169
C3    C     C_R   0.667061 0.104437 0.196656 -0.144173
C4    C     C_R   0.337104 0.881415 0.792648 -0.085065
C5    C     C_R   0.835210 0.614101 0.798170 -0.103182
C6    C     C_R   0.162751 0.379970 0.208309 -0.094491
C7    C     C_R   0.156112 0.632142 0.224045 -0.109612
C8    C     C_R   0.854544 0.355676 0.748905 -0.166591
H1    H     H_    0.285517 0.127208 0.820820 0.176255
H2    H     H_    0.706843 0.855730 0.198783 0.173314
H3    H     H_    0.719557 0.097543 0.168017 0.132235
H4    H     H_    0.285112 0.878095 0.818740 0.156825
H5    H     H_    0.782366 0.614606 0.827543 0.146658
H6    H     H_    0.214777 0.375783 0.182094 0.155206
H7    H     H_    0.206269 0.642482 0.202061 0.165232
H8    H     H_    0.809212 0.340863 0.757853 0.112002
N1    N     N_R   0.388930 0.078160 0.705470 -0.042418
N2    N     N_R   0.611070 0.921840 0.294530 -0.044197
N3    N     N_R   0.611070 0.078160 0.294530 -0.035309
N4    N     N_R   0.388930 0.921840 0.705470 -0.047125
N5    N     N_R   0.888930 0.578160 0.705470 -0.047296
N6    N     N_R   0.111070 0.421840 0.294530 -0.048277
N7    N     N_R   0.111070 0.578160 0.294530 -0.042821
N8    N     N_R   0.888930 0.421840 0.705470 -0.037790
C9    C     C_R   0.594375 0.136366 0.593753 -0.123364
C10   C     C_R   0.387283 0.894067 0.407822 -0.140784
C11   C     C_R   0.413202 0.145147 0.407095 -0.133917
C12   C     C_R   0.599151 0.866888 0.592482 -0.156552
C13   C     C_R   0.099129 0.629227 0.595247 -0.103997
C14   C     C_R   0.888003 0.394605 0.406353 -0.095228
C15   C     C_R   0.903317 0.636871 0.408728 -0.173421
C16   C     C_R   0.110824 0.387085 0.592197 -0.172402
H9    H     H_    0.568149 0.150022 0.679407 0.105095
H10   H     H_    0.409218 0.889995 0.321818 0.115298
H11   H     H_    0.440982 0.158738 0.320610 0.107285
H12   H     H_    0.577677 0.858645 0.677834 0.123601
H13   H     H_    0.072417 0.641255 0.682010 0.112590
H14   H     H_    0.910995 0.390200 0.319836 0.104972
H15   H     H_    0.921493 0.644709 0.325281 0.115377
H16   H     H_    0.093078 0.393856 0.675652 0.099736
N9    N     N_R   0.580500 0.077840 0.556650 -0.044000
N10   N     N_R   0.419500 0.922160 0.443350 -0.046399
N11   N     N_R   0.419500 0.077840 0.443350 -0.042438
N12   N     N_R   0.580500 0.922160 0.556650 -0.039266
N13   N     N_R   0.080500 0.577840 0.556650 -0.044354
N14   N     N_R   0.919500 0.422160 0.443350 -0.040877
N15   N     N_R   0.919500 0.577840 0.443350 -0.040240
N16   N     N_R   0.080500 0.422160 0.556650 -0.041088
C17   C     C_R   0.671491 0.134663 0.406773 -0.160065
C18   C     C_R   0.312765 0.896338 0.593468 -0.122428
C19   C     C_R   0.339248 0.144770 0.592132 -0.147757
C20   C     C_R   0.673826 0.867594 0.405491 -0.142759
C21   C     C_R   0.177563 0.626057 0.407975 -0.178090
C22   C     C_R   0.812431 0.398085 0.591649 -0.153897
C23   C     C_R   0.832666 0.639212 0.595179 -0.102676
C24   C     C_R   0.183027 0.381135 0.407295 -0.085103
H17   H     H_    0.716720 0.145154 0.320851 0.124214
H18   H     H_    0.265908 0.893947 0.679970 0.136028
H19   H     H_    0.297734 0.158200 0.677851 0.115624
H20   H     H_    0.721578 0.861492 0.320584 0.138499
H21   H     H_    0.225191 0.632949 0.323145 0.140807
H22   H     H_    0.764531 0.397836 0.677346 0.117293
H23   H     H_    0.788249 0.650280 0.681480 0.139284
H24   H     H_    0.229833 0.377430 0.321050 0.120074
N17   N     N_R   0.626210 0.077590 0.443410 -0.042012
N18   N     N_R   0.373790 0.922410 0.556590 -0.043824
N19   N     N_R   0.373790 0.077590 0.556590 -0.040780
N20   N     N_R   0.626210 0.922410 0.443410 -0.043410
N21   N     N_R   0.126210 0.577590 0.443410 -0.040955
N22   N     N_R   0.873790 0.422410 0.556590 -0.036969
N23   N     N_R   0.873790 0.577590 0.556590 -0.046519
N24   N     N_R   0.126210 0.422410 0.443410 -0.043073
C25   C     C_R   0.578039 0.104215 0.195343 -0.069854
C26   C     C_R   0.426472 0.882723 0.794606 -0.110503
C27   C     C_R   0.429167 0.123991 0.787560 -0.111166
C28   C     C_R   0.564060 0.865921 0.227891 -0.039221
C29   C     C_R   0.066789 0.631461 0.222099 -0.107376
C30   C     C_R   0.944445 0.355285 0.749609 -0.022583
C31   C     C_R   0.925158 0.613340 0.797764 -0.050756
C32   C     C_R   0.072992 0.381562 0.206980 -0.042251
H25   H     H_    0.548853 0.100797 0.165941 0.167342
H26   H     H_    0.455250 0.881866 0.824944 0.145360
H27   H     H_    0.459696 0.131467 0.813795 0.150113
H28   H     H_    0.528659 0.852755 0.212237 0.151258
H29   H     H_    0.034848 0.642295 0.198961 0.150963
H30   H     H_    0.981505 0.338462 0.760807 0.155563
H31   H     H_    0.954051 0.611375 0.827802 0.101085
H32   H     H_    0.043560 0.380537 0.177822 0.140741
N25   N     N_R   0.554800 0.077270 0.294580 -0.051884
N26   N     N_R   0.445200 0.922730 0.705420 -0.045578
N27   N     N_R   0.445200 0.077270 0.705420 -0.043133
N28   N     N_R   0.554800 0.922730 0.294580 -0.053598
N29   N     N_R   0.054800 0.577270 0.294580 -0.046042
N30   N     N_R   0.945200 0.422730 0.705420 -0.061766
N31   N     N_R   0.945200 0.577270 0.705420 -0.050654
N32   N     N_R   0.054800 0.422730 0.294580 -0.056237
C33   C     C_R   0.364289 0.156275 0.837215 -0.069735
C34   C     C_R   0.626431 0.828493 0.184557 -0.067860
C35   C     C_R   0.648530 0.120451 0.131419 -0.077724
C36   C     C_R   0.359211 0.855695 0.850171 -0.061531
C37   C     C_R   0.856592 0.637909 0.857060 -0.024162
C38   C     C_R   0.140422 0.353835 0.151667 -0.036779
C39   C     C_R   0.128549 0.668546 0.180166 -0.073876
C40   C     C_R   0.889043 0.311243 0.775321 -0.045805
C41   C     C_R   0.652010 0.171459 0.501178 0.060488
C42   C     C_R   0.320285 0.878175 0.501332 0.043202
C43   C     C_R   0.364151 0.190676 0.500182 0.064664
C44   C     C_R   0.657066 0.831207 0.497720 0.059437
C45   C     C_R   0.160278 0.659174 0.502615 0.068709
C46   C     C_R   0.820519 0.380225 0.498720 0.035166
C47   C     C_R   0.850048 0.677021 0.503302 0.062129
C48   C     C_R   0.174024 0.356113 0.500611 0.075385
Ni1   Ni    Ni4+2 0.382710 1.000000 0.629850 0.226228
Ni2   Ni    Ni4+2 0.617290 0.000000 0.370150 0.234321
Ni3   Ni    Ni4+2 0.882710 0.500000 0.629850 0.221418
Ni4   Ni    Ni4+2 0.117290 0.500000 0.370150 0.234561
Ni5   Ni    Ni4+2 0.513020 1.000000 0.629850 0.217729
Ni6   Ni    Ni4+2 0.486980 0.000000 0.370150 0.228094
Ni7   Ni    Ni4+2 0.013020 0.500000 0.629850 0.211670
Ni8   Ni    Ni4+2 0.986980 0.500000 0.370150 0.218332
C49   C     C_R   0.263591 0.277337 0.604554 -0.238187
C50   C     C_R   0.773282 0.820046 0.434551 -0.239802
C51   C     C_R   0.707800 0.294895 0.447320 -0.245905
C52   C     C_R   0.263094 0.757883 0.561164 -0.207987
C53   C     C_R   0.734471 0.689308 0.566372 -0.231379
C54   C     C_R   0.298707 0.331066 0.408180 -0.216314
C55   C     C_R   0.212051 0.783834 0.448189 -0.202971
C56   C     C_R   0.761109 0.261360 0.555471 -0.214708
H33   H     H_    0.249175 0.260293 0.683325 0.182715
H34   H     H_    0.787066 0.872123 0.385444 0.143919
H35   H     H_    0.685817 0.307001 0.406857 0.136797
H36   H     H_    0.285467 0.747838 0.601510 0.157659
H37   H     H_    0.720907 0.636527 0.614153 0.137902
H38   H     H_    0.313611 0.360012 0.334301 0.141845
H39   H     H_    0.190479 0.792919 0.406482 0.139238
H40   H     H_    0.783770 0.248973 0.594897 0.147807
C57   C     C_R   0.686517 0.721078 0.559537 0.144408
C58   C     C_R   0.351436 0.301329 0.407998 0.145917
C59   C     C_R   0.250467 0.841574 0.447004 0.156191
C60   C     C_R   0.719856 0.206977 0.559309 0.108193
C61   C     C_R   0.210107 0.289213 0.600602 0.117290
C62   C     C_R   0.821742 0.787550 0.440035 0.144853
C63   C     C_R   0.748133 0.350119 0.446330 0.160603
C64   C     C_R   0.225798 0.700041 0.561366 0.133734
C65   C     C_R   0.706370 0.788088 0.495260 0.070845
C66   C     C_R   0.331039 0.263800 0.504977 0.039587
C67   C     C_R   0.275392 0.827092 0.504711 0.059042
C68   C     C_R   0.693714 0.224851 0.503360 0.073651
C69   C     C_R   0.227567 0.322378 0.502453 0.063792
C70   C     C_R   0.800986 0.721880 0.507223 0.071231
C71   C     C_R   0.774638 0.331487 0.500741 0.064768
C72   C     C_R   0.200470 0.714459 0.504064 0.063266
H41   H     H_    0.226766 0.886166 0.011415 0.155621
H42   H     H_    0.770815 0.179156 0.026346 0.147495
H43   H     H_    0.688174 0.712490 0.198373 0.152863
H44   H     H_    0.312529 0.276514 0.812841 0.146309
H45   H     H_    0.783130 0.226109 0.827612 0.153143
H46   H     H_    0.192090 0.782070 0.190808 0.137656
H47   H     H_    0.273241 0.380842 0.991880 0.153841
H48   H     H_    0.723395 0.609341 0.016522 0.147116
C73   C     C_2   0.698469 0.136382 0.011076 0.462175
C74   C     C_2   0.314542 0.817931 0.959025 0.521408
C75   C     C_2   0.331778 0.222017 0.913102 0.529568
C76   C     C_2   0.657703 0.761181 0.110227 0.571258
C77   C     C_2   0.160826 0.734419 0.103811 0.532401
C78   C     C_2   0.867387 0.234448 0.828431 0.426426
C79   C     C_2   0.811221 0.672935 0.968592 0.502488
C80   C     C_2   0.185285 0.315381 0.043396 0.585202
C81   C     C_2   0.759774 0.167889 0.970575 -0.184298
C82   C     C_2   0.246284 0.837887 0.029914 -0.236560
C83   C     C_2   0.305177 0.278317 0.889433 -0.214092
C84   C     C_2   0.690720 0.708274 0.126350 -0.262087
C85   C     C_2   0.194405 0.786068 0.118942 -0.233527
C86   C     C_2   0.807093 0.204702 0.861632 -0.169811
C87   C     C_2   0.742745 0.655259 0.037537 -0.243441
C88   C     C_2   0.253664 0.332980 0.974064 -0.280016
C89   C     C_3   0.616904 0.680851 0.618065 -0.418583
C90   C     C_3   0.627057 0.602199 0.563551 -0.289593
C91   C     C_3   0.557136 0.562665 0.619608 -0.849504
H49   H     H_    0.529871 0.552776 0.709298 0.280150
H50   H     H_    0.523369 0.598990 0.611624 0.261034
H51   H     H_    0.566240 0.505792 0.578983 0.241681
H52   H     H_    0.653620 0.610731 0.473776 0.210720
H53   H     H_    0.660277 0.563334 0.569970 0.200440
H54   H     H_    0.591882 0.672387 0.707218 0.222382
H55   H     H_    0.580037 0.715918 0.616263 0.196870
C92   C     C_3   0.427552 0.312977 0.307303 -0.441016
C93   C     C_3   0.445925 0.399365 0.283504 -0.268114
C94   C     C_3   0.523382 0.410236 0.184714 -0.830962
H56   H     H_    0.556202 0.383507 0.202465 0.249823
H57   H     H_    0.536774 0.383298 0.108571 0.274397
H58   H     H_    0.535122 0.473087 0.169161 0.255306
H59   H     H_    0.414780 0.428812 0.264299 0.209472
H60   H     H_    0.433792 0.427592 0.358113 0.201882
H61   H     H_    0.462141 0.286465 0.321552 0.193348
H62   H     H_    0.438518 0.284630 0.233641 0.221072
C95   C     C_3   0.261781 0.917095 0.387527 -0.476711
C96   C     C_3   0.309047 0.904829 0.260985 -0.243169
C97   C     C_3   0.325322 0.981508 0.199965 -0.800653
H63   H     H_    0.276234 0.010497 0.228301 0.266379
H64   H     H_    0.353643 0.020467 0.215421 0.269998
H65   H     H_    0.358855 0.970395 0.108968 0.247912
H66   H     H_    0.358970 0.876547 0.230040 0.221025
H67   H     H_    0.282714 0.866501 0.241048 0.229848
H68   H     H_    0.210182 0.940467 0.418827 0.207079
H69   H     H_    0.284948 0.961708 0.406078 0.203978
C98   C     C_3   0.704322 0.133623 0.626366 -0.331420
C99   C     C_3   0.736687 0.059980 0.554938 -0.337624
C100  C     C_3   0.714114 0.988830 0.629206 -0.793448
H70   H     H_    0.732020 0.993062 0.678483 0.303476
H71   H     H_    0.656283 0.983340 0.686747 0.260957
H72   H     H_    0.737244 0.935868 0.577395 0.231004
H73   H     H_    0.720405 0.052145 0.504017 0.217434
H74   H     H_    0.794606 0.064323 0.497554 0.209299
H75   H     H_    0.725400 0.138797 0.670947 0.247908
H76   H     H_    0.647482 0.127248 0.694167 0.202652
C101  C     C_3   0.139042 0.256651 0.697572 -0.409285
C102  C     C_3   0.142840 0.167868 0.708202 -0.238401
C103  C     C_3   0.086817 0.139917 0.827538 -0.674508
H77   H     H_    0.096770 0.162914 0.882459 0.265651
H78   H     H_    0.034199 0.159215 0.860270 0.325338
H79   H     H_    0.087930 0.075602 0.829752 0.233938
H80   H     H_    0.136336 0.138089 0.652319 0.220759
H81   H     H_    0.194116 0.148717 0.682136 0.190547
H82   H     H_    0.120748 0.286578 0.775217 0.218065
H83   H     H_    0.099126 0.265852 0.688212 0.228612
C104  C     C_3   0.894143 0.822919 0.372673 -0.426427
C105  C     C_3   0.891235 0.904684 0.413734 -0.290832
C106  C     C_3   0.964503 0.937170 0.351334 -0.795066
H84   H     H_    0.995007 0.900259 0.365628 0.254960
H85   H     H_    0.992397 0.939859 0.260523 0.271385
H86   H     H_    0.960640 0.996653 0.381868 0.253805
H87   H     H_    0.861749 0.944221 0.400236 0.202158
H88   H     H_    0.864289 0.903086 0.504321 0.229093
H89   H     H_    0.929881 0.787299 0.376614 0.202287
H90   H     H_    0.917598 0.825297 0.283607 0.217944
C107  C     C_3   0.758337 0.428326 0.393253 -0.475712
C108  C     C_3   0.806273 0.422046 0.265907 -0.237704
C109  C     C_3   0.818361 0.501562 0.213097 -0.864138
H91   H     H_    0.767853 0.527996 0.243850 0.260122
H92   H     H_    0.844106 0.540590 0.233444 0.262652
H93   H     H_    0.852713 0.495334 0.121111 0.249334
H94   H     H_    0.857543 0.396501 0.232796 0.205826
H95   H     H_    0.782341 0.383655 0.241607 0.205942
H96   H     H_    0.706409 0.451580 0.425997 0.195337
H97   H     H_    0.780338 0.470989 0.416353 0.195874
C110  C     C_3   0.218018 0.623932 0.617797 -0.391319
C111  C     C_3   0.267220 0.561187 0.532326 -0.284912
C112  C     C_3   0.265814 0.488779 0.590231 -0.877498
H98   H     H_    0.279463 0.503190 0.643566 0.267637
H99   H     H_    0.213124 0.462287 0.642305 0.263063
H100  H     H_    0.304870 0.446243 0.526755 0.252126
H101  H     H_    0.251504 0.545357 0.482166 0.209545
H102  H     H_    0.321601 0.583387 0.475017 0.208999
H103  H     H_    0.230629 0.632618 0.673886 0.218816
H104  H     H_    0.163382 0.603615 0.673135 0.186079
S1    S     S_3+6 0.348709 0.738140 0.983882 -0.034239
O1    O     O_2   0.327985 0.745874 0.097473 -0.312556
O2    O     O_2   0.319056 0.664177 0.979622 -0.290736
O3    O     O_3   0.436477 0.733770 0.887944 -0.521817
H105  H     H_    0.446499 0.712714 0.820001 0.344188
S2    S     S_3+6 0.678304 0.111746 0.923939 -0.048260
O4    O     O_2   0.644073 0.180324 0.915662 -0.293609
O5    O     O_2   0.743991 0.090507 0.809331 -0.309717
O6    O     O_3   0.623556 0.036121 0.976387 -0.506162
H106  H     H_    0.648259 0.993887 0.982512 0.370396
S3    S     S_3+6 0.661803 0.758799 0.992271 -0.043395
O7    O     O_2   0.736200 0.770699 0.888716 -0.282038
O8    O     O_2   0.637549 0.681198 0.986013 -0.320359
O9    O     O_3   0.611415 0.829004 0.999918 -0.542664
H107  H     H_    0.619897 0.825498 0.928765 0.384848
S4    S     S_3+6 0.322494 0.221575 0.035754 -0.028627
O10   O     O_2   0.348445 0.296898 0.044631 -0.284670
O11   O     O_2   0.246697 0.212971 0.136232 -0.281033
O12   O     O_3   0.368445 0.148086 0.033303 -0.514257
H108  H     H_    0.344635 0.100551 0.038162 0.339045
S5    S     S_3+6 0.918325 0.186438 0.855842 -0.062039
O13   O     O_2   0.917862 0.233870 0.936859 -0.315185
O14   O     O_2   0.891541 0.106610 0.902660 -0.249839
O15   O     O_3   0.000578 0.178808 0.735083 -0.566998
H109  H     H_    0.996951 0.147396 0.685995 0.355680
S6    S     S_3+6 0.164478 0.737512 0.986191 -0.040376
O16   O     O_2   0.137877 0.815041 0.982503 -0.276242
O17   O     O_2   0.238987 0.727369 0.881432 -0.309787
O18   O     O_3   0.116001 0.667494 0.991204 -0.531130
H110  H     H_    0.143197 0.618976 0.972707 0.344055
S7    S     S_3+6 0.151298 0.237813 0.016837 -0.061729
O19   O     O_2   0.179681 0.242217 0.898297 -0.378969
O20   O     O_2   0.173731 0.162329 0.034452 -0.281882
O21   O     O_3   0.063445 0.241653 0.102965 -0.549574
H111  H     H_    0.049574 0.194867 0.084968 0.374168
S8    S     S_3+6 0.844634 0.748739 0.999184 -0.018111
O22   O     O_2   0.819989 0.825170 0.988214 -0.220365
O23   O     O_2   0.817785 0.740762 0.116732 -0.349695
O24   O     O_3   0.932608 0.748151 0.910760 -0.499097
H112  H     H_    0.945937 0.714744 0.946498 0.350321

loop_
_geom_bond_atom_site_label_1
_geom_bond_atom_site_label_2
_geom_bond_distance
_ccdc_geom_bond_type
C22   N22   1.321890 A    
C47   C70   1.405261 S    
N21   Ni4   1.868645 S    
C99   H73   1.107311 S    
N18   Ni1   1.868648 S    
C92   H62   1.111763 S    
C2    N2    1.334918 A    
N17   Ni2   1.868645 S    
C63   C107  1.515838 S    
C95   H68   1.112040 S    
C109  H91   1.111109 S    
N1    N27   1.398277 A    
C62   C70   1.399184 A    
N5    Ni3   1.867194 S    
C21   N21   1.323274 A    
C60   C68   1.413128 A    
S2    O6    1.681792 S    
C31   H31   1.079844 S    
C90   C91   1.525928 S    
C9    C41   1.367695 A    
C62   C104  1.521968 S    
N10   Ni6   1.872600 S    
C2    C34   1.389065 A    
C104  H90   1.112001 S    
C59   C67   1.401407 A    
C112  H98   1.110750 S    
O18   H110  0.990744 S    
C17   N17   1.326406 A    
C14   C46   1.366852 A    
N14   Ni8   1.872600 S    
C13   C45   1.366787 A    
S8    O22   1.502347 D    
C55   H39   1.085564 S    
O21   H111  0.990476 S    
C106  H86   1.110455 S    
C56   H40   1.086318 S    
C48   C69   1.463923 S    
N4    Ni1   1.856320 S    
S3    O9    1.681476 S    
C111  H102  1.112099 S    
C6    H6    1.080544 S    
C95   C96   1.535020 S    
C77   C85   1.347718 D    
C6    N6    1.327498 A    
C3    C35   1.384804 A    
C108  H95   1.111508 S    
C27   C33   1.378230 A    
C100  H72   1.104718 S    
C89   H54   1.112063 S    
C52   H36   1.086107 S    
C37   C79   1.466881 S    
S1    O1    1.502320 D    
C50   C65   1.403285 A    
N5    N31   1.398277 A    
C94   H57   1.110946 S    
N28   Ni6   1.853481 S    
C98   H76   1.104358 S    
C20   H20   1.078782 S    
C40   C78   1.471610 S    
C61   C101  1.523989 S    
N7    Ni4   1.856321 S    
C35   C73   1.471259 S    
C21   H21   1.079916 S    
C73   S2    1.777799 S    
C10   H10   1.080386 S    
S7    O19   1.501706 D    
C74   S1    1.776641 S    
S4    O10   1.502576 D    
C24   N24   1.335842 A    
C23   H23   1.079902 S    
H41   C82   1.086286 S    
C96   H66   1.111216 S    
C97   H65   1.110624 S    
C99   H74   1.111116 S    
C81   C86   1.457974 S    
N27   Ni5   1.853478 S    
C53   H37   1.084868 S    
C3    N3    1.328459 A    
C96   C97   1.525203 S    
N29   Ni8   1.871380 S    
C101  H83   1.101215 S    
C32   N32   1.337484 A    
C75   C83   1.345848 D    
O6    H106  0.990736 S    
C78   S5    1.771392 S    
C105  H88   1.111975 S    
C90   H52   1.112232 S    
C20   N20   1.315873 A    
C84   C87   1.457805 S    
C27   N27   1.341875 A    
H45   C86   1.081731 S    
C91   H51   1.110527 S    
C51   H35   1.085216 S    
C110  H104  1.105323 S    
C30   H30   1.078357 S    
N6    Ni4   1.867198 S    
C52   C64   1.368033 A    
C64   C72   1.403903 A    
C29   H29   1.076128 S    
C97   H63   1.110920 S    
C8    H8    1.076865 S    
C29   N29   1.343843 A    
C15   N15   1.324270 A    
C107  C108  1.533562 S    
C6    C38   1.388600 A    
C16   N16   1.327702 A    
N2    Ni2   1.867198 S    
C95   H69   1.110172 S    
C1    N1    1.332562 A    
C55   C59   1.379246 A    
N16   N24   1.358767 A    
S8    O23   1.503970 D    
H43   C84   1.086888 S    
C54   H38   1.080420 S    
C25   H25   1.080149 S    
C105  C106  1.526447 S    
C52   C67   1.395583 A    
C14   N14   1.326791 A    
N16   Ni7   1.854449 S    
S4    O11   1.502842 D    
C76   S3    1.777236 S    
C5    C37   1.388359 A    
C28   H28   1.079471 S    
C78   C86   1.341722 D    
C18   C42   1.363255 A    
C112  H99   1.110825 S    
N13   N21   1.358744 A    
C98   C99   1.532506 S    
C18   H18   1.082142 S    
N26   Ni5   1.871378 S    
C49   C61   1.382840 A    
N10   N18   1.358744 A    
C102  H80   1.111854 S    
C45   C72   1.399304 S    
C1    H1    1.078312 S    
O15   H109  0.990659 S    
S5    O15   1.679527 S    
C46   C71   1.408316 S    
C24   H24   1.080072 S    
C9    N9    1.319715 A    
O24   H112  0.990649 S    
C43   C66   1.474421 S    
C111  H101  1.111105 S    
C99   C100  1.527534 S    
C26   C36   1.387539 A    
C22   H22   1.081966 S    
N3    Ni2   1.856321 S    
C11   H11   1.077774 S    
C79   S8    1.778727 S    
C41   C68   1.410811 S    
C30   C40   1.395965 A    
C108  H94   1.110927 S    
C12   N12   1.323921 A    
C19   H19   1.068143 S    
C15   C47   1.379529 A    
C42   C67   1.403739 S    
N7    N29   1.398606 A    
H42   C81   1.085344 S    
C13   N13   1.316520 A    
C93   C94   1.526563 S    
S1    O2    1.503170 D    
C22   C46   1.366470 A    
C94   H58   1.110498 S    
C31   N31   1.339842 A    
C106  H84   1.111010 S    
N3    N25   1.398606 A    
N8    N30   1.398611 A    
C55   C72   1.396827 A    
C103  H78   1.105097 S    
C8    C40   1.388165 A    
N30   Ni7   1.871378 S    
C57   C65   1.397682 A    
H46   C85   1.087032 S    
C34   C76   1.462395 S    
C104  C105  1.533711 S    
C74   C82   1.346720 D    
C106  H85   1.110985 S    
C11   C43   1.392742 A    
N23   Ni3   1.857070 S    
C56   C71   1.391749 A    
N15   N23   1.358767 A    
C9    H9    1.073412 S    
S7    O20   1.502798 D    
C100  H70   1.110340 S    
S6    O16   1.502577 D    
S7    O21   1.681376 S    
C107  H96   1.111897 S    
C109  H92   1.111160 S    
C19   N19   1.328130 A    
N25   Ni6   1.871380 S    
C80   S7    1.775736 S    
C51   C63   1.383426 A    
C18   N18   1.315908 A    
C33   C75   1.452971 S    
C105  H87   1.109831 S    
N1    Ni1   1.867194 S    
C28   N28   1.339616 A    
N11   N19   1.358767 A    
N15   Ni8   1.854447 S    
C101  C102  1.547965 S    
O12   H108  0.990469 S    
C93   H59   1.110677 S    
C39   C77   1.462409 S    
H47   C88   1.086073 S    
S5    O14   1.503789 D    
C96   H67   1.110843 S    
C13   H13   1.080229 S    
H48   C87   1.085623 S    
N6    N32   1.398272 A    
N2    N28   1.398272 A    
N12   N20   1.358767 A    
C23   C47   1.368013 A    
C4    H4    1.081004 S    
N13   Ni7   1.872600 S    
C50   C62   1.374551 A    
C1    C33   1.379548 A    
C2    H2    1.075984 S    
C60   C98   1.525016 S    
C103  H77   1.108573 S    
N31   Ni7   1.853478 S    
C111  C112  1.525311 S    
C10   N10   1.327324 A    
C79   C87   1.347493 D    
C44   C65   1.406199 S    
C26   H26   1.080899 S    
C21   C45   1.372097 A    
C80   C88   1.345307 D    
C76   C84   1.347265 D    
C108  C109  1.526988 S    
C54   C58   1.400723 A    
C112  H100  1.106568 S    
C38   C80   1.457375 S    
C63   C71   1.401868 A    
C16   C48   1.384050 A    
C92   H61   1.110243 S    
C49   C66   1.394726 A    
C5    H5    1.079968 S    
C77   S6    1.778658 S    
N32   Ni8   1.853481 S    
S8    O24   1.682282 S    
C17   C41   1.377354 A    
C10   C42   1.370389 A    
C49   H33   1.077324 S    
O3    H105  0.990777 S    
C17   H17   1.081401 S    
S2    O5    1.503121 D    
S3    O7    1.502983 D    
C59   C95   1.516398 S    
C102  H81   1.108653 S    
S2    O4    1.502394 D    
C30   N30   1.343513 A    
N22   Ni3   1.868648 S    
C25   N25   1.342338 A    
C50   H34   1.084239 S    
C104  H89   1.108219 S    
C83   C88   1.448201 S    
N24   Ni4   1.857070 S    
C98   H75   1.110607 S    
S6    O17   1.503102 D    
C75   S4    1.774644 S    
S1    O3    1.682386 S    
C53   C57   1.371325 A    
C26   N26   1.340965 A    
C4    C36   1.387448 A    
C58   C92   1.514827 S    
N19   Ni1   1.857070 S    
C73   C81   1.342116 D    
C92   C93   1.536129 S    
C32   H32   1.080826 S    
C103  H79   1.110377 S    
S3    O8    1.502973 D    
C27   H27   1.076882 S    
C102  C103  1.526359 S    
C61   C69   1.416740 A    
C101  H82   1.112371 S    
N4    N26   1.398611 A    
N12   Ni5   1.854449 S    
C58   C66   1.407753 A    
S4    O12   1.681226 S    
C7    N7    1.330003 A    
C7    H7    1.077900 S    
H44   C83   1.087625 S    
C8    N8    1.328820 A    
C15   H15   1.079226 S    
C107  H97   1.110774 S    
C56   C60   1.370118 A    
C109  H93   1.110502 S    
C16   H16   1.081375 S    
N9    N17   1.358744 A    
C94   H56   1.110976 S    
C12   C44   1.380771 A    
C23   N23   1.316668 A    
N8    Ni3   1.856320 S    
N14   N22   1.358744 A    
C3    H3    1.081153 S    
C53   C70   1.402294 A    
C89   H55   1.107853 S    
N11   Ni6   1.854447 S    
C93   H60   1.111879 S    
C91   H49   1.110918 S    
C4    N4    1.329086 A    
C11   N11   1.339784 A    
C57   C89   1.520030 S    
C51   C68   1.397923 A    
C12   H12   1.081316 S    
S6    O18   1.681517 S    
C19   C43   1.390025 A    
C89   C90   1.535302 S    
C5    N5    1.334791 A    
C64   C110  1.520642 S    
C32   C38   1.386122 A    
C29   C39   1.388548 A    
C97   H64   1.110981 S    
C100  H71   1.111064 S    
O9    H107  0.990609 S    
C31   C37   1.383412 A    
C20   C44   1.366750 A    
C7    C39   1.384979 A    
C14   H14   1.080762 S    
C36   C74   1.461397 S    
S5    O13   1.502701 D    
C28   C34   1.385965 A    
C54   C69   1.411562 A    
C24   C48   1.390952 A    
N9    Ni5   1.872600 S    
C90   H53   1.111061 S    
C25   C35   1.385030 A    
C110  C111  1.531806 S    
N20   Ni2   1.857070 S    
C91   H50   1.110928 S    
C82   C85   1.454203 S    
C110  H103  1.113156 S    
