data_mof_unit_57671.cif
_audit_creation_date              2012-10-26T20:02:31-0400
_audit_creation_method            fapswitch 2.2
_symmetry_space_group_name_H-M    P1
_symmetry_Int_Tables_number       1
_space_group_crystal_system       triclinic
_cell_length_a                    19.013881
_cell_length_b                    18.533845
_cell_length_c                    12.344161
_cell_angle_alpha                 90.000636
_cell_angle_beta                  129.095544
_cell_angle_gamma                 89.998948
_cell_volume                      3376.08222063

loop_
_atom_site_label
_atom_site_type_symbol
_atom_type_description
_atom_site_fract_x
_atom_site_fract_y
_atom_site_fract_z
_atom_type_partial_charge
C1    C     C_R   0.612643 0.898516 0.653679 0.541130
C2    C     C_R   0.675178 0.745328 0.050659 0.052798
C3    C     C_3   0.042904 0.794646 0.342075 -0.357800
C4    C     C_R   0.175186 0.754665 0.050681 0.052794
C5    C     C_R   0.175177 0.245328 0.050661 0.052797
C6    C     C_R   0.597900 0.219594 0.934095 0.000988
C7    C     C_R   0.597890 0.780393 0.934065 0.001003
C8    C     C_R   0.097898 0.719598 0.934093 0.000998
C9    C     C_R   0.097889 0.280394 0.934069 0.001003
C10   C     C_R   0.597264 0.199734 0.824864 -0.146585
C11   C     C_R   0.597262 0.800260 0.824846 -0.146573
C12   C     C_R   0.097262 0.699734 0.824864 -0.146576
C13   C     C_R   0.612641 0.101485 0.653677 0.541129
C14   C     C_R   0.097260 0.300261 0.824848 -0.146570
C15   C     C_R   0.317628 0.814425 0.151145 -0.118282
C16   C     C_R   0.317631 0.185579 0.151151 -0.118307
C17   C     C_R   0.817630 0.314424 0.151147 -0.118299
C18   C     C_R   0.817633 0.685579 0.151153 -0.118294
C19   C     C_R   0.246257 0.830732 0.255978 -0.161595
C20   C     C_R   0.246242 0.169258 0.255952 -0.161589
C21   C     C_R   0.746250 0.330741 0.255964 -0.161592
C22   C     C_R   0.746240 0.669257 0.255949 -0.161589
C23   C     C_R   0.682077 0.155415 0.748345 -0.016555
C24   C     C_R   0.112642 0.398515 0.653677 0.541128
C25   C     C_R   0.682082 0.844586 0.748347 -0.016556
C26   C     C_R   0.182075 0.655416 0.748342 -0.016556
C27   C     C_R   0.182078 0.344582 0.748341 -0.016559
C28   C     C_R   0.684491 0.999998 0.286091 -0.134239
C29   C     C_R   0.184491 0.499998 0.286091 -0.134244
C30   C     C_R   0.343619 0.000001 0.627520 0.036245
C31   C     C_R   0.843619 0.500002 0.627520 0.036251
C32   C     C_R   0.309286 0.000002 0.699305 -0.164167
C33   C     C_R   0.809286 0.500004 0.699305 -0.164161
C34   C     C_R   0.384732 0.099165 0.343273 0.541204
C35   C     C_R   0.112641 0.601485 0.653677 0.541131
C36   C     C_R   0.384733 0.900835 0.343274 0.541209
C37   C     C_R   0.884732 0.599165 0.343273 0.541202
C38   C     C_R   0.884732 0.400836 0.343273 0.541208
C39   C     C_R   0.368038 0.000000 0.844888 -0.109326
C40   C     C_R   0.868038 0.500003 0.844887 -0.109316
C41   C     C_R   0.462632 0.999999 0.921302 0.036402
C42   C     C_R   0.962632 0.500001 0.921302 0.036414
C43   C     C_R   0.494751 0.999999 0.842815 0.181729
C44   C     C_R   0.994751 0.500000 0.842815 0.181741
C45   C     C_R   0.526420 0.999999 0.071993 0.050722
C46   C     C_R   0.252032 0.764193 0.056734 0.002714
C47   C     C_R   0.026420 0.500000 0.071993 0.050719
C48   C     C_R   0.620394 0.999998 0.139942 0.069267
C49   C     C_R   0.120393 0.499999 0.139942 0.069260
C50   C     C_R   0.650200 0.999998 0.061998 -0.149618
C51   C     C_R   0.150200 0.499999 0.061998 -0.149620
C52   C     C_R   0.589006 0.999999 0.917279 -0.084165
C53   C     C_R   0.089006 0.499999 0.917279 -0.084161
C54   C     C_R   0.501763 1.000000 0.159553 0.092124
C55   C     C_R   0.001763 0.500000 0.159553 0.092122
C56   C     C_R   0.655887 0.999999 0.365597 0.048680
C57   C     C_R   0.252030 0.235806 0.056730 0.002702
C58   C     C_R   0.155887 0.499999 0.365597 0.048676
C59   C     C_R   0.674967 0.286752 0.154149 -0.119930
C60   C     C_R   0.674956 0.713243 0.154125 -0.119946
C61   C     C_R   0.174974 0.786743 0.154162 -0.119949
C62   C     C_R   0.174958 0.213244 0.154130 -0.119944
C63   C     C_R   0.316095 0.846742 0.251279 -0.018646
C64   C     C_R   0.316091 0.153257 0.251274 -0.018646
C65   C     C_R   0.816093 0.346744 0.251276 -0.018645
C66   C     C_R   0.816091 0.653257 0.251274 -0.018648
C67   C     C_R   0.760924 0.156972 0.761952 -0.197797
C68   C     C_R   0.752033 0.264193 0.056735 0.002705
C69   C     C_R   0.760930 0.843031 0.761960 -0.197792
C70   C     C_R   0.260920 0.656976 0.761945 -0.197797
C71   C     C_R   0.260923 0.343019 0.761945 -0.197794
C72   C     C_R   0.339206 0.688334 0.877926 -0.111221
C73   C     C_R   0.339210 0.311661 0.877929 -0.111224
C74   C     C_R   0.839211 0.188327 0.877936 -0.111213
C75   C     C_R   0.839216 0.811673 0.877943 -0.111230
C76   C     C_R   0.340492 0.719211 0.982180 0.280845
C77   C     C_R   0.340495 0.280789 0.982185 0.280826
C78   C     C_R   0.840496 0.219206 0.982188 0.280844
C79   C     C_R   0.752032 0.735807 0.056731 0.002717
C80   C     C_R   0.840499 0.780793 0.982191 0.280838
C81   C     C_R   0.757891 0.227340 0.961624 0.012309
C82   C     C_R   0.757893 0.772660 0.961623 0.012319
C83   C     C_R   0.257889 0.727342 0.961620 0.012314
C84   C     C_R   0.257890 0.272658 0.961620 0.012307
C85   C     C_R   0.678254 0.194808 0.843127 -0.027523
C86   C     C_R   0.678256 0.805191 0.843122 -0.027530
C87   C     C_R   0.178252 0.694808 0.843125 -0.027530
C88   C     C_R   0.178253 0.305190 0.843120 -0.027526
C89   C     C_2   0.515326 0.203315 0.918024 0.199346
C90   C     C_R   0.675185 0.254667 0.050677 0.052810
C91   C     C_2   0.515296 0.796641 0.917955 0.199326
C92   C     C_2   0.015312 0.703343 0.918001 0.199341
C93   C     C_2   0.015296 0.296642 0.917961 0.199327
C94   C     C_3   0.457894 0.680598 0.200412 -0.017483
C95   C     C_3   0.542910 0.705344 0.342053 -0.357814
C96   C     C_3   0.457873 0.319399 0.200434 -0.017495
C97   C     C_3   0.542892 0.294653 0.342073 -0.357803
C98   C     C_3   0.957883 0.180599 0.200436 -0.017490
C99   C     C_3   0.042908 0.205344 0.342069 -0.357804
C100  C     C_3   0.957900 0.819402 0.200428 -0.017484
Cu1   Cu    Cu3+1 0.526340 0.000000 0.421010 0.946198
Cu2   Cu    Cu3+1 0.026340 0.500000 0.421010 0.946191
Cu3   Cu    Cu3+1 0.473640 0.000000 0.578990 0.900693
Cu4   Cu    Cu3+1 0.973640 0.500000 0.578990 0.900700
H1    H     H_    0.243393 0.856088 0.332202 0.121735
H2    H     H_    0.931838 0.500001 0.116631 0.110776
H3    H     H_    0.297335 0.000003 0.514616 0.120536
H4    H     H_    0.797335 0.500003 0.514616 0.120534
H5    H     H_    0.337692 0.000001 0.894858 0.098743
H6    H     H_    0.837692 0.500005 0.894858 0.098743
H7    H     H_    0.236726 0.000003 0.641764 0.094740
H8    H     H_    0.736726 0.500007 0.641764 0.094739
H9    H     H_    0.619056 1.000000 0.868013 0.182338
H10   H     H_    0.119056 0.500000 0.868013 0.182338
H11   H     H_    0.618273 0.281911 0.153758 0.177760
H12   H     H_    0.243371 0.143896 0.332163 0.121726
H13   H     H_    0.618257 0.718082 0.153725 0.177745
H14   H     H_    0.118284 0.781896 0.153781 0.177750
H15   H     H_    0.118261 0.218084 0.153734 0.177755
H16   H     H_    0.367091 0.833022 0.141487 0.203507
H17   H     H_    0.367105 0.166988 0.141511 0.203511
H18   H     H_    0.867098 0.333017 0.141497 0.203507
H19   H     H_    0.867106 0.666987 0.141514 0.203514
H20   H     H_    0.764755 0.128094 0.689501 0.130116
H21   H     H_    0.764763 0.871912 0.689514 0.130112
H22   H     H_    0.264751 0.628098 0.689493 0.130117
H23   H     H_    0.743381 0.356102 0.332179 0.121732
H24   H     H_    0.264754 0.371895 0.689493 0.130116
H25   H     H_    0.401375 0.683760 0.892298 0.132923
H26   H     H_    0.401379 0.316231 0.892301 0.132921
H27   H     H_    0.901380 0.183751 0.892312 0.132926
H28   H     H_    0.901387 0.816248 0.892322 0.132908
H29   H     H_    0.532737 0.184843 0.727314 0.137847
H30   H     H_    0.532737 0.815148 0.727288 0.137846
H31   H     H_    0.032736 0.684845 0.727312 0.137851
H32   H     H_    0.032735 0.315150 0.727292 0.137848
H33   H     H_    0.705243 0.999999 0.478349 0.109166
H34   H     H_    0.743367 0.643894 0.332157 0.121729
H35   H     H_    0.205243 0.499998 0.478349 0.109169
H36   H     H_    0.449499 0.203383 0.814789 0.097158
H37   H     H_    0.449476 0.796537 0.814715 0.097144
H38   H     H_    0.949487 0.703450 0.814767 0.097145
H39   H     H_    0.949475 0.296535 0.814723 0.097143
H40   H     H_    0.475844 0.634246 0.164604 0.119435
H41   H     H_    0.407894 0.662524 0.213929 0.124772
H42   H     H_    0.526452 0.751037 0.380935 0.168060
H43   H     H_    0.570838 0.660208 0.418015 0.084225
H44   H     H_    0.594978 0.723112 0.333438 0.164886
H45   H     H_    0.722097 0.999998 0.113613 0.096851
H46   H     H_    0.407862 0.337448 0.213946 0.124783
H47   H     H_    0.475812 0.365768 0.164645 0.119439
H48   H     H_    0.594987 0.276944 0.333475 0.164836
H49   H     H_    0.570777 0.339772 0.418068 0.084231
H50   H     H_    0.526455 0.248921 0.380906 0.168107
H51   H     H_    0.975818 0.134230 0.164637 0.119432
H52   H     H_    0.907879 0.162549 0.213960 0.124782
H53   H     H_    0.026475 0.251076 0.380911 0.168109
H54   H     H_    0.070800 0.160225 0.418063 0.084228
H55   H     H_    0.094997 0.223053 0.333458 0.164823
H56   H     H_    0.222097 0.499998 0.113613 0.096851
H57   H     H_    0.907894 0.837485 0.213928 0.124766
H58   H     H_    0.975865 0.865750 0.164634 0.119439
H59   H     H_    0.095000 0.776919 0.333491 0.164824
H60   H     H_    0.070799 0.839764 0.418074 0.084230
H61   H     H_    0.026445 0.748925 0.380898 0.168110
H62   H     H_    0.756487 0.999997 0.338647 0.082524
H63   H     H_    0.256487 0.499997 0.338647 0.082526
H64   H     H_    0.431838 0.000000 0.116631 0.110774
N1    N     N_R   0.566260 1.000000 0.302220 -0.228843
N2    N     N_R   0.066260 0.500000 0.302220 -0.228844
N3    N     N_R   0.434410 1.000000 0.697680 -0.242205
N4    N     N_R   0.934410 0.500000 0.697680 -0.242202
O1    O     O_R   0.608610 0.924520 0.551740 -0.499859
O2    O     O_R   0.435880 0.924530 0.314850 -0.506198
O3    O     O_R   0.935880 0.575470 0.314850 -0.506204
O4    O     O_R   0.935880 0.424530 0.314850 -0.506203
O5    O     O_R   0.391380 0.075460 0.448260 -0.510814
O6    O     O_R   0.391380 0.924540 0.448260 -0.510814
O7    O     O_R   0.891380 0.575460 0.448260 -0.510812
O8    O     O_R   0.891380 0.424540 0.448260 -0.510815
O9    O     O_2   0.520216 0.184344 0.017263 -0.489280
O10   O     O_2   0.520156 0.815623 0.017163 -0.489271
O11   O     O_2   0.020185 0.684352 0.017216 -0.489269
O12   O     O_R   0.608610 0.075480 0.551740 -0.499861
O13   O     O_2   0.020158 0.315626 0.017169 -0.489267
O14   O     O_3   0.424037 0.738352 0.104933 -0.541772
O15   O     O_3   0.424042 0.261654 0.104942 -0.541788
O16   O     O_3   0.924041 0.238344 0.104943 -0.541775
O17   O     O_3   0.924044 0.761650 0.104945 -0.541786
O18   O     O_R   0.108610 0.424520 0.551740 -0.499862
O19   O     O_R   0.108610 0.575480 0.551740 -0.499862
O20   O     O_R   0.564110 0.924510 0.685150 -0.524944
O21   O     O_R   0.564110 0.075490 0.685150 -0.524954
O22   O     O_R   0.064110 0.424510 0.685150 -0.524945
O23   O     O_R   0.064110 0.575490 0.685150 -0.524949
O24   O     O_R   0.435880 0.075470 0.314850 -0.506203

loop_
_geom_bond_atom_site_label_1
_geom_bond_atom_site_label_2
_ccdc_geom_bond_type
C58   H35   S    
Cu2   N2    S    
Cu3   N3    S    
C10   C85   A    
C36   O2    A    
C32   H7    S    
C99   H55   S    
C56   N1    A    
C31   H4    S    
Cu1   O1    S    
C2    C7    A    
C54   N1    A    
C24   C27   S    
C72   C76   A    
C67   H20   S    
C24   O18   A    
C28   C56   A    
C27   C71   A    
C72   H25   S    
C39   C41   A    
C4    C46   A    
C52   H9    S    
C53   H10   S    
C7    C11   A    
C1    O1    A    
C68   C81   A    
C58   N2    A    
C21   C59   A    
C22   C60   A    
C30   H3    S    
C2    C60   A    
C43   C52   A    
Cu4   O7    S    
C31   N4    A    
C11   C86   A    
Cu2   O4    S    
C78   C81   A    
C51   H56   S    
C15   H16   S    
C13   C23   S    
C80   O17   S    
C32   C39   A    
C23   C67   A    
C4    C8    A    
C73   C77   A    
C22   C66   A    
C98   O16   S    
C2    C79   A    
C98   H51   S    
C44   C53   A    
C97   H48   S    
C100  O17   S    
C19   C63   A    
C26   C87   A    
C49   C51   A    
C12   H31   S    
C50   C52   A    
C31   C33   A    
Cu1   N1    S    
C100  H57   S    
C8    C92   S    
C97   H49   S    
C21   H23   S    
C36   C63   S    
C92   H38   S    
C75   C80   A    
C55   N2    A    
C93   H39   S    
Cu1   O24   S    
C35   O23   A    
C18   H19   S    
Cu4   N4    S    
C89   H36   S    
C94   H41   S    
C40   C42   A    
C96   H46   S    
Cu1   Cu3   S    
C13   O21   A    
C74   H27   S    
C96   C97   S    
C1    C25   S    
C41   C43   A    
C96   O15   S    
Cu1   O2    S    
C94   C95   S    
C95   H42   S    
C42   C44   A    
C3    C100  S    
C10   H29   S    
C42   C47   A    
C37   O7    A    
C98   H52   S    
C33   C40   A    
C38   O8    A    
C55   H2    S    
C30   C32   A    
C84   C88   A    
C36   O6    A    
C47   C49   A    
C11   H30   S    
C54   H64   S    
C67   C74   A    
C43   N3    A    
C18   C79   A    
C40   H6    S    
C77   C84   A    
Cu2   O3    S    
C6    C90   A    
C96   H47   S    
C28   H62   S    
C4    C61   A    
C51   C53   A    
C59   C90   A    
C89   O9    D    
C20   C64   A    
C9    C14   A    
C44   N4    A    
C5    C9    A    
C37   O3    A    
C26   C35   S    
C38   O4    A    
C38   C65   S    
C24   O22   A    
C8    C12   A    
C13   O12   A    
C7    C91   S    
C37   C66   S    
C34   C64   S    
Cu2   O19   S    
C57   C84   A    
C95   H43   S    
C60   H13   S    
C33   H8    S    
C97   H50   S    
C29   C49   A    
Cu2   Cu4   S    
C62   H15   S    
Cu1   O12   S    
C3    H60   S    
C19   H1    S    
C80   C82   A    
C45   C54   A    
C99   H53   S    
C74   C78   A    
C26   C70   A    
C71   H24   S    
C91   O10   D    
C25   C69   A    
C9    C93   S    
C76   O14   S    
C75   H28   S    
C3    H61   S    
C47   C55   A    
C45   C48   A    
C34   O24   A    
C68   C90   A    
C16   H17   S    
C15   C63   A    
C73   H26   S    
C28   C48   A    
C17   C68   A    
C35   O19   A    
C12   C87   A    
C21   C65   A    
C61   H14   S    
C95   H44   S    
C94   O14   S    
C20   H12   S    
C92   O11   D    
C83   C87   A    
C6    C10   A    
C79   C82   A    
C100  H58   S    
C3    H59   S    
C18   C66   A    
C6    C89   S    
Cu3   O21   S    
C22   H34   S    
C17   C65   A    
C5    C57   A    
Cu3   O6    S    
C94   H40   S    
C29   H63   S    
C14   C88   A    
C41   C45   A    
C82   C86   A    
C56   H33   S    
C50   H45   S    
C70   H22   S    
Cu4   O8    S    
C14   H32   S    
C19   C61   A    
C77   O15   S    
C48   C50   A    
C25   C86   A    
Cu2   O18   S    
Cu4   O23   S    
C5    C62   A    
C69   C75   A    
C16   C57   A    
C76   C83   A    
C20   C62   A    
C27   C88   A    
C30   N3    A    
C69   H21   S    
C46   C83   A    
C1    O20   A    
C17   H18   S    
C39   H5    S    
C78   O16   S    
C29   C58   A    
C59   H11   S    
C98   C99   S    
C23   C85   A    
C99   H54   S    
C71   C73   A    
Cu4   O22   S    
C34   O5    A    
C70   C72   A    
Cu3   O20   S    
C16   C64   A    
C15   C46   A    
Cu3   O5    S    
C81   C85   A    
C91   H37   S    
C93   O13   D    
