data_mof_unit_40612.cif
_audit_creation_date              2012-12-10T16:55:46-0500
_audit_creation_method            fapswitch 2.2
_symmetry_space_group_name_H-M    P1
_symmetry_Int_Tables_number       1
_space_group_crystal_system       triclinic
_cell_length_a                    7.785335
_cell_length_b                    8.578204
_cell_length_c                    10.499352
_cell_angle_alpha                 91.414023
_cell_angle_beta                  85.054251
_cell_angle_gamma                 93.850102
_cell_volume                      696.87760622

loop_
_atom_site_label
_atom_site_type_symbol
_atom_type_description
_atom_site_fract_x
_atom_site_fract_y
_atom_site_fract_z
_atom_type_partial_charge
C1    C     C_R   0.545881 0.794756 0.497025 0.964997
C2    C     C_R   0.454139 0.205267 0.503611 0.961378
C3    C     C_R   0.500625 0.499638 0.742299 0.879136
C4    C     C_R   0.499325 0.499390 0.257662 0.890845
C5    C     C_3   0.337522 0.517239 0.968781 -0.222532
C6    C     C_3   0.663052 0.479733 0.031446 -0.181444
C7    C     C_3   0.448005 0.632388 0.046382 0.271684
C8    C     C_3   0.552716 0.364637 0.953191 0.277076
C9    C     C_3   0.499742 0.498121 0.122987 -0.070231
C10   C     C_3   0.500629 0.499253 0.876852 -0.066539
C11   C     C_3   0.391178 0.379532 0.046409 -0.273047
C12   C     C_3   0.609707 0.617735 0.953497 -0.228891
C13   C     C_2   0.569939 0.958382 0.495824 -0.374677
C14   C     C_2   0.430115 0.041686 0.505916 -0.386170
H1    H     H_    0.304399 0.282885 0.088521 0.143125
H2    H     H_    0.696115 0.715155 0.911970 0.142398
H3    H     H_    0.013671 0.381949 0.403685 0.190988
H4    H     H_    0.986311 0.617963 0.596388 0.187282
H5    H     H_    0.701899 0.009746 0.486416 0.179622
H6    H     H_    0.298158 0.990334 0.515485 0.178752
N1    N     N_2   0.950320 0.457950 0.465730 -0.178250
N2    N     N_2   0.049680 0.542050 0.534270 -0.179553
O1    O     O_R   0.389250 0.738570 0.508410 -0.614836
O2    O     O_R   0.610750 0.261430 0.491590 -0.610920
O3    O     O_R   0.678390 0.711620 0.486450 -0.629662
O4    O     O_R   0.321610 0.288380 0.513550 -0.631526
O5    O     O_R   0.355460 0.513510 0.697030 -0.625610
O6    O     O_R   0.644540 0.486490 0.302970 -0.619881
O7    O     O_R   0.644600 0.486560 0.675070 -0.634414
O8    O     O_R   0.355400 0.513440 0.324930 -0.637084
Zn1   Zn    Zn3+2 0.306940 0.517990 0.514670 0.928084
Zn2   Zn    Zn3+2 0.693060 0.482010 0.485330 0.932922
N3    N     N_2   0.390956 0.777374 0.103259 -0.304285
H7    H     H_    0.296322 0.761019 0.177495 0.236613
C15   C     C_3   0.349208 0.889891 0.012524 -0.787621
H8    H     H_    0.321810 0.001478 0.063404 0.240404
H9    H     H_    0.233172 0.846307 0.964422 0.229047
H10   H     H_    0.459526 0.912319 0.939644 0.255552
N4    N     N_2   0.602793 0.216444 0.897670 -0.310286
H11   H     H_    0.520437 0.170630 0.832447 0.212664
C16   C     C_3   0.783725 0.207190 0.855888 -0.771351
H12   H     H_    0.805452 0.088904 0.814782 0.228164
H13   H     H_    0.863459 0.226330 0.938271 0.237383
H14   H     H_    0.825248 0.295040 0.781780 0.260829
H15   H     H_    0.205932 0.534861 0.940825 0.157723
H16   H     H_    0.794318 0.463767 0.060738 0.152142

loop_
_geom_bond_atom_site_label_1
_geom_bond_atom_site_label_2
_ccdc_geom_bond_type
O2    Zn2   S    
C1    O1    A    
N1    Zn2   S    
C8    N4    S    
C16   H13   S    
C16   H12   S    
C15   H8    S    
C11   H1    S    
C6    C9    S    
C3    O5    A    
N3    H7    S    
C5    C7    S    
C5    C10   S    
C2    O4    A    
C3    C10   S    
C13   C14   D    
C1    O3    A    
C9    C11   S    
C7    C12   S    
C10   C12   S    
O3    Zn2   S    
C8    C11   S    
C6    C12   S    
N1    N2    D    
N3    C15   S    
C5    C11   S    
O7    Zn2   S    
C7    C9    S    
C2    O2    A    
O8    Zn1   S    
C2    C14   S    
C16   H14   S    
C4    O8    A    
C1    C13   S    
N2    Zn1   S    
C7    N3    S    
O5    Zn1   S    
C14   H6    S    
O6    Zn2   S    
C15   H10   S    
N4    C16   S    
C8    C10   S    
O4    Zn1   S    
N4    H11   S    
C3    O7    A    
C13   H5    S    
C4    O6    A    
C6    C8    S    
C6    H16   S    
C15   H9    S    
C4    C9    S    
H4    N2    S    
C5    H15   S    
H3    N1    S    
C12   H2    S    
O1    Zn1   S    
