data_mof_unit_56783.cif
_audit_creation_date              2013-03-05T15:46:21-0500
_audit_creation_method            fapswitch 2.2
_symmetry_space_group_name_H-M    P1
_symmetry_Int_Tables_number       1
_space_group_crystal_system       triclinic
_cell_length_a                    10.956307
_cell_length_b                    10.97828
_cell_length_c                    18.7343
_cell_angle_alpha                 90.318537
_cell_angle_beta                  90.415395
_cell_angle_gamma                 59.600917
_cell_volume                      1943.54040335

loop_
_atom_site_label
_atom_site_type_symbol
_atom_site_description
_atom_site_fract_x
_atom_site_fract_y
_atom_site_fract_z
_atom_type_partial_charge
O1    O     O_R   0.748800 0.497470 0.428000 -0.526860
O2    O     O_R   0.476420 0.724060 0.429470 -0.512161
C1    C     C_R   0.359314 0.772322 0.397778 0.543153
O3    O     O_R   0.264580 0.744340 0.416750 -0.503673
O4    O     O_R   0.309380 0.472470 0.418200 -0.490834
C2    C     C_R   0.380817 0.350819 0.390260 0.535539
O5    O     O_R   0.501710 0.260430 0.414300 -0.531235
O6    O     O_R   0.728090 0.305600 0.428960 -0.497171
C3    C     C_R   0.778334 0.378179 0.403417 0.542061
O7    O     O_R   0.738760 0.495930 0.588610 -0.513983
O8    O     O_R   0.467110 0.722640 0.578360 -0.522807
C4    C     C_R   0.343393 0.770913 0.604152 0.541885
O9    O     O_R   0.254530 0.742800 0.577360 -0.523246
O10   O     O_R   0.300070 0.471040 0.567100 -0.508335
C5    C     C_R   0.367756 0.348775 0.594697 0.542544
O11   O     O_R   0.491670 0.258900 0.574910 -0.526506
O12   O     O_R   0.718780 0.304180 0.577850 -0.503439
C6    C     C_R   0.703260 0.409938 0.616557 0.563453
Cr1   Cr    Cr6+3 0.601770 0.606860 0.505860 0.997170
Cr2   Cr    Cr6+3 0.291380 0.601660 0.495070 1.021232
Cr3   Cr    Cr6+3 0.606880 0.291510 0.499120 1.007188
O13   O     O_3   0.500010 0.500010 0.500020 -0.264039
C7    C     C_R   0.864321 0.897549 0.123801 -0.092581
C8    C     C_R   0.844880 0.014007 0.162784 -0.153337
C9    C     C_R   0.713713 0.108086 0.191901 -0.131449
C10   C     C_R   0.598078 0.090042 0.181235 0.006814
H1    H     H_    0.532121 0.119794 0.314101 0.145429
C11   C     C_R   0.347823 0.310210 0.169915 0.002493
C12   C     C_R   0.446987 0.205023 0.284024 -0.147200
C13   C     C_R   0.457762 0.198910 0.210599 -0.021715
C14   C     C_R   0.073689 0.700891 0.287217 -0.072922
C15   C     C_R   0.961885 0.820956 0.318836 -0.095443
C16   C     C_R   0.621787 0.964969 0.148318 -0.047512
C17   C     C_R   0.752475 0.871273 0.115926 0.206423
C18   C     C_R   0.236349 0.426320 0.204803 -0.158400
C19   C     C_R   0.232308 0.437222 0.278875 -0.034992
C20   C     C_R   0.885833 0.807150 0.374505 -0.109454
C21   C     C_R   0.922413 0.673181 0.399324 -0.099016
C22   C     C_R   0.034694 0.552758 0.368289 -0.046991
C23   C     C_R   0.111872 0.565214 0.311926 0.060113
C24   C     C_R   0.343481 0.327061 0.318679 -0.007714
H2    H     H_    0.934922 0.925005 0.300787 0.109860
H3    H     H_    0.967080 0.827317 0.100840 0.157019
H4    H     H_    0.931613 0.030979 0.170967 0.144170
H5    H     H_    0.702122 0.192937 0.224859 0.136170
H6    H     H_    0.132068 0.713909 0.244432 0.111842
H7    H     H_    0.537651 0.943807 0.147137 0.162762
H8    H     H_    0.149578 0.508430 0.174162 0.152419
H9    H     H_    0.799391 0.900346 0.398832 0.111165
H10   H     H_    0.864690 0.662791 0.443202 0.130727
H11   H     H_    0.063500 0.450167 0.389340 0.098484
C25   C     C_R   0.955755 0.301670 0.308255 -0.155856
H12   H     H_    0.040939 0.264438 0.346955 0.096899
C26   C     C_R   0.984620 0.295017 0.236022 -0.133086
H13   H     H_    0.092800 0.254169 0.218924 0.116294
C27   C     C_R   0.875089 0.336290 0.185895 0.035949
C28   C     C_R   0.734867 0.399888 0.207200 -0.156445
H14   H     H_    0.649736 0.437172 0.168355 0.124746
C29   C     C_R   0.705654 0.407471 0.279489 -0.142935
H15   H     H_    0.596762 0.452643 0.296511 0.123047
C30   C     C_R   0.816391 0.356070 0.329595 0.039524
C31   C     C_R   0.475082 0.761919 0.284641 -0.138848
H16   H     H_    0.577317 0.687464 0.307025 0.152641
C32   C     C_R   0.463458 0.782757 0.211353 -0.170567
H17   H     H_    0.555134 0.723497 0.177993 0.165004
C33   C     C_R   0.331585 0.876755 0.182356 0.020513
C34   C     C_R   0.214674 0.952718 0.227211 -0.141034
H18   H     H_    0.114600 0.030167 0.205691 0.124841
C35   C     C_R   0.223791 0.926279 0.299210 -0.149680
H19   H     H_    0.129927 0.979065 0.332046 0.118485
C36   C     C_R   0.353034 0.827149 0.327588 0.034569
C37   C     C_R   0.391314 0.187111 0.690900 -0.142982
H20   H     H_    0.474075 0.098261 0.661935 0.142074
C38   C     C_R   0.371678 0.169705 0.761912 -0.166212
H21   H     H_    0.439196 0.067454 0.785653 0.145156
C39   C     C_R   0.274015 0.284228 0.803250 0.005188
C40   C     C_R   0.185471 0.416541 0.770049 0.207549
C41   C     C_R   0.206153 0.432730 0.698138 -0.108106
H22   H     H_    0.145764 0.536632 0.674361 0.154844
C42   C     C_R   0.314780 0.320655 0.659882 -0.014574
C43   C     C_R   0.712921 0.495277 0.736704 -0.110249
H23   H     H_    0.682944 0.596703 0.714074 0.142837
C44   C     C_R   0.741310 0.475343 0.809017 -0.088979
H24   H     H_    0.730880 0.563512 0.840203 0.177274
C45   C     C_R   0.798169 0.340196 0.838863 0.022724
C46   C     C_R   0.807568 0.229530 0.796802 -0.132217
H25   H     H_    0.851258 0.124243 0.818506 0.139183
C47   C     C_R   0.771765 0.251932 0.724310 -0.127436
H26   H     H_    0.783596 0.164432 0.692095 0.138904
C48   C     C_R   0.730872 0.383816 0.693289 0.022216
C49   C     C_R   0.197803 0.837272 0.712222 -0.125369
H27   H     H_    0.112653 0.835021 0.683633 0.143795
C50   C     C_R   0.190450 0.846948 0.785654 -0.101639
H28   H     H_    0.096058 0.860871 0.811469 0.176483
C51   C     C_R   0.300930 0.844869 0.824631 0.036373
C52   C     C_R   0.419171 0.831998 0.789148 -0.152864
H29   H     H_    0.505100 0.831800 0.818220 0.139884
C53   C     C_R   0.423869 0.827836 0.715393 -0.156530
H30   H     H_    0.514183 0.821720 0.688770 0.124548
C54   C     C_R   0.316518 0.823935 0.676749 0.029206
O14   O     O_R   0.186690 0.923650 0.086970 -0.531024
O15   O     O_R   0.957250 0.194250 0.084630 -0.527019
C55   C     C_R   0.911400 0.316610 0.111855 0.540630
O16   O     O_R   0.934970 0.407490 0.085330 -0.443561
O17   O     O_R   0.203780 0.365190 0.067090 -0.485999
C56   C     C_R   0.327008 0.289869 0.094770 0.546794
O18   O     O_R   0.417600 0.174890 0.067840 -0.512453
O19   O     O_R   0.375320 0.946260 0.070860 -0.483074
C57   C     C_R   0.305842 0.902550 0.106534 0.557903
O20   O     O_R   0.160600 0.919630 0.926660 -0.499265
O21   O     O_R   0.933060 0.190520 0.936020 -0.508600
C58   C     C_R   0.877101 0.312001 0.906160 0.535139
O22   O     O_R   0.908880 0.403460 0.925020 -0.472174
O23   O     O_R   0.179600 0.361450 0.918490 -0.422059
C59   C     C_R   0.269850 0.257376 0.879475 0.548074
O24   O     O_R   0.391510 0.170860 0.907530 -0.510602
O25   O     O_R   0.351130 0.942530 0.922260 -0.511952
C60   C     C_R   0.275964 0.893499 0.897927 0.554994
Cr4   Cr    Cr6+3 0.062440 0.063090 0.008210 1.029195
Cr5   Cr    Cr6+3 0.062880 0.375170 0.998920 1.166764
Cr6   Cr    Cr6+3 0.374700 0.061720 0.992470 1.071391
O26   O     O_3   0.166667 0.166667 0.999870 -0.304660
N1    N     N_R   0.771034 0.753168 0.073702 0.060382
O27   O     O_R   0.889744 0.673651 0.040631 -0.313168
O28   O     O_R   0.665878 0.732333 0.061992 -0.359567
N2    N     N_R   0.083876 0.538400 0.808868 0.088439
O29   O     O_R   0.953573 0.608407 0.786187 -0.370830
O30   O     O_R   0.127735 0.598772 0.853955 -0.315937

loop_
_geom_bond_atom_site_label_1
_geom_bond_atom_site_label_2
_geom_bond_distance
_ccdc_geom_bond_type
C22   H11   1.080293 S    
C17   N1    1.439568 S    
H1    C12   1.085353 S    
C51   C52   1.402258 A    
C5    C42   1.455799 S    
O19   Cr6   1.943014 S    
C45   C58   1.466578 S    
O20   C60   1.269194 A    
O23   C59   1.294309 A    
N1    O27   1.301590 A    
O4    Cr2   1.955163 S    
C45   C46   1.404094 A    
C14   C23   1.407888 A    
C4    O9    1.261113 A    
O8    Cr1   1.936266 S    
C50   H28   1.083177 S    
C38   C39   1.401822 A    
C44   H24   1.083544 S    
C3    C30   1.430958 S    
C25   C30   1.389708 A    
C21   C22   1.398238 A    
C41   C42   1.401623 A    
C28   C29   1.386191 A    
C56   O18   1.251105 A    
O14   C57   1.257062 A    
C59   O24   1.291985 A    
C39   C59   1.465430 S    
C7    H3    1.082531 S    
O19   C57   1.279459 A    
O21   Cr4   1.944696 S    
C6    C48   1.466524 S    
C35   C36   1.381331 A    
O25   Cr6   1.956241 S    
C31   C32   1.387497 A    
O21   C58   1.281896 A    
C11   C18   1.403732 A    
Cr5   O26   1.974553 S    
O6    C3    1.272348 A    
C14   H6    1.083159 S    
C52   C53   1.382716 A    
C7    C8    1.389101 A    
O17   Cr5   1.956522 S    
C49   C54   1.404830 A    
C12   C13   1.379833 A    
C40   C41   1.394906 A    
C33   C34   1.403234 A    
C29   H15   1.084439 S    
C50   C51   1.399401 A    
Cr3   O13   1.974365 S    
C19   C24   1.417160 A    
O15   C55   1.276761 A    
C18   H8    1.084645 S    
C58   O22   1.265819 A    
C43   C44   1.381391 A    
C25   C26   1.385036 A    
C43   H23   1.077300 S    
C51   C60   1.447379 S    
C26   C27   1.401922 A    
O1    Cr1   2.054659 S    
C29   C30   1.402897 A    
C38   H21   1.079594 S    
C34   H18   1.068442 S    
O14   Cr4   2.064144 S    
O10   Cr2   1.941086 S    
C19   C23   1.491535 S    
Cr1   O13   1.987807 S    
O1    C3    1.264311 A    
C8    C9    1.390147 A    
C37   C38   1.378859 A    
O24   Cr6   2.061679 S    
C11   C56   1.458454 S    
C49   H27   1.083411 S    
C41   H22   1.083927 S    
C9    C10   1.390741 A    
O5    Cr3   2.081952 S    
C2    C24   1.459395 S    
O12   Cr3   1.960107 S    
C34   C35   1.373563 A    
C18   C19   1.391264 A    
C32   C33   1.390503 A    
C1    C36   1.435868 S    
C20   C21   1.395808 A    
C49   C50   1.378982 A    
O22   Cr5   2.073803 S    
C20   H9    1.082535 S    
C10   C16   1.401807 A    
C14   C15   1.398781 A    
O7    Cr1   2.067978 S    
C7    C17   1.400458 A    
C52   H29   1.083289 S    
C31   H16   1.081222 S    
O12   C6    1.302075 A    
C15   C20   1.395400 A    
C39   C40   1.418841 A    
Cr6   O26   1.971520 S    
C43   C48   1.394711 A    
C44   C45   1.403847 A    
Cr2   O13   1.973677 S    
C10   C13   1.496641 S    
C53   C54   1.395576 A    
C16   H7    1.058574 S    
C27   C28   1.388264 A    
O18   Cr6   2.078494 S    
C1    O3    1.275640 A    
C9    H5    1.067771 S    
C22   C23   1.407225 A    
C25   H12   1.082213 S    
Cr4   O26   1.984971 S    
C26   H13   1.083761 S    
N2    O30   1.301494 A    
O9    Cr2   2.071207 S    
C12   C24   1.402103 A    
O2    Cr1   1.947657 S    
C46   H25   1.083041 S    
C27   C55   1.430625 S    
C47   C48   1.408486 A    
C37   H20   1.083612 S    
O6    Cr3   1.936662 S    
O20   Cr4   2.062542 S    
O8    C4    1.277234 A    
O11   Cr3   2.055851 S    
C2    O5    1.268093 A    
C21   H10   1.081804 S    
O17   C56   1.280730 A    
C32   H17   1.079807 S    
C11   C13   1.425606 A    
O2    C1    1.258536 A    
C37   C42   1.395872 A    
O25   C60   1.271304 A    
C28   H14   1.083599 S    
O4    C2    1.269047 A    
O7    C6    1.302572 A    
N2    O29   1.301451 A    
C8    H4    1.066770 S    
C16   C17   1.411250 A    
C31   C36   1.410081 A    
C46   C47   1.398969 A    
C33   C57   1.447519 S    
C35   H19   1.083483 S    
C4    C54   1.448730 S    
N1    O28   1.300128 A    
C40   N2    1.432294 S    
O3    Cr2   2.060701 S    
C47   H26   1.082805 S    
C53   H30   1.082557 S    
C55   O16   1.255851 A    
C15   H2    1.080616 S    
O10   C5    1.270305 A    
O23   Cr5   1.938812 S    
O15   Cr4   1.942373 S    
C5    O11   1.265574 A    
O16   Cr5   2.057611 S    
