data_mof_unit_51035.cif
_audit_creation_date              2012-12-11T17:04:44-0500
_audit_creation_method            fapswitch 2.2
_symmetry_space_group_name_H-M    P1
_symmetry_Int_Tables_number       1
_space_group_crystal_system       triclinic
_cell_length_a                    17.263954
_cell_length_b                    24.447295
_cell_length_c                    14.965001
_cell_angle_alpha                 90.654208
_cell_angle_beta                  125.473741
_cell_angle_gamma                 89.045299
_cell_volume                      5142.97576386

loop_
_atom_site_label
_atom_site_type_symbol
_atom_type_description
_atom_site_fract_x
_atom_site_fract_y
_atom_site_fract_z
_atom_type_partial_charge
C1    C     C_R   0.860607 0.654383 0.908034 0.694576
C2    C     C_R   0.192465 0.623311 0.097316 0.700045
C3    C     C_R   0.360605 0.154384 0.908039 0.694568
C4    C     C_R   0.692457 0.123324 0.097313 0.700007
C5    C     C_R   0.855053 0.329184 0.998431 0.022192
C6    C     C_R   0.176076 0.349678 0.998015 0.052293
C7    C     C_R   0.355102 0.829164 0.998449 0.022250
C8    C     C_R   0.676054 0.849657 0.998011 0.052325
C9    C     C_R   0.076636 0.502144 0.372613 0.055810
C10   C     C_R   0.994215 0.499276 0.668314 0.097700
C11   C     C_R   0.576642 0.002142 0.372615 0.055981
C12   C     C_R   0.494227 0.999276 0.668325 0.097649
C13   C     C_R   0.674299 0.502174 0.722259 0.135473
C14   C     C_R   0.305380 0.498989 0.363245 0.076529
C15   C     C_R   0.174329 0.002166 0.722497 0.134861
C16   C     C_R   0.805554 0.998993 0.363101 0.076742
C17   C     C_3   0.493909 0.471783 0.634515 0.757440
C18   C     C_3   0.461893 0.448851 0.522614 0.692583
C19   C     C_3   0.994146 0.971139 0.633902 0.756829
C20   C     C_3   0.962455 0.948926 0.521659 0.692180
C21   C     C_3   0.426952 0.522169 0.579266 -0.334404
C22   C     C_3   0.541198 0.479210 0.527774 -0.365075
C23   C     C_3   0.926813 0.021449 0.579502 -0.333489
C24   C     C_3   0.041570 0.979925 0.527543 -0.363839
C25   C     C_3   0.396918 0.498714 0.467809 -0.113817
C26   C     C_3   0.572764 0.502471 0.640068 -0.123871
C27   C     C_3   0.897094 0.998719 0.467681 -0.114071
C28   C     C_3   0.072819 0.002458 0.640203 -0.123919
C29   C     C_3   0.476304 0.529735 0.473425 -0.100535
C30   C     C_3   0.508174 0.553115 0.586013 -0.140674
C31   C     C_3   0.976287 0.030378 0.474025 -0.101111
C32   C     C_3   0.007862 0.053038 0.586999 -0.140877
C33   C     C_R   0.787046 0.272423 0.065514 -0.067311
C34   C     C_R   0.228205 0.302585 0.895174 -0.070569
C35   C     C_R   0.287234 0.772376 0.065666 -0.067195
C36   C     C_R   0.728172 0.802563 0.895162 -0.070483
C37   C     C_R   0.815842 0.278433 0.997406 0.108481
C38   C     C_R   0.249806 0.321620 0.995271 0.116032
C39   C     C_R   0.315912 0.778409 0.997450 0.108630
C40   C     C_R   0.749780 0.821599 0.995262 0.115901
C41   C     C_R   0.815833 0.233660 0.938529 -0.216571
C42   C     C_R   0.342776 0.313797 0.089839 -0.211327
C43   C     C_R   0.315808 0.733650 0.938480 -0.216500
C44   C     C_R   0.842760 0.813789 0.089820 -0.211238
C45   C     C_R   0.930474 0.353913 0.091469 0.191004
C46   C     C_R   0.084536 0.362430 0.907130 0.178122
C47   C     C_R   0.430509 0.853903 0.091479 0.190902
C48   C     C_R   0.584520 0.862420 0.907128 0.178122
C49   C     C_R   0.278839 0.683722 0.940900 0.235466
C50   C     C_R   0.904600 0.777757 0.086257 0.268817
C51   C     C_R   0.778866 0.183731 0.940945 0.235464
C52   C     C_R   0.404608 0.277754 0.086285 0.268638
C53   C     C_R   0.241384 0.679467 0.003698 0.070187
C54   C     C_R   0.868353 0.745439 0.991473 0.170502
C55   C     C_R   0.741330 0.179488 0.003658 0.070236
C56   C     C_R   0.368360 0.245440 0.991495 0.170590
C57   C     C_R   0.250628 0.724202 0.068261 -0.015964
C58   C     C_R   0.785258 0.762703 0.892941 -0.127226
C59   C     C_R   0.750454 0.224243 0.068116 -0.015929
C60   C     C_R   0.285280 0.262715 0.892958 -0.127191
C61   C     C_3   0.180850 0.752072 0.083013 0.588793
C62   C     C_3   0.782359 0.791697 0.803445 0.762394
C63   C     C_3   0.680541 0.252106 0.082648 0.588693
C64   C     C_3   0.282408 0.291707 0.803477 0.762404
C65   C     C_3   0.721592 0.306125 0.079554 -0.019319
C66   C     C_3   0.223521 0.336000 0.808688 -0.096720
C67   C     C_3   0.221939 0.806086 0.079959 -0.019466
C68   C     C_3   0.723465 0.835981 0.808664 -0.096676
C69   C     C_R   0.079916 0.547117 0.605979 0.195042
C70   C     C_R   0.113691 0.549695 0.541775 0.144072
C71   C     C_R   0.579944 0.047112 0.606001 0.195078
C72   C     C_R   0.613712 0.049688 0.541790 0.143978
C73   C     C_R   0.040258 0.498599 0.610989 -0.055956
C74   C     C_R   0.116886 0.502268 0.490297 -0.084657
C75   C     C_R   0.540270 0.998597 0.610999 -0.055994
C76   C     C_R   0.616891 0.002262 0.490299 -0.085041
C77   C     C_R   0.060111 0.449537 0.574974 0.110964
C78   C     C_R   0.116552 0.452558 0.535825 0.173991
C79   C     C_R   0.560107 0.949535 0.574970 0.111305
C80   C     C_R   0.616546 0.952552 0.535818 0.173827
C81   C     C_3   0.070415 0.605326 0.500483 -0.437679
C82   C     C_3   0.036370 0.603055 0.572735 -0.461713
C83   C     C_3   0.570461 0.105325 0.500520 -0.437642
C84   C     C_3   0.536423 0.103056 0.572781 -0.461745
C85   C     C_R   0.059278 0.546580 0.307668 -0.086845
C86   C     C_R   0.978449 0.545586 0.711774 -0.077083
C87   C     C_R   0.559285 0.046579 0.307672 -0.086775
C88   C     C_R   0.478457 0.045587 0.711779 -0.077107
C89   C     C_R   0.730150 0.455769 0.748763 -0.095312
C90   C     C_R   0.257698 0.454074 0.301392 -0.085484
C91   C     C_R   0.230169 0.955768 0.748878 -0.095005
C92   C     C_R   0.757797 0.954074 0.301307 -0.084469
C93   C     C_R   0.052769 0.456574 0.306199 -0.069328
C94   C     C_R   0.987346 0.454420 0.719021 -0.042873
C95   C     C_R   0.552768 0.956573 0.306198 -0.069514
C96   C     C_R   0.487356 0.954420 0.719029 -0.042798
C97   C     C_R   0.730103 0.547530 0.749295 -0.102942
C98   C     C_R   0.257193 0.545129 0.305177 -0.048513
C99   C     C_R   0.230115 0.047522 0.749416 -0.103033
C100  C     C_R   0.757269 0.045132 0.305114 -0.048966
C101  C     C_R   0.836723 0.355315 0.907651 -0.126205
C102  C     C_R   0.185322 0.370216 0.090546 -0.107304
C103  C     C_R   0.336750 0.855301 0.907662 -0.125989
C104  C     C_R   0.685308 0.870199 0.090543 -0.107256
C105  C     C_R   0.940866 0.653465 0.088917 0.148359
C106  C     C_R   0.116144 0.606476 0.921528 0.133978
C107  C     C_R   0.440861 0.153462 0.088923 0.148446
C108  C     C_R   0.616143 0.106476 0.921528 0.134050
C109  C     C_R   0.893263 0.687487 0.997731 -0.144787
C110  C     C_R   0.196928 0.631123 0.009891 -0.092914
C111  C     C_R   0.393258 0.187485 0.997741 -0.144863
C112  C     C_R   0.696919 0.131132 0.009884 -0.092929
H1    H     H_    0.467754 0.553545 0.405378 0.184077
H2    H     H_    0.528629 0.596094 0.613519 0.170269
H3    H     H_    0.967624 0.054718 0.406469 0.184305
H4    H     H_    0.028012 0.095941 0.615362 0.170296
H5    H     H_    0.844008 0.237723 0.890419 0.174156
H6    H     H_    0.367162 0.334700 0.165800 0.167653
H7    H     H_    0.343912 0.737723 0.890297 0.174141
H8    H     H_    0.867149 0.834697 0.165777 0.168110
H9    H     H_    0.194352 0.743313 0.163593 0.087427
H10   H     H_    0.743287 0.768600 0.724786 0.074118
H11   H     H_    0.693957 0.243381 0.163195 0.087402
H12   H     H_    0.243336 0.268615 0.724812 0.074124
H13   H     H_    0.761026 0.327744 0.159896 0.106739
H14   H     H_    0.150275 0.338388 0.732610 0.132500
H15   H     H_    0.261507 0.827651 0.160360 0.106760
H16   H     H_    0.650215 0.838361 0.732593 0.132545
H17   H     H_    0.008940 0.605576 0.413640 0.230272
H18   H     H_    0.072482 0.632848 0.641649 0.228701
H19   H     H_    0.508984 0.105585 0.413679 0.230275
H20   H     H_    0.572555 0.132840 0.641709 0.228677
H21   H     H_    0.124495 0.637310 0.525448 0.227709
H22   H     H_    0.957418 0.602955 0.525151 0.209827
H23   H     H_    0.624556 0.137300 0.525491 0.227661
H24   H     H_    0.457472 0.102968 0.525204 0.209828
H25   H     H_    0.087252 0.587089 0.336693 0.131514
H26   H     H_    0.977144 0.588060 0.692580 0.129607
H27   H     H_    0.587259 0.087087 0.336697 0.131558
H28   H     H_    0.477154 0.088060 0.692587 0.129619
H29   H     H_    0.705884 0.414128 0.729279 0.135552
H30   H     H_    0.270352 0.411999 0.328204 0.181156
H31   H     H_    0.205896 0.914128 0.729370 0.136101
H32   H     H_    0.770464 0.912005 0.328162 0.180876
H33   H     H_    0.066679 0.415099 0.332634 0.165814
H34   H     H_    0.999138 0.412605 0.709738 0.157832
H35   H     H_    0.566664 0.915097 0.332626 0.165875
H36   H     H_    0.499156 0.912605 0.709753 0.157813
H37   H     H_    0.707789 0.589983 0.734309 0.153841
H38   H     H_    0.269651 0.586163 0.337950 0.182610
H39   H     H_    0.207774 0.089972 0.734404 0.154024
H40   H     H_    0.769741 0.086162 0.337910 0.182613
H41   H     H_    0.793374 0.340691 0.823916 0.138246
H42   H     H_    0.245176 0.365574 0.175101 0.131742
H43   H     H_    0.293405 0.840674 0.823928 0.138366
H44   H     H_    0.745155 0.865544 0.175096 0.132128
H45   H     H_    0.377619 0.539015 0.597833 0.193452
H46   H     H_    0.588618 0.461528 0.507007 0.194356
H47   H     H_    0.877273 0.037703 0.598241 0.193546
H48   H     H_    0.089221 0.962833 0.506612 0.194385
N1    N     N_R   0.892620 0.603790 0.941770 -0.127932
N2    N     N_R   0.107380 0.603790 0.058230 -0.120271
N3    N     N_R   0.392620 0.103790 0.941770 -0.127964
N4    N     N_R   0.607380 0.103790 0.058230 -0.120272
N5    N     N_R   0.952270 0.397640 0.058010 -0.070276
N6    N     N_R   0.047730 0.397640 0.941990 -0.062900
N7    N     N_R   0.452270 0.897640 0.058010 -0.070271
N8    N     N_R   0.547730 0.897640 0.941990 -0.062907
N9    N     N_R   0.026310 0.529110 0.206760 -0.042035
N10   N     N_R   0.973690 0.529110 0.793240 -0.043042
N11   N     N_R   0.526310 0.029110 0.206760 -0.042041
N12   N     N_R   0.473690 0.029110 0.793240 -0.043044
N13   N     N_R   0.818570 0.472310 0.793020 -0.056677
N14   N     N_R   0.181430 0.472310 0.206980 -0.059724
N15   N     N_R   0.318570 0.972310 0.793020 -0.056770
N16   N     N_R   0.681430 0.972310 0.206980 -0.059809
N17   N     N_R   0.026930 0.472300 0.207330 -0.054225
N18   N     N_R   0.973070 0.472300 0.792670 -0.051394
N19   N     N_R   0.526930 0.972300 0.207330 -0.054237
N20   N     N_R   0.473070 0.972300 0.792670 -0.051396
N21   N     N_R   0.817960 0.529130 0.792460 -0.048889
N22   N     N_R   0.182040 0.529130 0.207540 -0.057373
N23   N     N_R   0.317960 0.029130 0.792460 -0.048887
N24   N     N_R   0.682040 0.029130 0.207540 -0.057390
N25   N     N_R   0.894850 0.397640 0.943830 -0.058462
N26   N     N_R   0.105150 0.397640 0.056170 -0.053324
N27   N     N_R   0.394850 0.897640 0.943830 -0.058527
N28   N     N_R   0.605150 0.897640 0.056170 -0.053356
N29   N     N_R   0.950040 0.603780 0.055950 -0.103872
N30   N     N_R   0.049960 0.603780 0.944050 -0.079452
N31   N     N_R   0.450040 0.103780 0.055950 -0.103885
N32   N     N_R   0.549960 0.103780 0.944050 -0.079427
Ni1   Ni    Ni4+2 0.934160 0.565860 0.869070 0.307486
Ni2   Ni    Ni4+2 0.065840 0.565860 0.130930 0.259862
Ni3   Ni    Ni4+2 0.434160 0.065860 0.869070 0.307501
Ni4   Ni    Ni4+2 0.565840 0.065860 0.130930 0.259869
Ni5   Ni    Ni4+2 0.067260 0.435560 0.132230 0.252166
Ni6   Ni    Ni4+2 0.932740 0.435560 0.867770 0.257293
Ni7   Ni    Ni4+2 0.567260 0.935560 0.132230 0.252112
Ni8   Ni    Ni4+2 0.432740 0.935560 0.867770 0.257334
F1    F     F_    0.825149 0.671650 0.805107 -0.702935
F2    F     F_    0.254740 0.641802 0.201070 -0.734343
F3    F     F_    0.325141 0.171654 0.805113 -0.702860
F4    F     F_    0.754683 0.141867 0.201038 -0.734316
F5    F     F_    0.505330 0.441934 0.719299 -0.616522
F6    F     F_    0.438395 0.394865 0.491027 -0.658753
F7    F     F_    0.005692 0.940620 0.718044 -0.616627
F8    F     F_    0.939454 0.895011 0.489060 -0.659270
I1    I     I_    0.286503 0.621177 0.847322 -0.312748
I2    I     I_    0.050532 0.776714 0.220563 -0.266002
I3    I     I_    0.786638 0.121169 0.847475 -0.313115
I4    I     I_    0.550529 0.276691 0.220624 -0.267111
F9    F     F_    0.087650 0.743753 0.994115 -0.623884
F10   F     F_    0.871649 0.808222 0.835933 -0.565575
F11   F     F_    0.587395 0.243724 0.993676 -0.623845
F12   F     F_    0.371710 0.308221 0.835988 -0.565555
I5    I     I_    0.623561 0.357488 0.941684 -0.009093
I6    I     I_    0.293524 0.413813 0.864270 -0.132527
I7    I     I_    0.123867 0.857550 0.942307 -0.009383
I8    I     I_    0.793446 0.913800 0.864230 -0.133195
I9    I     I_    0.972333 0.378913 0.519466 -0.339347
I10   I     I_    0.201781 0.384579 0.548997 -0.208369
I11   I     I_    0.472311 0.878919 0.519453 -0.339341
I12   I     I_    0.701762 0.884568 0.548985 -0.209728
I13   I     I_    0.025740 0.311464 0.240355 -0.328163
I14   I     I_    0.995544 0.307340 0.776145 -0.386828
I15   I     I_    0.525838 0.811460 0.240355 -0.328404
I16   I     I_    0.495506 0.807340 0.776133 -0.386615
I17   I     I_    0.911822 0.660203 0.207921 -0.388134
I18   I     I_    0.188706 0.529788 0.939016 -0.359690
I19   I     I_    0.411795 0.160184 0.207911 -0.388389
I20   I     I_    0.688708 0.029789 0.939028 -0.359543

loop_
_geom_bond_atom_site_label_1
_geom_bond_atom_site_label_2
_ccdc_geom_bond_type
C53   C110  S    
C94   H34   S    
C19   F7    S    
C63   C65   S    
C58   C62   S    
C87   N11   A    
N8    N28   A    
C22   C29   S    
C5    C37   S    
C55   C112  S    
C95   N19   A    
C87   H27   S    
C3    F3    S    
C55   C59   A    
C19   C23   S    
C19   C20   S    
C2    F2    S    
C89   N13   A    
C72   C76   A    
C1    F1    S    
N14   N22   A    
N6    Ni6   S    
C81   C82   S    
N7    Ni7   S    
C33   C65   S    
C12   C96   A    
C77   C78   A    
C92   N16   A    
C98   H38   S    
C50   C54   A    
N10   N18   A    
C88   N12   A    
C17   C26   S    
C68   I8    S    
C38   C42   A    
C36   C58   A    
C11   C76   S    
C108  I20   S    
C48   I16   S    
C10   C73   S    
C49   C53   A    
C4    F4    S    
C10   C94   A    
C11   C95   A    
C61   H9    S    
C94   N18   A    
N9    N17   A    
C57   C61   S    
C42   H6    S    
C70   C81   S    
C73   C77   A    
N31   Ni4   S    
C14   C90   A    
C29   H1    S    
C69   C82   S    
N30   Ni1   S    
C1    C109  A    
N29   Ni2   S    
C88   H28   S    
C20   C24   S    
C11   C87   A    
C23   H47   S    
C70   C74   A    
C100  N24   A    
N23   Ni3   S    
C6    C38   S    
N26   Ni5   S    
C69   C73   A    
N22   Ni2   S    
N3    Ni3   S    
N25   Ni6   S    
C82   H18   S    
C62   H10   S    
N21   Ni1   S    
C102  H42   S    
C56   C111  S    
C99   N23   A    
C3    N3    A    
N3    N31   A    
C9    C85   A    
N12   N20   A    
C16   C27   S    
C4    C112  A    
N13   N21   A    
C33   C59   A    
C83   H23   S    
C7    C103  A    
C34   C60   A    
C62   F10   S    
N11   N19   A    
C18   C25   S    
C61   F9    S    
C101  N25   A    
C28   C32   S    
C31   H3    S    
C34   C66   S    
C34   C38   A    
C85   N9    A    
C60   C64   S    
C14   C98   A    
C91   H31   S    
C50   I2    S    
C25   C29   S    
C104  N28   A    
C5    C101  A    
C71   C75   A    
C105  I17   S    
C107  I19   S    
C12   C88   A    
C27   C31   S    
N32   Ni3   S    
C105  N29   A    
C36   C40   A    
C95   H35   S    
C15   C91   A    
N1    N29   A    
C3    C111  A    
C93   N17   A    
C43   C49   A    
C79   I11   S    
C39   C43   A    
C5    C45   A    
C22   H46   S    
N28   Ni7   S    
N24   Ni4   S    
C99   H39   S    
C84   H20   S    
C33   C37   A    
N5    Ni5   S    
C108  C112  A    
C96   H36   S    
C106  I18   S    
C65   H13   S    
C82   H22   S    
C35   C39   A    
C8    C48   A    
C83   H19   S    
C29   C30   S    
N20   Ni8   S    
C67   H15   S    
C80   I12   S    
C47   I15   S    
C47   N7    A    
C107  C111  A    
C61   C67   S    
C81   H17   S    
C83   C84   S    
C48   N8    A    
C101  H41   S    
C91   N15   A    
N7    N27   A    
N2    Ni2   S    
C105  C109  A    
C4    N4    A    
C17   C18   S    
C46   I14   S    
C103  N27   A    
C100  H40   S    
C13   C97   A    
C102  N26   A    
C104  H44   S    
N6    N26   A    
C93   H33   S    
C19   C28   S    
C8    C104  A    
C64   C66   S    
C90   H30   S    
C45   N5    A    
C78   I10   S    
C103  H43   S    
N1    Ni1   S    
C26   C30   S    
C23   C27   S    
C22   C26   S    
C68   H16   S    
C13   C26   S    
C16   C92   A    
C76   C80   A    
C9    C74   S    
C20   F8    S    
N16   Ni7   S    
C49   I1    S    
C9    C93   A    
N2    N30   A    
C106  N30   A    
N15   N23   A    
C71   C84   S    
C54   C58   A    
C85   H25   S    
C44   C50   A    
N16   N24   A    
C97   H37   S    
C21   C25   S    
C42   C52   A    
C2    C110  A    
N14   Ni5   S    
C7    C39   S    
C46   N6    A    
C6    C46   A    
C13   C89   A    
N13   Ni6   S    
C18   C22   S    
C32   H4    S    
C21   H45   S    
C81   H21   S    
C64   F12   S    
C31   C32   S    
C16   C100  A    
C24   C28   S    
C15   C99   A    
N11   Ni4   S    
C53   C57   A    
N10   Ni1   S    
C63   H11   S    
N4    Ni4   S    
C97   N21   A    
N9    Ni2   S    
C20   C27   S    
C62   C68   S    
C98   N22   A    
C7    C47   A    
C21   C30   S    
C90   N14   A    
C59   C63   S    
C18   F6    S    
N27   Ni8   S    
N18   Ni6   S    
C41   H5    S    
C23   C32   S    
C96   N20   A    
C17   F5    S    
C45   I13   S    
C66   H14   S    
C71   C72   A    
C66   I6    S    
C64   H12   S    
C65   I5    S    
C10   C86   A    
C15   C28   S    
N19   Ni7   S    
C86   N10   A    
C89   H29   S    
N8    Ni8   S    
C67   I7    S    
C30   H2    S    
C51   C55   A    
C6    C102  A    
C14   C25   S    
C37   C41   A    
C69   C70   A    
C92   H32   S    
N5    N25   A    
N15   Ni8   S    
C24   C31   S    
C72   C83   S    
C35   C67   S    
C86   H26   S    
C1    N1    A    
C79   C80   A    
C77   I9    S    
C51   I3    S    
C24   H48   S    
C40   C44   A    
C56   C60   A    
C54   C109  S    
C106  C110  A    
C35   C57   A    
C74   C78   A    
C12   C75   S    
C107  N31   A    
C52   I4    S    
C44   H8    S    
C108  N32   A    
N12   Ni3   S    
N17   Ni5   S    
C8    C40   S    
C63   F11   S    
N4    N32   A    
C75   C79   A    
C36   C68   S    
C41   C51   A    
C52   C56   A    
C43   H7    S    
C2    N2    A    
C84   H24   S    
C17   C21   S    
