data_mof_unit_9289.cif
_audit_creation_date              2012-12-10T20:41:56-0500
_audit_creation_method            fapswitch 2.2
_symmetry_space_group_name_H-M    P1
_symmetry_Int_Tables_number       1
_space_group_crystal_system       triclinic
_cell_length_a                    14.957174
_cell_length_b                    15.334271
_cell_length_c                    9.873816
_cell_angle_alpha                 89.647483
_cell_angle_beta                  88.70639
_cell_angle_gamma                 89.900837
_cell_volume                      2264.00946487

loop_
_atom_site_label
_atom_site_type_symbol
_atom_type_description
_atom_site_fract_x
_atom_site_fract_y
_atom_site_fract_z
_atom_type_partial_charge
C1    C     C_R   0.380950 0.878473 0.500767 0.940200
C2    C     C_R   0.381424 0.121679 0.500293 0.942956
C3    C     C_R   0.880950 0.378473 0.500767 0.940200
C4    C     C_R   0.881424 0.621679 0.500293 0.942955
C5    C     C_3   0.241733 0.185010 0.735709 0.214905
C6    C     C_3   0.265882 0.786358 0.752760 0.210312
C7    C     C_3   0.741732 0.685009 0.735709 0.214906
C8    C     C_3   0.765882 0.286357 0.752760 0.210312
C9    C     C_R   0.427674 0.030291 0.074188 0.206652
C10   C     C_R   0.927674 0.530291 0.074188 0.206652
C11   C     C_R   0.574701 0.978514 0.069503 -0.128951
C12   C     C_R   0.074701 0.478515 0.069503 -0.128950
C13   C     C_R   0.574770 0.978733 0.925589 -0.131014
C14   C     C_R   0.074770 0.478733 0.925589 -0.131014
C15   C     C_R   0.427321 0.029610 0.931471 0.166816
C16   C     C_R   0.927321 0.529610 0.931471 0.166816
C17   C     C_3   0.336614 0.989787 0.934696 -0.408684
C18   C     C_3   0.836614 0.489786 0.934696 -0.408684
C19   C     C_3   0.336076 0.994120 0.087420 -0.504947
C20   C     C_3   0.836076 0.494119 0.087420 -0.504947
C21   C     C_R   0.623892 0.115870 0.498661 0.874604
C22   C     C_R   0.623462 0.883608 0.499296 0.869796
C23   C     C_R   0.123892 0.615870 0.498661 0.874604
C24   C     C_R   0.123463 0.383608 0.499296 0.869796
C25   C     C_R   0.291159 0.229713 0.621614 0.042144
C26   C     C_R   0.302777 0.757430 0.618063 0.040337
C27   C     C_R   0.791158 0.729712 0.621614 0.042143
C28   C     C_R   0.802777 0.257430 0.618063 0.040337
C29   C     C_R   0.325242 0.196964 0.499888 -0.055432
C30   C     C_R   0.324536 0.803022 0.499199 -0.051214
C31   C     C_R   0.825243 0.696964 0.499889 -0.055432
C32   C     C_R   0.824536 0.303022 0.499199 -0.051214
C33   C     C_R   0.308051 0.241069 0.377998 -0.198454
C34   C     C_R   0.297496 0.769302 0.374370 -0.193108
C35   C     C_R   0.808052 0.741070 0.377998 -0.198454
C36   C     C_R   0.797495 0.269302 0.374370 -0.193107
C37   C     C_R   0.745053 0.807454 0.377489 -0.203258
C38   C     C_R   0.735722 0.202280 0.372534 -0.204623
C39   C     C_R   0.245053 0.307454 0.377489 -0.203258
C40   C     C_R   0.235723 0.702280 0.372534 -0.204623
C41   C     C_R   0.701100 0.829850 0.499276 -0.053405
C42   C     C_R   0.702513 0.168279 0.495612 -0.055690
C43   C     C_R   0.201100 0.329850 0.499276 -0.053405
C44   C     C_R   0.202513 0.668279 0.495612 -0.055690
C45   C     C_R   0.732295 0.798016 0.621945 0.056822
C46   C     C_R   0.745252 0.188067 0.615526 0.061065
C47   C     C_R   0.232296 0.298017 0.621945 0.056822
C48   C     C_R   0.245252 0.688067 0.615526 0.061066
C49   C     C_3   0.680327 0.763381 0.741486 -0.481554
C50   C     C_3   0.707086 0.206249 0.753404 -0.471827
C51   C     C_3   0.180328 0.263382 0.741486 -0.481554
C52   C     C_3   0.207085 0.706250 0.753404 -0.471827
H1    H     H_    0.338179 0.220707 0.282498 0.164965
H2    H     H_    0.318573 0.798269 0.278690 0.162250
H3    H     H_    0.838179 0.720708 0.282498 0.164965
H4    H     H_    0.818572 0.298270 0.278690 0.162250
H5    H     H_    0.287778 0.042535 0.129730 0.214619
H6    H     H_    0.334094 0.928907 0.136886 0.219739
H7    H     H_    0.787778 0.542535 0.129730 0.214619
H8    H     H_    0.834094 0.428907 0.136886 0.219739
H9    H     H_    0.726439 0.836219 0.281666 0.158465
H10   H     H_    0.708942 0.182795 0.276296 0.170478
H11   H     H_    0.226439 0.336218 0.281666 0.158465
H12   H     H_    0.208942 0.682795 0.276296 0.170478
H13   H     H_    0.689745 0.803839 0.833075 0.162190
H14   H     H_    0.727556 0.156059 0.828373 0.167132
H15   H     H_    0.189746 0.303840 0.833075 0.162189
H16   H     H_    0.227555 0.656059 0.828373 0.167132
H17   H     H_    0.609274 0.749148 0.719041 0.239828
H18   H     H_    0.634154 0.220595 0.754653 0.248583
H19   H     H_    0.109275 0.249149 0.719042 0.239828
H20   H     H_    0.134153 0.720596 0.754652 0.248583
H21   H     H_    0.282493 0.176772 0.827518 0.097279
H22   H     H_    0.316063 0.785026 0.833843 0.093611
H23   H     H_    0.782492 0.676772 0.827518 0.097279
H24   H     H_    0.816063 0.285025 0.833843 0.093611
H25   H     H_    0.634571 0.959661 0.121748 0.140599
H26   H     H_    0.134571 0.459661 0.121748 0.140599
H27   H     H_    0.634789 0.960443 0.869581 0.147732
H28   H     H_    0.134789 0.460443 0.869581 0.147732
H29   H     H_    0.285134 0.031815 0.889675 0.262186
H30   H     H_    0.339495 0.922239 0.897298 0.232386
H31   H     H_    0.785134 0.531814 0.889675 0.262186
H32   H     H_    0.839496 0.422238 0.897298 0.232386
N1    N     N_R   0.499140 0.000000 0.142800 -0.104000
N2    N     N_R   0.999140 0.500000 0.142800 -0.104000
N3    N     N_R   0.499160 0.000000 0.857150 -0.105915
N4    N     N_R   0.999160 0.500000 0.857150 -0.105914
O1    O     O_R   0.408400 0.908380 0.614690 -0.596859
O2    O     O_R   0.408400 0.091620 0.614690 -0.603203
O3    O     O_R   0.908400 0.408380 0.614690 -0.596858
O4    O     O_R   0.908400 0.591620 0.614690 -0.603203
O5    O     O_R   0.408370 0.908370 0.385350 -0.632372
O6    O     O_R   0.408370 0.091630 0.385350 -0.627649
O7    O     O_R   0.908370 0.408370 0.385350 -0.632372
O8    O     O_R   0.908370 0.591630 0.385350 -0.627648
O9    O     O_R   0.591610 0.091610 0.614650 -0.626147
O10   O     O_R   0.591610 0.908390 0.614650 -0.630847
O11   O     O_R   0.091610 0.591610 0.614650 -0.626147
O12   O     O_R   0.091610 0.408390 0.614650 -0.630846
O13   O     O_R   0.591590 0.091600 0.385310 -0.629838
O14   O     O_R   0.591590 0.908400 0.385310 -0.631531
O15   O     O_R   0.091590 0.591600 0.385310 -0.629838
O16   O     O_R   0.091590 0.408400 0.385310 -0.631531
Zn1   Zn    Zn3+2 0.500010 0.000000 0.653130 0.967932
Zn2   Zn    Zn3+2 0.000010 0.500000 0.653130 0.967932
Zn3   Zn    Zn3+2 0.499980 0.000000 0.346870 0.951951
Zn4   Zn    Zn3+2 0.999980 0.500000 0.346870 0.951951
Cl1   Cl    Cl    0.182944 0.090797 0.680397 -0.546589
Cl2   Cl    Cl    0.198724 0.882297 0.739969 -0.551425
Cl3   Cl    Cl    0.682944 0.590796 0.680396 -0.546589
Cl4   Cl    Cl    0.698724 0.382297 0.739970 -0.551426

loop_
_geom_bond_atom_site_label_1
_geom_bond_atom_site_label_2
_ccdc_geom_bond_type
O13   Zn3   S    
C23   O11   A    
C13   H27   S    
C22   O10   A    
C7    C27   S    
C19   H5    S    
C28   C46   A    
C33   C39   A    
O10   Zn1   S    
C49   H13   S    
C2    C29   S    
C36   H4    S    
C32   C36   A    
C35   C37   A    
C38   C42   A    
C8    Cl4   S    
C22   C41   S    
C29   C33   A    
C8    H24   S    
N4    Zn2   S    
C3    O3    A    
C17   H30   S    
C42   C46   A    
C2    O2    A    
C11   H25   S    
C9    N1    A    
C4    O8    A    
C9    C19   S    
C23   O15   A    
C10   C20   S    
C12   H26   S    
C18   H32   S    
O15   Zn4   S    
C14   H28   S    
C20   H8    S    
C25   C47   A    
C40   C44   A    
C17   H29   S    
C52   H16   S    
C26   C48   A    
O9    Zn1   S    
C27   C45   A    
O8    Zn4   S    
C49   H17   S    
C25   C29   A    
C6    Cl2   S    
O3    Zn2   S    
C51   H19   S    
C28   C32   A    
C6    H22   S    
C19   H6    S    
C33   H1    S    
O6    Zn3   S    
C30   C34   A    
C35   H3    S    
C2    O6    A    
C7    C49   S    
C47   C51   S    
C27   C31   A    
C23   C44   S    
C24   O16   A    
C52   H20   S    
C21   O9    A    
C37   H9    S    
N3    Zn1   S    
C45   C49   S    
C13   N3    A    
C18   H31   S    
O14   Zn3   S    
C16   C18   S    
C51   H15   S    
C20   H7    S    
C50   H14   S    
C5    C25   S    
O4    Zn2   S    
C12   C14   A    
C34   H2    S    
C4    O4    A    
C8    C28   S    
C34   C40   A    
C8    C50   S    
O16   Zn4   S    
C15   N3    A    
C15   C17   S    
O11   Zn2   S    
C10   N2    A    
C1    O1    A    
C24   O12   A    
C5    H21   S    
N2    Zn4   S    
O2    Zn1   S    
C22   O14   A    
C7    H23   S    
C26   C30   A    
C39   H11   S    
C46   C50   S    
O12   Zn2   S    
C40   H12   S    
C12   N2    A    
C36   C38   A    
C50   H18   S    
C14   N4    A    
C21   O13   A    
C10   C16   A    
O5    Zn3   S    
C11   C13   A    
C6    C26   S    
C5    Cl1   S    
C11   N1    A    
C31   C35   A    
C1    C30   S    
C17   C19   S    
C7    Cl3   S    
C18   C20   S    
C37   C41   A    
C3    C32   S    
C4    C31   S    
O7    Zn4   S    
C21   C42   S    
C48   C52   S    
C39   C43   A    
C1    O5    A    
O1    Zn1   S    
C16   N4    A    
C24   C43   S    
C41   C45   A    
C5    C51   S    
C3    O7    A    
C6    C52   S    
N1    Zn3   S    
C43   C47   A    
C44   C48   A    
C9    C15   A    
C38   H10   S    
