data_mof_unit_27930.cif
_audit_creation_date              2012-12-10T20:21:46-0500
_audit_creation_method            fapswitch 2.2
_symmetry_space_group_name_H-M    P1
_symmetry_Int_Tables_number       1
_space_group_crystal_system       triclinic
_cell_length_a                    19.258173
_cell_length_b                    18.676296
_cell_length_c                    8.881044
_cell_angle_alpha                 90.084113
_cell_angle_beta                  89.887046
_cell_angle_gamma                 89.840244
_cell_volume                      3194.23489856

loop_
_atom_site_label
_atom_site_type_symbol
_atom_type_description
_atom_site_fract_x
_atom_site_fract_y
_atom_site_fract_z
_atom_type_partial_charge
C1    C     C_R   0.365999 0.499995 0.498999 0.874289
C2    C     C_R   0.457777 0.197046 0.597993 -0.270888
C3    C     C_R   0.500905 0.842063 0.498952 0.076279
C4    C     C_R   0.500036 0.158027 0.499585 0.078068
C5    C     C_R   0.496843 0.961924 0.361821 0.152545
C6    C     C_R   0.511550 0.037932 0.635000 0.155994
C7    C     C_R   0.504813 0.961991 0.636620 0.153273
C8    C     C_R   0.489413 0.037836 0.363768 0.155687
C9    C     C_R   0.500251 0.076886 0.499494 0.016548
C10   C     C_R   0.500992 0.923071 0.499130 0.016435
C11   C     C_R   0.500003 0.499963 0.218869 0.936689
C12   C     C_R   0.634117 0.499880 0.499215 0.878192
C13   C     C_R   0.499972 0.500028 0.781130 0.937787
C14   C     C_1   0.499982 0.499930 0.065483 -0.210840
C15   C     C_1   0.499971 0.500023 0.934516 -0.211027
C16   C     C_R   0.745582 0.439909 0.549801 -0.217828
C17   C     C_R   0.255845 0.548210 0.403297 -0.214317
C18   C     C_R   0.254617 0.449288 0.580158 -0.196992
C19   C     C_R   0.744956 0.558335 0.437543 -0.208053
C20   C     C_R   0.817761 0.438906 0.548540 0.188744
C21   C     C_R   0.183651 0.548437 0.398674 0.188314
C22   C     C_R   0.182413 0.448151 0.577282 0.185577
C23   C     C_R   0.552122 0.727326 0.571880 0.294112
C24   C     C_R   0.817148 0.558557 0.433632 0.181935
C25   C     C_R   0.853534 0.498689 0.490003 0.065227
C26   C     C_R   0.147040 0.498337 0.486767 0.053324
C27   C     C_R   0.709348 0.499478 0.495922 -0.123654
C28   C     C_R   0.290992 0.499582 0.494997 -0.110908
C29   C     C_R   0.964429 0.533797 0.603637 -0.186516
C30   C     C_R   0.036110 0.464472 0.370219 -0.192298
C31   C     C_R   0.036333 0.533940 0.602462 -0.192901
C32   C     C_R   0.964143 0.464704 0.370877 -0.190274
C33   C     C_R   0.071844 0.499065 0.486093 0.147254
C34   C     C_R   0.540171 0.272390 0.398022 0.295867
C35   C     C_R   0.928679 0.499205 0.487853 0.133942
C36   C     C_3   0.853855 0.373704 0.611801 -0.932947
C37   C     C_3   0.146528 0.602179 0.300764 -0.916903
C38   C     C_3   0.143956 0.393510 0.670278 -0.916935
C39   C     C_3   0.854544 0.622300 0.368307 -0.918411
C40   C     C_3   0.609861 0.691078 0.656142 -0.825274
C41   C     C_3   0.581006 0.308339 0.275046 -0.830711
C42   C     C_3   0.389101 0.692279 0.349251 -0.854237
C43   C     C_3   0.421889 0.308726 0.729115 -0.837982
C44   C     C_3   0.501309 0.923324 0.211570 -0.908433
C45   C     C_R   0.448318 0.727966 0.428079 0.306945
C46   C     C_3   0.531900 0.076389 0.778957 -0.916801
C47   C     C_3   0.500618 0.923432 0.786682 -0.907868
C48   C     C_3   0.468912 0.076148 0.219831 -0.914619
C49   C     C_R   0.460365 0.272619 0.602580 0.301682
C50   C     C_R   0.553776 0.802942 0.567902 -0.273500
C51   C     C_R   0.542477 0.196787 0.401814 -0.273505
C52   C     C_R   0.447614 0.803581 0.430606 -0.269805
H1    H     H_    0.717659 0.394408 0.595185 0.171477
H2    H     H_    0.576078 0.167746 0.324975 0.162018
H3    H     H_    0.405304 0.832748 0.378456 0.162152
H4    H     H_    0.424507 0.168257 0.675426 0.162093
H5    H     H_    0.837404 0.365693 0.730489 0.242442
H6    H     H_    0.839048 0.325766 0.545232 0.242917
H7    H     H_    0.911236 0.377771 0.610477 0.253954
H8    H     H_    0.183476 0.638232 0.242022 0.237367
H9    H     H_    0.115487 0.573877 0.214059 0.243103
H10   H     H_    0.111473 0.635758 0.370990 0.247617
H11   H     H_    0.180089 0.357326 0.731242 0.237514
H12   H     H_    0.284718 0.584789 0.332897 0.152589
H13   H     H_    0.110798 0.420981 0.754981 0.243213
H14   H     H_    0.110804 0.360171 0.596021 0.247133
H15   H     H_    0.817750 0.663627 0.326590 0.236282
H16   H     H_    0.887693 0.647371 0.455714 0.245225
H17   H     H_    0.887578 0.604912 0.272309 0.247244
H18   H     H_    0.634369 0.728241 0.738018 0.196918
H19   H     H_    0.590816 0.645584 0.723156 0.270923
H20   H     H_    0.651073 0.674353 0.576355 0.237869
H21   H     H_    0.615295 0.269756 0.215019 0.194375
H22   H     H_    0.545225 0.329993 0.188915 0.249356
H23   H     H_    0.282525 0.411670 0.650345 0.144494
H24   H     H_    0.615601 0.350043 0.319619 0.262989
H25   H     H_    0.363275 0.729248 0.268847 0.199436
H26   H     H_    0.406813 0.645995 0.282005 0.268889
H27   H     H_    0.349655 0.676987 0.434146 0.244216
H28   H     H_    0.385970 0.271238 0.786908 0.196149
H29   H     H_    0.459310 0.327225 0.815306 0.247727
H30   H     H_    0.389649 0.353237 0.688698 0.258886
H31   H     H_    0.526444 0.870048 0.220556 0.250437
H32   H     H_    0.448584 0.916774 0.163330 0.239008
H33   H     H_    0.534087 0.954037 0.131705 0.249300
H34   H     H_    0.716421 0.603621 0.392888 0.158378
H35   H     H_    0.556500 0.128940 0.756964 0.249357
H36   H     H_    0.485528 0.084202 0.851601 0.240853
H37   H     H_    0.571403 0.045023 0.841642 0.246480
H38   H     H_    0.475084 0.870492 0.777616 0.251150
H39   H     H_    0.553469 0.916231 0.834014 0.238333
H40   H     H_    0.468300 0.954479 0.867360 0.249710
H41   H     H_    0.444443 0.128945 0.241682 0.250177
H42   H     H_    0.515190 0.083453 0.146839 0.240410
H43   H     H_    0.429263 0.044922 0.157591 0.246392
H44   H     H_    0.936585 0.560348 0.694053 0.138963
H45   H     H_    0.063990 0.437477 0.280451 0.138036
H46   H     H_    0.064377 0.560639 0.691946 0.137503
H47   H     H_    0.936053 0.437943 0.281560 0.141940
H48   H     H_    0.596203 0.831606 0.620406 0.161968
N1    N     N_R   0.500000 0.689440 0.500000 -0.092298
N2    N     N_R   0.500000 0.310560 0.500000 -0.091974
O1    O     O_R   0.398180 0.560840 0.499960 -0.619705
O2    O     O_R   0.601820 0.439160 0.500040 -0.629399
O3    O     O_R   0.601820 0.560840 0.500040 -0.623764
O4    O     O_R   0.398180 0.439160 0.499960 -0.623300
O5    O     O_R   0.500000 0.560800 0.285330 -0.622312
O6    O     O_R   0.500000 0.439200 0.714670 -0.620046
O7    O     O_R   0.500000 0.560800 0.714670 -0.619987
O8    O     O_R   0.500000 0.439200 0.285330 -0.616880
Zn1   Zn    Zn3+2 0.500000 0.581210 0.500000 0.938124
Zn2   Zn    Zn3+2 0.500000 0.418790 0.500000 0.936295

loop_
_geom_bond_atom_site_label_1
_geom_bond_atom_site_label_2
_ccdc_geom_bond_type
C7    C10   A    
C21   C26   A    
C18   H23   S    
C48   H43   S    
C39   H16   S    
N2    Zn2   S    
C36   H7    S    
C6    C9    A    
C37   H10   S    
C46   H37   S    
O4    Zn2   S    
C47   H39   S    
C30   H45   S    
C34   C51   A    
C34   N2    A    
C40   H18   S    
C40   H19   S    
C12   O2    A    
C36   H6    S    
O7    Zn1   S    
C17   H12   S    
C6    C46   S    
C12   O3    A    
C11   C14   S    
C20   C25   A    
C23   C40   S    
C22   C38   S    
C24   C39   S    
O1    Zn1   S    
C47   H40   S    
C31   H46   S    
C16   H1    S    
C13   O7    A    
C41   H22   S    
C38   H11   S    
C38   H14   S    
C8    C9    A    
C1    C28   S    
C31   C33   A    
C19   C27   A    
C1    O1    A    
C52   H3    S    
C1    O4    A    
C44   H31   S    
C16   C27   A    
O3    Zn1   S    
C42   H27   S    
C11   O8    A    
C34   C41   S    
C39   H15   S    
C13   O6    A    
C3    C50   A    
C46   H36   S    
C48   H41   S    
C4    C51   A    
C32   C35   A    
C18   C28   A    
C24   C25   A    
C36   H5    S    
C49   N2    A    
O2    Zn2   S    
C43   C49   S    
C23   C50   A    
C12   C27   S    
C45   C52   A    
C43   H28   S    
C17   C21   A    
O6    Zn2   S    
C42   C45   S    
C7    C47   S    
C2    C4    A    
C8    C48   S    
C2    C49   A    
C5    C8    A    
C26   C33   S    
C38   H13   S    
C16   C20   A    
C39   H17   S    
C48   H42   S    
C25   C35   S    
C5    C44   S    
C42   H26   S    
C19   H34   S    
C13   C15   S    
C11   O5    A    
C43   H29   S    
C47   H38   S    
C44   H33   S    
C46   H35   S    
C40   H20   S    
C30   C33   A    
C18   C22   A    
C17   C28   A    
O5    Zn1   S    
C44   H32   S    
C29   H44   S    
C37   H9    S    
C3    C52   A    
C6    C7    A    
N1    Zn1   S    
C29   C35   A    
C50   H48   S    
C32   H47   S    
C51   H2    S    
C19   C24   A    
C5    C10   A    
C29   C31   A    
C3    C10   S    
C2    H4    S    
C41   H24   S    
C30   C32   A    
C23   N1    A    
O8    Zn2   S    
C37   H8    S    
C41   H21   S    
C20   C36   S    
C21   C37   S    
C42   H25   S    
C22   C26   A    
C43   H30   S    
C14   C15   T    
C4    C9    S    
C45   N1    A    
