data_mof_unit_41115.cif
_audit_creation_date              2013-03-05T16:04:29-0500
_audit_creation_method            fapswitch 2.2
_symmetry_space_group_name_H-M    P1
_symmetry_Int_Tables_number       1
_space_group_crystal_system       triclinic
_cell_length_a                    10.832189
_cell_length_b                    9.514677
_cell_length_c                    15.082586
_cell_angle_alpha                 89.63211
_cell_angle_beta                  90.12122
_cell_angle_gamma                 90.036863
_cell_volume                      1554.4475698

loop_
_atom_site_label
_atom_site_type_symbol
_atom_site_description
_atom_site_fract_x
_atom_site_fract_y
_atom_site_fract_z
_atom_type_partial_charge
O1    O     O_R   0.319640 0.618740 0.499990 -0.585734
O2    O     O_R   0.680360 0.381260 0.500010 -0.585928
O3    O     O_R   0.680360 0.618740 0.500010 -0.600839
O4    O     O_R   0.319640 0.381260 0.499990 -0.600881
C1    C     C_R   0.262050 0.499975 0.499896 0.812750
C2    C     C_R   0.737950 0.500025 0.500105 0.812531
O5    O     O_R   0.499970 0.618800 0.370260 -0.537760
O6    O     O_R   0.500030 0.381200 0.629740 -0.537823
O7    O     O_R   0.500030 0.618800 0.629740 -0.592372
O8    O     O_R   0.499970 0.381200 0.370260 -0.592459
C3    C     C_R   0.496913 0.500507 0.328750 0.868464
C4    C     C_R   0.502988 0.499489 0.671253 0.868093
Cu1   Cu    Cu3+1 0.500000 0.640660 0.500000 0.990052
Cu2   Cu    Cu3+1 0.500000 0.359340 0.500000 0.989996
C5    C     C_R   0.570503 0.392593 0.815425 0.306822
C6    C     C_R   0.428953 0.607252 0.184610 0.306647
C7    C     C_R   0.506638 0.498482 0.767975 -0.178856
C8    C     C_R   0.492988 0.501453 0.232034 -0.178837
C9    C     C_R   0.442339 0.603545 0.812834 -0.281888
C10   C     C_R   0.557116 0.396288 0.187155 -0.281963
C11   C     C_R   0.438462 0.604088 0.904917 0.116808
C12   C     C_R   0.560787 0.395612 0.095078 0.116821
C13   C     C_R   0.501270 0.498969 0.953368 0.038943
C14   C     C_R   0.497943 0.500715 0.046639 0.038977
C15   C     C_R   0.567833 0.392682 0.908772 -0.008485
C16   C     C_R   0.431409 0.607020 0.091243 -0.008515
C17   C     C_R   0.371607 0.707875 0.949114 -0.191338
C18   C     C_R   0.627510 0.291717 0.050884 -0.191329
C19   C     C_R   0.367324 0.708945 0.041262 -0.139551
C20   C     C_R   0.631762 0.290624 0.958740 -0.139558
H1    H     H_    0.392854 0.683746 0.775659 0.174614
H2    H     H_    0.606671 0.316119 0.224312 0.174631
H3    H     H_    0.322030 0.788228 0.912295 0.156047
H4    H     H_    0.677040 0.211333 0.087699 0.156065
H5    H     H_    0.313129 0.789985 0.072637 0.201091
H6    H     H_    0.685835 0.209494 0.927354 0.201058
C21   C     C_R   0.063779 0.372303 0.502722 -0.178129
C22   C     C_R   0.936221 0.627697 0.497279 -0.178154
C23   C     C_R   0.936066 0.372338 0.502926 -0.139632
C24   C     C_R   0.063934 0.627662 0.497076 -0.139499
H7    H     H_    0.111764 0.272484 0.504947 0.152364
H8    H     H_    0.888236 0.727516 0.495055 0.152348
H9    H     H_    0.887958 0.272537 0.505329 0.154792
H10   H     H_    0.112043 0.727463 0.494672 0.154852
C25   C     C_R   0.871785 0.500034 0.500154 -0.012554
C26   C     C_R   0.128215 0.499966 0.499848 -0.012526
C27   C     C_R   0.415545 0.074860 0.451045 -0.015511
C28   C     C_R   0.584457 0.925141 0.548953 -0.015399
C29   C     C_R   0.584558 0.073968 0.548839 0.022762
C30   C     C_R   0.415447 0.926033 0.451157 0.022447
H11   H     H_    0.347975 0.131268 0.411726 0.138348
H12   H     H_    0.652027 0.868733 0.588272 0.138319
H13   H     H_    0.652477 0.129652 0.587777 0.183019
H14   H     H_    0.347532 0.870354 0.412216 0.183237
N1    N     N_R   0.500000 0.852070 0.500000 -0.178993
N2    N     N_R   0.500000 0.147930 0.500000 -0.178975
N3    N     N_R   0.640828 0.288633 0.769005 0.107081
O9    O     O_R   0.608305 0.157057 0.772424 -0.390609
O10   O     O_R   0.733822 0.326393 0.719815 -0.391030
N4    N     N_R   0.358746 0.711283 0.231076 0.107118
O11   O     O_R   0.266522 0.673493 0.280987 -0.391313
O12   O     O_R   0.390878 0.842959 0.227152 -0.390657

loop_
_geom_bond_atom_site_label_1
_geom_bond_atom_site_label_2
_geom_bond_distance
_ccdc_geom_bond_type
C4    C7    1.459239 S    
Cu1   N1    2.011498 S    
C28   N1    1.366887 A    
Cu2   N2    2.011499 S    
C13   C14   1.407510 A    
C3    C8    1.459235 S    
C23   C25   1.401105 A    
C2    C25   1.449730 S    
C17   C19   1.390810 A    
C29   N2    1.366786 A    
C1    C26   1.449728 S    
C19   H5    1.081462 S    
C30   N1    1.366793 A    
O3    Cu1   1.964926 S    
C10   H2    1.085279 S    
C20   H6    1.081423 S    
O6    C4    1.291775 A    
O3    C2    1.290694 A    
C9    H1    1.085259 S    
C18   C20   1.390732 A    
C11   C17   1.398344 A    
C18   H4    1.083953 S    
C21   C23   1.383424 A    
C12   C18   1.398311 A    
Cu1   Cu2   2.676669 S    
C17   H3    1.084023 S    
O5    C3    1.291813 A    
C5    N3    1.435627 S    
N3    O9    1.301047 A    
C30   H14   1.080965 S    
N4    O11   1.301227 A    
C21   H7    1.083266 S    
C29   H13   1.080987 S    
C12   C14   1.409466 A    
C6    C8    1.412671 A    
C28   C29   1.416039 A    
C22   C24   1.383424 A    
C10   C12   1.389464 A    
C22   H8    1.083265 S    
C27   C30   1.416031 A    
C8    C10   1.397681 A    
C11   C13   1.409466 A    
O4    Cu2   1.964927 S    
O2    Cu2   1.964660 S    
O7    C4    1.293287 A    
O1    C1    1.290425 A    
C5    C15   1.408281 A    
N3    O10   1.301345 A    
O8    C3    1.293255 A    
C24   C26   1.401105 A    
C24   H10   1.083310 S    
C13   C15   1.416594 A    
O1    Cu1   1.964661 S    
C16   C19   1.407099 A    
N4    O12   1.301108 A    
O8    Cu2   1.966508 S    
C15   C20   1.407023 A    
C5    C7    1.412572 A    
O7    Cu1   1.966508 S    
C27   N2    1.366883 A    
C22   C25   1.401012 A    
C23   H9    1.083310 S    
O5    Cu1   1.969164 S    
O6    Cu2   1.969164 S    
C7    C9    1.397759 A    
C21   C26   1.401011 A    
C28   H12   1.081686 S    
C6    N4    1.435752 S    
C27   H11   1.081687 S    
O2    C2    1.290424 A    
C14   C16   1.416617 A    
O4    C1    1.290692 A    
C9    C11   1.389621 A    
C6    C16   1.408532 A    
