data_mof_unit_16172.cif
_audit_creation_date              2013-03-05T16:48:39-0500
_audit_creation_method            fapswitch 2.2
_symmetry_space_group_name_H-M    P1
_symmetry_Int_Tables_number       1
_space_group_crystal_system       triclinic
_cell_length_a                    27.326622
_cell_length_b                    8.959887
_cell_length_c                    8.098051
_cell_angle_alpha                 89.577047
_cell_angle_beta                  90.169642
_cell_angle_gamma                 89.075645
_cell_volume                      1982.43326019

loop_
_atom_site_label
_atom_site_type_symbol
_atom_site_description
_atom_site_fract_x
_atom_site_fract_y
_atom_site_fract_z
_atom_type_partial_charge
O1    O     O_R   0.500000 0.285350 0.636850 -0.620196
O2    O     O_R   0.500000 0.714650 0.363150 -0.613483
O3    O     O_R   0.500000 0.714650 0.636850 -0.622578
O4    O     O_R   0.500000 0.285350 0.363150 -0.611360
C1    C     C_R   0.500037 0.217903 0.500391 0.911354
C2    C     C_R   0.499933 0.782097 0.499619 0.912328
O5    O     O_R   0.428760 0.500000 0.636860 -0.608927
O6    O     O_R   0.571240 0.500000 0.363140 -0.570087
O7    O     O_R   0.571240 0.500000 0.636860 -0.615197
O8    O     O_R   0.428760 0.500000 0.363140 -0.566616
C3    C     C_R   0.405455 0.507034 0.499852 0.981840
C4    C     C_R   0.594481 0.491454 0.501005 0.987193
Zn1   Zn    Zn3+2 0.500000 0.500000 0.682780 1.032310
Zn2   Zn    Zn3+2 0.500000 0.500000 0.317220 1.057032
C5    C     C_R   0.180472 0.437746 0.616753 0.636162
C6    C     C_R   0.814480 0.615464 0.650714 0.617333
C7    C     C_R   0.170012 0.683566 0.505949 0.590862
C8    C     C_R   0.825290 0.353305 0.692255 0.586883
O9    O     O_2   0.210538 0.322107 0.657655 -0.563518
O10   O     O_2   0.784113 0.734845 0.632678 -0.497490
O11   O     O_2   0.189735 0.805037 0.434628 -0.584927
O12   O     O_2   0.807066 0.214289 0.693791 -0.498079
N1    N     N_R   0.199268 0.564467 0.549176 -0.289798
N2    N     N_R   0.796179 0.473887 0.649705 -0.324662
C9    C     C_R   0.280395 0.644233 0.633548 0.457608
C10   C     C_R   0.712887 0.382381 0.696128 0.518497
C11   C     C_R   0.271354 0.488423 0.389724 0.378922
C12   C     C_R   0.731261 0.513588 0.438303 0.398442
C13   C     C_R   0.331344 0.629852 0.622617 0.242930
C14   C     C_R   0.664466 0.370321 0.645184 0.237772
C15   C     C_R   0.322568 0.467237 0.381911 0.304429
C16   C     C_R   0.680537 0.527011 0.404041 0.302690
C17   C     C_R   0.250810 0.569482 0.520984 -0.004554
C18   C     C_R   0.746765 0.453251 0.593280 -0.069949
C19   C     C_R   0.099289 0.549941 0.604766 -0.061427
C20   C     C_R   0.895666 0.512028 0.693311 -0.076537
C21   C     C_R   0.130085 0.426808 0.641929 -0.132118
C22   C     C_R   0.864979 0.636083 0.663225 -0.091577
C23   C     C_R   0.119406 0.678619 0.533310 -0.069000
C24   C     C_R   0.874946 0.373249 0.726802 -0.081900
C25   C     C_R   0.109738 0.291230 0.687883 -0.155925
C26   C     C_R   0.885396 0.776860 0.646675 -0.262629
C27   C     C_R   0.088397 0.793791 0.478099 -0.244697
C28   C     C_R   0.904257 0.259684 0.795012 -0.305158
C29   C     C_R   0.352415 0.535880 0.500477 -0.334765
C30   C     C_R   0.647192 0.458350 0.510842 -0.354344
H1    H     H_    0.132524 0.191487 0.699424 0.211310
H2    H     H_    0.861930 0.875385 0.639501 0.208898
H3    H     H_    0.103313 0.887221 0.410257 0.194443
H4    H     H_    0.887596 0.159235 0.842551 0.186749
C31   C     C_R   0.977238 0.400353 0.726669 0.011922
C32   C     C_R   0.017636 0.667251 0.594362 0.040401
C33   C     C_R   0.967265 0.663050 0.637248 0.039986
C34   C     C_R   0.028131 0.405732 0.691029 -0.055119
C35   C     C_R   0.946991 0.525345 0.686181 -0.063438
C36   C     C_R   0.048294 0.542093 0.633581 -0.061758
C37   C     C_R   0.955071 0.277906 0.808758 0.461709
C38   C     C_R   0.037579 0.784713 0.497490 0.537497
C39   C     C_R   0.936350 0.792198 0.639819 0.513717
C40   C     C_R   0.059363 0.276415 0.694749 0.491760
C41   C     C_1   0.500004 0.065121 0.500575 -0.155184
C42   C     C_1   0.499963 0.934882 0.499477 -0.155259
N3    N     N_1   0.500000 0.500000 0.073640 -0.004399
N4    N     N_1   0.500000 0.500000 0.926360 -0.001741
O13   O     O_3   0.344286 0.375445 0.265528 -0.718535
H5    H     H_    0.318889 0.327589 0.197574 0.378031
O14   O     O_3   0.662484 0.609185 0.271438 -0.734048
H6    H     H_    0.689658 0.659534 0.214242 0.378252
O15   O     O_3   0.359281 0.705427 0.735850 -0.715158
H7    H     H_    0.389310 0.739482 0.679757 0.333554
O16   O     O_3   0.634417 0.278261 0.735840 -0.689414
H8    H     H_    0.607326 0.245636 0.663657 0.337484
O17   O     O_3   0.240820 0.416941 0.280282 -0.598061
C43   C     C_3   0.232964 0.511411 0.142316 -0.216915
H9    H     H_    0.267882 0.537100 0.078373 0.200719
H10   H     H_    0.213728 0.616590 0.177935 0.190981
H11   H     H_    0.209250 0.453319 0.052715 0.209094
O18   O     O_3   0.764367 0.575809 0.328578 -0.586558
C44   C     C_3   0.799647 0.468300 0.277700 -0.269098
H12   H     H_    0.787102 0.350698 0.287098 0.156961
H13   H     H_    0.834013 0.480584 0.349003 0.178956
H14   H     H_    0.808716 0.490042 0.146372 0.190203
O19   O     O_3   0.258561 0.719659 0.763447 -0.605901
C45   C     C_3   0.264183 0.875108 0.742172 -0.120524
H15   H     H_    0.262434 0.912108 0.610517 0.178810
H16   H     H_    0.298990 0.911493 0.798828 0.201301
H17   H     H_    0.233928 0.933286 0.807825 0.189515
O20   O     O_3   0.727480 0.319652 0.845079 -0.530622
C46   C     C_3   0.712445 0.415351 0.973241 -0.164812
H18   H     H_    0.672380 0.439663 0.970329 0.209764
H19   H     H_    0.733075 0.521336 0.968861 0.151282
H20   H     H_    0.720214 0.358697 0.092600 0.190352
O21   O     O_3   0.982713 0.183179 0.908616 -0.698552
H21   H     H_    0.961233 0.106974 0.958449 0.354335
O22   O     O_3   0.007073 0.877614 0.405016 -0.734433
H22   H     H_    0.026806 0.950444 0.342151 0.340078
O23   O     O_3   0.956308 0.931825 0.651535 -0.716139
H23   H     H_    0.930371 0.008095 0.630497 0.327938
O24   O     O_3   0.042422 0.133692 0.677707 -0.689404
H24   H     H_    0.013697 0.140291 0.603008 0.365981

loop_
_geom_bond_atom_site_label_1
_geom_bond_atom_site_label_2
_geom_bond_distance
_ccdc_geom_bond_type
O5    Zn1   1.980865 S    
O21   H21   0.991893 S    
O17   C43   1.410514 S    
O22   H22   0.991889 S    
C45   H17   1.109387 S    
C40   O24   1.374760 S    
C14   O16   1.382049 S    
C33   C39   1.421984 A    
C34   C40   1.428009 A    
C11   C17   1.405091 A    
C5    O9    1.350613 S    
C7    N1    1.365924 A    
C43   H10   1.112001 S    
O1    C1    1.263402 A    
C19   C21   1.406984 A    
C45   H16   1.109562 S    
C22   C26   1.393161 A    
O23   H23   0.990107 S    
C7    C23   1.402522 A    
C8    C24   1.399206 A    
C5    C21   1.397399 A    
O7    Zn1   1.983025 S    
C27   C38   1.401596 A    
C10   C18   1.403451 A    
O19   C45   1.413045 S    
N1    C17   1.428868 S    
C43   H11   1.109517 S    
C31   C37   1.423219 A    
C46   H19   1.112536 S    
C12   O18   1.390139 S    
C41   C42   1.167038 T    
O3    Zn1   1.956177 S    
C6    O10   1.349959 S    
O3    C2    1.261043 A    
C5    N1    1.365197 A    
C12   C18   1.423466 A    
C6    N2    1.371086 A    
C37   O21   1.382176 S    
O4    Zn2   1.956178 S    
O2    C2    1.263476 A    
O5    C3    1.278280 A    
C13   O15   1.379815 S    
C33   C35   1.415062 A    
C9    C13   1.399248 A    
C34   C36   1.423929 A    
C43   H9    1.113477 S    
C11   C15   1.410978 A    
O14   H6    0.989547 S    
C20   C24   1.399626 A    
C45   H15   1.114822 S    
C4    C30   1.467736 S    
O8    Zn2   1.983028 S    
C44   H13   1.108389 S    
O18   C44   1.416091 S    
C27   H3    1.083642 S    
C23   C27   1.394825 A    
C7    O11   1.349112 S    
C44   H12   1.115445 S    
C13   C29   1.420859 A    
C19   C23   1.406691 A    
C38   O22   1.383223 S    
O24   H24   0.990336 S    
C12   C16   1.415841 A    
C28   C37   1.404957 A    
O6    C4    1.283987 A    
C25   H1    1.084252 S    
C1    C41   1.368920 S    
C26   H2    1.083795 S    
C46   H20   1.106826 S    
C32   C38   1.424394 A    
C16   O14   1.382774 S    
C10   C14   1.390938 A    
C39   O23   1.376592 S    
C8    N2    1.372569 A    
C3    C29   1.468184 S    
O1    Zn1   1.961569 S    
C32   C33   1.421626 A    
C28   H4    1.083806 S    
C15   O13   1.384158 S    
O6    Zn2   1.980862 S    
C19   C36   1.416394 A    
C8    O12   1.348854 S    
C16   C30   1.404180 A    
C14   C30   1.414482 A    
C25   C40   1.386325 A    
O4    C1    1.261122 A    
C26   C39   1.402590 A    
C44   H14   1.109269 S    
C31   C34   1.422721 A    
C2    C42   1.368942 S    
C20   C22   1.400988 A    
O16   H8    0.991017 S    
C20   C35   1.410828 A    
Zn1   N4    1.972523 S    
Zn2   N3    1.972523 S    
C31   C35   1.417042 A    
C21   C25   1.392715 A    
O15   H7    0.990471 S    
O2    Zn2   1.961569 S    
O7    C4    1.274123 A    
N2    C18   1.439436 S    
O8    C3    1.280284 A    
N3    N4    1.192680 T    
C24   C28   1.394564 A    
O20   C46   1.409062 S    
C10   O20   1.381946 S    
O13   H5    0.989512 S    
C15   C29   1.409126 A    
C9    C17   1.398299 A    
C9    O19   1.385813 S    
C46   H18   1.113013 S    
C11   O17   1.383160 S    
C32   C36   1.422364 A    
C6    C22   1.398723 A    
