data_mof_unit_36591.cif
_audit_creation_date              2012-12-11T15:49:51-0500
_audit_creation_method            fapswitch 2.2
_symmetry_space_group_name_H-M    P1
_symmetry_Int_Tables_number       1
_space_group_crystal_system       triclinic
_cell_length_a                    8.236989
_cell_length_b                    19.043745
_cell_length_c                    27.000879
_cell_angle_alpha                 95.152612
_cell_angle_beta                  92.644777
_cell_angle_gamma                 85.557408
_cell_volume                      4202.37619762

loop_
_atom_site_label
_atom_site_type_symbol
_atom_type_description
_atom_site_fract_x
_atom_site_fract_y
_atom_site_fract_z
_atom_type_partial_charge
Ba1   Ba    Ba6+2 0.854000 0.466860 0.523710 1.661409
Ba2   Ba    Ba6+2 0.335820 0.533080 0.476290 1.648509
C1    C     C_3   0.749319 0.262829 0.732388 -0.366486
C2    C     C_R   0.912912 0.571551 0.176578 0.572944
C3    C     C_2   0.762555 0.547000 0.271620 -0.083448
C4    C     C_3   0.214414 0.307759 0.654998 0.301653
C5    C     C_3   0.744559 0.570576 0.326043 -0.049392
C6    C     C_1   0.984355 0.490900 0.343203 0.037846
C7    C     C_2   0.025514 0.487812 0.295569 -0.108372
C8    C     C_2   0.906800 0.515390 0.256049 0.189868
C9    C     C_R   0.028281 0.509064 0.101721 -0.079466
C10   C     C_R   0.065570 0.449614 0.128829 -0.036920
C11   C     C_R   0.143652 0.388945 0.104587 -0.058707
C12   C     C_3   0.764580 0.299075 0.684648 0.762301
C13   C     C_R   0.950733 0.570145 0.125929 -0.024702
C14   C     C_2   0.852649 0.527756 0.360199 -0.293799
C15   C     C_2   0.352381 0.485222 0.641182 -0.270551
C16   C     C_3   0.255485 0.279089 0.705134 -0.356797
C17   C     C_R   0.195826 0.445856 0.975928 0.019608
C18   C     C_R   0.060287 0.565381 0.971822 0.020127
C19   C     C_R   0.147983 0.505052 0.948536 0.050248
C20   C     C_R   0.287982 0.388297 0.951315 -0.100223
C21   C     C_R   0.328555 0.388315 0.901706 -0.063783
C22   C     C_R   0.279147 0.445562 0.873973 -0.030383
C23   C     C_3   0.512378 0.646285 0.626526 0.300072
C24   C     C_R   0.188377 0.504000 0.897288 -0.078769
C25   C     C_R   0.138418 0.561526 0.869386 -0.035901
C26   C     C_R   0.179360 0.559954 0.818858 0.588475
C27   C     C_R   0.318933 0.445432 0.823392 0.582113
C28   C     C_3   0.187893 0.316726 0.416132 0.309802
C29   C     C_2   0.463343 0.490376 0.728930 -0.081831
C30   C     C_3   0.503060 0.493394 0.674535 -0.048973
C31   C     C_1   0.212150 0.514240 0.656969 0.034159
C32   C     C_2   0.174737 0.514271 0.704345 -0.103356
C33   C     C_2   0.306862 0.501156 0.743596 0.209131
C34   C     C_3   0.492443 0.675345 0.680428 -0.360963
C35   C     C_R   0.151212 0.446260 0.026710 0.019345
C36   C     C_R   0.068399 0.507580 0.050406 0.050301
C37   C     C_R   0.025323 0.567576 0.023392 0.019915
C38   C     C_R   0.185789 0.387235 0.054939 -0.099043
C39   C     C_R   0.913355 0.629448 0.099213 -0.058295
C40   C     C_3   0.191364 0.237355 0.402575 -0.376021
C41   C     C_R   0.009692 0.621594 0.942325 -0.099782
C42   C     C_R   0.048112 0.619639 0.892505 -0.060310
C43   C     C_R   0.949455 0.628319 0.049325 -0.101766
C44   C     C_R   0.392259 0.297731 0.519085 -0.289220
C45   C     C_3   0.065119 0.683406 0.338008 0.347104
C46   C     C_R   0.533157 0.275424 0.494059 0.078907
C47   C     C_R   0.582246 0.203200 0.487285 -0.120852
C48   C     C_R   0.489802 0.152790 0.505904 -0.003279
C49   C     C_R   0.344585 0.176328 0.530181 -0.151237
C50   C     C_R   0.294848 0.248698 0.535521 -0.018301
C51   C     C_R   0.536031 0.033241 0.538873 -0.090845
C52   C     C_3   0.003410 0.681707 0.579966 0.359484
C53   C     C_R   0.588945 0.961457 0.533192 -0.162841
C54   C     C_R   0.650485 0.930353 0.487880 -0.018233
C55   C     C_R   0.659262 0.973438 0.448436 0.583817
C56   C     C_3   0.079232 0.703017 0.285102 -0.307512
C57   C     C_R   0.607119 0.045470 0.454370 -0.106201
C58   C     C_R   0.544355 0.076154 0.499553 -0.012717
C59   C     C_R   0.846206 0.826920 0.458735 -0.073967
C60   C     C_R   0.892754 0.754106 0.455292 -0.011315
C61   C     C_R   0.655320 0.732721 0.499295 0.039308
C62   C     C_R   0.606726 0.804924 0.502709 -0.126273
C63   C     C_R   0.700530 0.853056 0.482025 0.027252
C64   C     C_3   0.962527 0.760353 0.594587 0.322696
C65   C     C_R   0.793200 0.707445 0.473663 -0.289085
C66   C     C_3   0.671893 0.383101 0.376268 0.298136
C67   C     C_3   0.524730 0.721833 0.358845 0.337595
C68   C     C_3   0.673606 0.366005 0.320177 -0.354876
C69   C     C_3   0.187143 0.825966 0.590670 0.185216
C70   C     C_3   0.650773 0.219679 0.623113 0.288065
C71   C     C_3   0.484210 0.792726 0.337685 -0.349611
C72   C     C_R   0.022942 0.451748 0.179465 0.599059
F1    F     F_    0.713051 0.945659 0.403576 -0.725804
H1    H     H_    0.875949 0.327894 0.691550 0.042129
H2    H     H_    0.580760 0.428145 0.384443 0.081651
H3    H     H_    0.853801 0.223160 0.737083 0.091623
H4    H     H_    0.769736 0.323338 0.310770 0.136852
H5    H     H_    0.698477 0.413449 0.301726 0.068136
H6    H     H_    0.553288 0.348514 0.305943 0.135081
H7    H     H_    0.634071 0.236249 0.731921 0.109908
H8    H     H_    0.391185 0.631831 0.610950 0.037376
H9    H     H_    0.599637 0.598784 0.625186 0.030236
H10   H     H_    0.412711 0.725224 0.682025 0.162979
H11   H     H_    0.435389 0.636884 0.701349 0.076870
H12   H     H_    0.264278 0.222746 0.369110 0.135370
H13   H     H_    0.613250 0.686028 0.698285 0.121178
H14   H     H_    0.749965 0.302893 0.764939 0.097390
H15   H     H_    0.345665 0.311690 0.726072 0.159844
H16   H     H_    0.139443 0.632877 0.342259 0.083897
H17   H     H_    0.935288 0.676552 0.343971 -0.054176
H18   H     H_    0.197964 0.724851 0.280440 0.147788
H19   H     H_    0.071693 0.655054 0.259006 0.115667
H20   H     H_    0.979659 0.743014 0.275875 0.128233
H21   H     H_    0.659568 0.711772 0.359450 -0.052834
H22   H     H_    0.482474 0.725640 0.397552 0.080581
H23   H     H_    0.246795 0.208316 0.433534 0.064520
H24   H     H_    0.549401 0.834187 0.360265 0.145367
H25   H     H_    0.351442 0.807505 0.338627 0.152436
H26   H     H_    0.153270 0.361708 0.661275 0.046448
H27   H     H_    0.523003 0.789984 0.298666 0.127328
H28   H     H_    0.146624 0.466815 0.285261 0.136653
H29   H     H_    0.173238 0.342021 0.124083 0.123852
H30   H     H_    0.562618 0.483737 0.756376 0.094101
H31   H     H_    0.399490 0.342700 0.885027 0.118835
H32   H     H_    0.333333 0.342313 0.969541 0.069682
H33   H     H_    0.243705 0.337977 0.039589 0.070407
H34   H     H_    0.065296 0.221304 0.394708 0.129752
H35   H     H_    0.668857 0.565109 0.245158 0.122212
H36   H     H_    0.855222 0.677658 0.116895 0.124941
H37   H     H_    0.937422 0.668026 0.956286 0.070787
H38   H     H_    0.330754 0.310815 0.636282 -0.024247
H39   H     H_    0.006059 0.664391 0.871997 0.124568
H40   H     H_    0.049355 0.524780 0.715037 0.126660
H41   H     H_    0.918239 0.676917 0.032475 0.070933
H42   H     H_    0.838928 0.540207 0.399865 0.082743
H43   H     H_    0.359221 0.456060 0.604763 0.070940
H44   H     H_    0.498536 0.823548 0.522667 0.061600
H45   H     H_    0.891871 0.657552 0.564813 -0.085270
H46   H     H_    0.582975 0.930310 0.564609 0.087423
H47   H     H_    0.490890 0.055505 0.574388 0.076387
H48   H     H_    0.692009 0.186546 0.467518 0.080681
H49   H     H_    0.144203 0.280623 0.726990 0.106509
H50   H     H_    0.612910 0.077036 0.423165 0.098651
H51   H     H_    0.925908 0.862889 0.445157 0.124418
H52   H     H_    0.269093 0.138772 0.543864 0.083784
H53   H     H_    0.830630 0.651573 0.471884 0.067396
H54   H     H_    0.353945 0.353500 0.523567 0.065549
H55   H     H_    0.308907 0.223721 0.699766 0.112708
H56   H     H_    0.095393 0.675713 0.550991 0.027538
H57   H     H_    0.313933 0.331918 0.423472 0.006297
H58   H     H_    0.115117 0.330052 0.449766 0.048983
H59   H     H_    0.115299 0.873120 0.577562 0.031034
H60   H     H_    0.230773 0.790275 0.558532 0.062960
H61   H     H_    0.295952 0.844453 0.612249 0.063748
H62   H     H_    0.578508 0.259001 0.601759 0.038351
H63   H     H_    0.575906 0.200579 0.651547 -0.023843
H64   H     H_    0.685943 0.173570 0.596767 0.056622
H65   H     H_    0.857033 0.765423 0.619145 0.078641
H66   H     H_    0.921612 0.788191 0.561196 -0.124630
H67   H     H_    0.793758 0.397772 0.390158 0.010545
N1    N     N_R   0.947929 0.512572 0.203303 -0.421608
N2    N     N_R   0.268078 0.502091 0.796088 -0.423731
O1    O     O_2   0.913240 0.537010 0.617740 -0.465402
O2    O     O_2   0.231313 0.749704 0.463502 -0.501226
O3    O     O_3   0.122537 0.737310 0.371491 -0.590750
O4    O     O_3   0.145240 0.536960 0.557560 -0.488782
O5    O     O_3   0.557280 0.416300 0.475860 -0.491835
O6    O     O_2   0.376710 0.670070 0.522470 -0.464509
O7    O     O_3   0.573377 0.698336 0.600605 -0.655801
O8    O     O_2   0.416997 0.531746 0.322169 -0.498782
O9    O     O_3   0.446270 0.668592 0.329416 -0.591319
O10   O     O_2   0.050754 0.398961 0.201938 -0.594584
O11   O     O_2   0.397978 0.394479 0.803636 -0.617594
O12   O     O_3   0.632150 0.323125 0.398071 -0.635266
O13   O     O_2   0.849710 0.626101 0.196936 -0.618354
O14   O     O_2   0.137757 0.610732 0.795355 -0.592841
O15   O     O_3   0.669960 0.410470 0.588880 -0.453253
O16   O     O_2   0.835674 0.443462 0.674403 -0.534861
O17   O     O_3   0.063663 0.649698 0.622341 -0.615502
O18   O     O_3   0.622801 0.344381 0.676760 -0.663140
O19   O     O_2   0.812980 0.329910 0.477500 -0.465152
O20   O     O_3   0.078660 0.374870 0.564770 -0.485725
O21   O     O_2   0.952788 0.250167 0.540458 -0.456118
O22   O     O_3   0.094906 0.790417 0.621888 -0.620524
O23   O     O_3   0.109555 0.263043 0.627134 -0.556321
O24   O     O_3   0.794254 0.248351 0.643644 -0.619664
O25   O     O_2   0.276450 0.462960 0.382230 -0.463859
O26   O     O_3   0.044470 0.462980 0.442430 -0.494351
O27   O     O_3   0.519740 0.589470 0.411120 -0.476925
O28   O     O_3   0.118546 0.350633 0.375749 -0.622718
O29   O     O_3   0.632420 0.583650 0.524140 -0.469619
O30   O     O_3   0.111040 0.625070 0.435230 -0.491042
P1    P     P_3+3 0.082480 0.557670 0.610090 1.008112
P2    P     P_3+3 0.635220 0.340300 0.462910 0.991545
P3    P     P_3+3 0.105934 0.282960 0.565200 1.002068
P4    P     P_3+3 0.107220 0.442270 0.389900 0.994786
P5    P     P_3+3 0.090202 0.717104 0.431952 0.947601
P6    P     P_3+3 0.664234 0.424639 0.653834 0.964440
P7    P     P_3+3 0.562392 0.672465 0.536832 0.942413
P8    P     P_3+3 0.531027 0.586931 0.346600 0.945149

loop_
_geom_bond_atom_site_label_1
_geom_bond_atom_site_label_2
_ccdc_geom_bond_type
Ba2   O6    S    
C71   H25   S    
C53   C54   A    
C53   H46   S    
Ba1   P2    S    
C61   P7    S    
C52   H45   S    
O21   P3    D    
C45   H17   S    
O27   P8    S    
Ba1   O1    S    
O15   P6    S    
C56   H20   S    
C67   H21   S    
C2    N1    Am   
C64   H66   S    
C34   H13   S    
C52   H56   S    
Ba1   O29   S    
C24   C25   A    
C62   H44   S    
C60   C65   A    
O26   P4    S    
C17   C19   A    
C40   H34   S    
C22   C24   A    
C32   C33   S    
C35   C38   A    
C10   C72   A    
C51   H47   S    
C40   H23   S    
Ba2   O29   S    
C69   H60   S    
C36   C37   A    
O17   P1    S    
C55   C57   A    
C3    H35   S    
Ba2   O4    S    
C20   H32   S    
C47   H48   S    
C44   C50   A    
Ba1   O26   S    
C54   C55   A    
C72   O10   D    
Ba1   Ba2   S    
C4    H26   S    
C68   H6    S    
C50   P3    S    
O16   P6    D    
C11   C38   A    
C17   C35   A    
C22   C27   A    
C9    C13   A    
C25   C42   A    
C23   O7    S    
C70   H64   S    
O12   P2    S    
O1    P1    D    
Ba1   O20   S    
C6    C7    D    
C69   O22   S    
C23   H9    S    
C21   C22   A    
C67   C71   S    
C59   H51   S    
C26   N2    Am   
C7    C8    S    
O18   P6    S    
C33   N2    S    
C27   O11   D    
Ba2   O5    S    
C70   H63   S    
O29   P7    S    
C57   C58   A    
C6    C14   D    
C70   O24   S    
C15   C31   D    
C69   H59   S    
C31   P1    S    
O19   P2    D    
C51   C58   A    
O7    P7    S    
O6    P7    D    
C44   C46   A    
C51   C53   A    
C4    C16   S    
C44   H54   S    
C45   O3    S    
O4    P1    S    
C64   O22   S    
C68   H5    S    
C49   C50   A    
C16   H15   S    
Ba1   O15   S    
C17   C20   A    
C13   C39   A    
C69   H61   S    
C3    C5    S    
C18   C37   A    
Ba2   O25   S    
C34   H11   S    
C32   H40   S    
C27   N2    Am   
C67   O9    S    
C12   H1    S    
C12   O18   S    
C9    C36   A    
C41   C42   A    
C4    H38   S    
C35   C36   A    
C59   C63   A    
C2    O13   D    
C7    H28   S    
C28   H58   S    
C1    H7    S    
C26   O14   D    
C48   C49   A    
C18   C19   A    
C11   H29   S    
C66   H67   S    
C28   O28   S    
C1    C12   S    
C61   C65   A    
Ba2   O26   S    
C6    P4    S    
C15   H43   S    
C70   H62   S    
O23   P3    S    
C39   H36   S    
C29   C33   D    
C16   H55   S    
C72   N1    Am   
C41   H37   S    
C12   O24   S    
O25   P4    D    
C60   P5    S    
C18   C41   A    
O28   P4    S    
C66   H2    S    
C71   H24   S    
C4    O23   S    
Ba1   P1    S    
C5    P8    S    
C68   H4    S    
C45   H16   S    
C56   H18   S    
C29   C30   S    
C5    C14   S    
Ba1   O5    S    
C66   O12   S    
C9    C10   A    
C52   C64   S    
C34   H10   S    
C57   H50   S    
Ba2   O27   S    
C37   C43   A    
C1    H14   S    
O5    P2    S    
C49   H52   S    
C62   C63   A    
C55   F1    S    
C2    C13   A    
C56   H19   S    
C48   C58   S    
C3    C8    D    
C14   H42   S    
Ba2   O30   S    
C45   C56   S    
C21   H31   S    
C43   H41   S    
C28   H57   S    
C19   C24   A    
C31   C32   D    
O2    P5    D    
C28   C40   S    
C8    N1    S    
C52   O17   S    
C59   C60   A    
C46   C47   A    
C23   C34   S    
C42   H39   S    
C61   C62   A    
O3    P5    S    
C38   H33   S    
C64   H65   S    
O9    P8    S    
Ba1   O19   S    
C66   C68   S    
C47   C48   A    
C29   H30   S    
C25   C26   A    
C23   H8    S    
C15   C30   S    
C39   C43   A    
C20   C21   A    
C30   P6    S    
Ba1   O4    S    
C40   H12   S    
Ba2   P4    S    
C10   C11   A    
C65   H53   S    
C1    H3    S    
O8    P8    D    
O30   P5    S    
C71   H27   S    
O20   P3    S    
C54   C63   S    
C16   H49   S    
C46   P2    S    
C67   H22   S    
