data_mof_unit_43790.cif
_audit_creation_date              2012-10-26T20:33:44-0400
_audit_creation_method            fapswitch 2.2
_symmetry_space_group_name_H-M    P1
_symmetry_Int_Tables_number       1
_space_group_crystal_system       triclinic
_cell_length_a                    10.768762
_cell_length_b                    9.09205
_cell_length_c                    7.78912
_cell_angle_alpha                 89.99973
_cell_angle_beta                  90.0
_cell_angle_gamma                 89.984947
_cell_volume                      762.633667367

loop_
_atom_site_label
_atom_site_type_symbol
_atom_type_description
_atom_site_fract_x
_atom_site_fract_y
_atom_site_fract_z
_atom_type_partial_charge
C1    C     C_R   0.500001 0.220050 0.499997 0.575165
C2    C     C_1   0.500000 0.934624 0.499986 -0.032175
C3    C     C_3   0.070823 0.494324 0.687349 -0.238676
C4    C     C_3   0.929177 0.505617 0.687350 -0.238674
C5    C     C_3   0.121968 0.499840 0.500221 0.081701
C6    C     C_3   0.878032 0.500113 0.500221 0.081702
C7    C     C_R   0.259494 0.500023 0.500196 0.616668
C8    C     C_R   0.740506 0.499935 0.500196 0.616668
C9    C     C_R   0.499998 0.779957 0.499996 0.575090
C10   C     C_1   0.500000 0.065383 0.499986 -0.032185
C11   C     C_3   0.072362 0.363498 0.398144 -0.037537
C12   C     C_3   0.073122 0.642332 0.409534 -0.038199
C13   C     C_3   0.926877 0.357627 0.409524 -0.038202
C14   C     C_3   0.927638 0.636461 0.398154 -0.037534
Cu1   Cu    Cu3+1 0.500000 0.500010 0.669080 1.025496
Cu2   Cu    Cu3+1 0.500000 0.500010 0.330920 1.035789
H1    H     H_    0.096018 0.381885 0.260413 0.123532
H2    H     H_    0.116761 0.197334 0.574515 0.231848
H3    H     H_    0.103797 0.866866 0.414662 0.225201
H4    H     H_    0.084024 0.792706 0.612444 0.232407
H5    H     H_    0.896200 0.133094 0.414633 0.225201
H6    H     H_    0.915978 0.207237 0.612421 0.232408
H7    H     H_    0.892804 0.858498 0.366848 0.224323
H8    H     H_    0.883240 0.802619 0.574534 0.231848
H9    H     H_    0.108934 0.641941 0.275183 0.126357
H10   H     H_    0.891065 0.358026 0.275173 0.126356
H11   H     H_    0.903983 0.618082 0.260422 0.123531
H12   H     H_    0.099280 0.390732 0.751952 0.121873
H13   H     H_    0.109860 0.584698 0.766892 0.133650
H14   H     H_    0.890138 0.415238 0.766885 0.133647
H15   H     H_    0.900721 0.609206 0.751960 0.121877
H16   H     H_    0.107193 0.141462 0.366827 0.224325
N1    N     N_1   0.500000 0.499970 0.076820 -0.090495
N2    N     N_1   0.500000 0.499970 0.923180 -0.091223
N3    N     N_3   0.135776 0.226608 0.447811 -0.637371
N4    N     N_3   0.123103 0.775527 0.491571 -0.640397
N5    N     N_3   0.876897 0.224427 0.491551 -0.640405
N6    N     N_3   0.864224 0.773349 0.447829 -0.637363
O1    O     O_R   0.500000 0.288400 0.642760 -0.497914
O2    O     O_R   0.500000 0.288400 0.357240 -0.492344
O3    O     O_R   0.317700 0.499990 0.642790 -0.510832
O4    O     O_R   0.317700 0.499990 0.357210 -0.506995
O5    O     O_R   0.682300 0.499990 0.642790 -0.510833
O6    O     O_R   0.682300 0.499990 0.357210 -0.506994
O7    O     O_R   0.500000 0.711620 0.642810 -0.497941
O8    O     O_R   0.500000 0.711620 0.357190 -0.492373

loop_
_geom_bond_atom_site_label_1
_geom_bond_atom_site_label_2
_ccdc_geom_bond_type
C2    C9    S    
H8    N6    S    
C9    O7    A    
Cu2   N1    S    
C6    C14   S    
H7    N6    S    
H2    N3    S    
Cu2   O6    S    
Cu1   N2    S    
C13   N5    S    
C8    O5    A    
C12   H9    S    
C11   N3    S    
N1    N2    T    
Cu1   O5    S    
C9    O8    A    
C6    C13   S    
C11   C13   S    
Cu1   O1    S    
Cu2   O2    S    
C3    H12   S    
C12   C14   S    
C5    C11   S    
C5    C7    S    
H3    N4    S    
C7    O3    A    
C8    O6    A    
C14   H11   S    
C13   H10   S    
C4    H15   S    
C12   N4    S    
Cu1   O7    S    
C14   N6    S    
Cu1   Cu2   S    
C2    C10   T    
H16   N3    S    
Cu2   O4    S    
H5    N5    S    
Cu1   O3    S    
C5    C12   S    
C4    C6    S    
C7    O4    A    
Cu2   O8    S    
C3    H13   S    
C1    O1    A    
C11   H1    S    
C6    C8    S    
C1    O2    A    
H6    N5    S    
C4    H14   S    
C1    C10   S    
C3    C4    S    
C3    C5    S    
H4    N4    S    
