data_mof_unit_53813.cif
_audit_creation_date              2012-12-10T20:34:56-0500
_audit_creation_method            fapswitch 2.2
_symmetry_space_group_name_H-M    P1
_symmetry_Int_Tables_number       1
_space_group_crystal_system       triclinic
_cell_length_a                    10.6978
_cell_length_b                    10.861578
_cell_length_c                    9.991199
_cell_angle_alpha                 88.321264
_cell_angle_beta                  90.695782
_cell_angle_gamma                 94.459401
_cell_volume                      1156.85930512

loop_
_atom_site_label
_atom_site_type_symbol
_atom_type_description
_atom_site_fract_x
_atom_site_fract_y
_atom_site_fract_z
_atom_type_partial_charge
C1    C     C_R   0.503579 0.260706 0.501647 0.894970
C2    C     C_R   0.515975 0.933260 0.612688 -0.005524
C3    C     C_3   0.508926 0.910061 0.760195 0.450102
C4    C     C_R   0.258485 0.505257 0.499331 0.834450
C5    C     C_3   0.498235 0.050737 0.768141 -0.227690
C6    C     C_R   0.393684 0.467694 0.069149 0.059344
C7    C     C_R   0.601558 0.550731 0.072456 0.169297
C8    C     C_R   0.605737 0.536390 0.928404 0.152012
C9    C     C_R   0.390010 0.482779 0.928063 0.086814
C10   C     C_3   0.292580 0.377823 0.915446 -0.157559
C11   C     C_3   0.320816 0.343645 0.061964 0.254768
C12   C     C_3   0.878444 0.500713 0.500844 0.080059
C13   C     C_R   0.508157 0.739529 0.497988 0.855718
C14   C     C_R   0.741829 0.499039 0.500644 0.844346
C15   C     C_3   0.065951 0.390583 0.574137 -0.510484
C16   C     C_3   0.923672 0.394615 0.591301 -0.417966
C17   C     C_3   0.079030 0.623034 0.575873 -0.039715
C18   C     C_3   0.068020 0.512079 0.352239 -0.114823
C19   C     C_3   0.121817 0.510489 0.499034 0.103075
C20   C     C_3   0.374648 0.799037 0.935287 -0.788680
C21   C     C_3   0.740570 0.883607 0.748733 -0.805872
C22   C     C_3   0.799604 0.696425 0.088846 -0.940993
C23   C     C_3   0.935129 0.625752 0.556951 -0.482538
C24   C     C_3   0.342423 0.118372 0.101807 -0.871671
C25   C     C_3   0.872522 0.355282 0.160291 -0.814943
C26   C     C_3   0.925371 0.486813 0.354626 0.053402
C27   C     C_R   0.510587 0.056284 0.618053 0.029107
C28   C     C_R   0.516537 0.130034 0.502156 -0.126745
C29   C     C_R   0.540744 0.072958 0.380827 -0.255084
C30   C     C_R   0.544365 0.944191 0.375529 0.114384
C31   C     C_R   0.522780 0.871958 0.494382 -0.153039
H1    H     H_    0.109324 0.380105 0.675020 0.203263
H2    H     H_    0.099688 0.608992 0.684806 0.153331
H3    H     H_    0.893374 0.643579 0.655146 0.173169
H4    H     H_    0.104597 0.435757 0.301422 0.195695
H5    H     H_    0.238575 0.740229 0.556177 0.180183
H6    H     H_    0.109626 0.811198 0.586450 0.179734
H7    H     H_    0.669819 0.865214 0.266821 0.171776
H8    H     H_    0.581014 0.953797 0.174020 0.160440
H9    H     H_    0.314603 0.860021 0.748308 0.189212
H10   H     H_    0.293486 0.729087 0.942871 0.235524
H11   H     H_    0.352326 0.879864 0.992049 0.229746
H12   H     H_    0.884287 0.557540 0.289698 0.201579
H13   H     H_    0.457278 0.757386 0.980151 0.253759
H14   H     H_    0.632212 0.887003 0.920391 0.219120
H15   H     H_    0.819407 0.856794 0.813559 0.212791
H16   H     H_    0.760551 0.981904 0.717213 0.260228
H17   H     H_    0.737277 0.824941 0.659504 0.236209
H18   H     H_    0.588556 0.110887 0.938304 0.186035
H19   H     H_    0.610767 0.208888 0.806383 0.219723
H20   H     H_    0.662739 0.658388 0.228115 0.287882
H21   H     H_    0.851476 0.748111 0.169182 0.231285
H22   H     H_    0.762613 0.765874 0.020113 0.257187
H23   H     H_    0.911966 0.702807 0.487353 0.161339
H24   H     H_    0.869028 0.641535 0.041516 0.263674
H25   H     H_    0.787394 0.497328 0.906412 0.157570
H26   H     H_    0.752084 0.641730 0.844779 0.209572
H27   H     H_    0.412727 0.264962 0.835869 0.238368
H28   H     H_    0.258765 0.212319 0.826659 0.163716
H29   H     H_    0.237058 0.302135 0.241205 0.205264
H30   H     H_    0.146098 0.264170 0.107538 0.181056
H31   H     H_    0.480676 0.259903 0.138150 0.245970
H32   H     H_    0.303872 0.106727 0.204441 0.255151
H33   H     H_    0.414192 0.051812 0.091651 0.240152
H34   H     H_    0.559316 0.127903 0.290513 0.172717
H35   H     H_    0.266937 0.097922 0.026839 0.244643
H36   H     H_    0.053575 0.699038 0.302126 0.205338
H37   H     H_    0.198642 0.653128 0.282105 0.238316
H38   H     H_    0.931719 0.292131 0.346529 0.224147
H39   H     H_    0.860558 0.256635 0.132957 0.224628
H40   H     H_    0.955925 0.400118 0.108145 0.242704
H41   H     H_    0.787525 0.399172 0.126648 0.273099
H42   H     H_    0.405443 0.071581 0.804721 0.141365
H43   H     H_    0.085968 0.307609 0.517743 0.162508
H44   H     H_    0.197978 0.411645 0.897905 0.137397
H45   H     H_    0.874223 0.304013 0.567019 0.169320
H46   H     H_    0.903166 0.411249 0.697963 0.194705
N1    N     N_R   0.499150 0.499140 0.142800 -0.172401
N2    N     N_3   0.322421 0.289813 0.816434 -0.399757
N3    N     N_3   0.210124 0.332374 0.145532 -0.476768
N4    N     N_2   0.401298 0.241656 0.080754 -0.315684
N5    N     N_3   0.103462 0.625747 0.272425 -0.468930
N6    N     N_2   0.886574 0.364235 0.303924 -0.286260
N7    N     N_R   0.499150 0.499180 0.857150 -0.112010
N8    N     N_3   0.143569 0.740842 0.531106 -0.485337
N9    N     N_3   0.577675 0.888990 0.253425 -0.436033
N10   N     N_2   0.394929 0.834056 0.796046 -0.292880
N11   N     N_2   0.622867 0.865289 0.820944 -0.259540
N12   N     N_3   0.605382 0.115574 0.835440 -0.455529
N13   N     N_2   0.698302 0.617524 0.147345 -0.278997
N14   N     N_3   0.721158 0.549186 0.858151 -0.408441
O1    O     O_R   0.500020 0.316790 0.614690 -0.620264
O2    O     O_R   0.500000 0.316760 0.385350 -0.627359
O3    O     O_R   0.314800 0.500000 0.614670 -0.601376
O4    O     O_R   0.314790 0.499960 0.385330 -0.629285
O5    O     O_R   0.500000 0.683240 0.614650 -0.580986
O6    O     O_R   0.499980 0.683210 0.385310 -0.622352
O7    O     O_R   0.685210 0.500040 0.614670 -0.605746
O8    O     O_R   0.685200 0.500000 0.385330 -0.624618
Zn1   Zn    Zn3+2 0.500010 0.500020 0.653130 0.966941
Zn2   Zn    Zn3+2 0.499990 0.499980 0.346870 0.934499

loop_
_geom_bond_atom_site_label_1
_geom_bond_atom_site_label_2
_ccdc_geom_bond_type
C26   N6    S    
C18   C26   S    
C6    C9    A    
C20   H10   S    
C15   H1    S    
C11   N4    S    
C15   C19   S    
C12   C23   S    
C17   C23   S    
H7    N9    S    
C17   N8    S    
H9    N10   S    
H6    N8    S    
C28   C29   A    
C18   C19   S    
H20   N13   S    
C30   C31   A    
C6    N1    A    
H30   N3    S    
C15   C16   S    
C20   N10   S    
C16   H46   S    
C18   N5    S    
C5    C27   S    
C4    C19   S    
H25   N14   S    
C12   C16   S    
C1    C28   S    
C2    C27   A    
C25   H40   S    
C30   N9    S    
C9    C10   S    
C24   H35   S    
C21   H17   S    
C21   N11   S    
C24   H33   S    
C8    N7    A    
N1    Zn2   S    
C5    H42   S    
C17   H2    S    
C20   H13   S    
C26   H12   S    
C14   O7    A    
C22   H22   S    
C13   O5    A    
C3    N10   S    
N7    Zn1   S    
C14   O8    A    
H14   N11   S    
C11   N3    S    
O2    Zn2   S    
C6    C11   S    
C8    N14   S    
C7    N13   S    
C12   C26   S    
C2    C31   A    
C24   N4    S    
C29   C30   A    
H38   N6    S    
C4    O4    A    
C10   H44   S    
H19   N12   S    
O3    Zn1   S    
C23   H3    S    
C22   N13   S    
C25   H41   S    
H27   N2    S    
C7    N1    A    
C29   H34   S    
O8    Zn2   S    
H31   N4    S    
C12   C14   S    
C24   H32   S    
O7    Zn1   S    
C4    O3    A    
H28   N2    S    
O1    Zn1   S    
C23   H23   S    
C22   H21   S    
C21   H15   S    
C18   H4    S    
H29   N3    S    
H26   N14   S    
C3    N11   S    
C16   H45   S    
C13   C31   S    
H18   N12   S    
C3    C5    S    
C20   H11   S    
C10   N2    S    
C22   H24   S    
H5    N8    S    
C1    O1    A    
H37   N5    S    
C2    C3    S    
O5    Zn1   S    
C17   C19   S    
C13   O6    A    
C5    N12   S    
C7    C8    A    
C10   C11   S    
C9    N7    A    
C15   H43   S    
H36   N5    S    
C1    O2    A    
C27   C28   A    
C25   N6    S    
C25   H39   S    
H8    N9    S    
O6    Zn2   S    
O4    Zn2   S    
C21   H16   S    
