data_mof_unit_45422.cif
_audit_creation_date              2012-12-10T18:05:50-0500
_audit_creation_method            fapswitch 2.2
_symmetry_space_group_name_H-M    P1
_symmetry_Int_Tables_number       1
_space_group_crystal_system       triclinic
_cell_length_a                    12.729079
_cell_length_b                    13.007311
_cell_length_c                    14.992583
_cell_angle_alpha                 93.233208
_cell_angle_beta                  103.243107
_cell_angle_gamma                 81.013791
_cell_volume                      2386.11814304

loop_
_atom_site_label
_atom_site_type_symbol
_atom_type_description
_atom_site_fract_x
_atom_site_fract_y
_atom_site_fract_z
_atom_type_partial_charge
C1    C     C_R   0.439017 0.691840 0.496378 0.948516
C2    C     C_R   0.406992 0.544849 0.797660 0.475734
C3    C     C_R   0.502829 0.501245 0.769724 -0.295090
C4    C     C_R   0.501528 0.500519 0.673042 0.954700
C5    C     C_R   0.593679 0.450462 0.831971 0.298021
C6    C     C_R   0.716795 0.062971 0.627083 -0.167258
C7    C     C_R   0.600357 0.198643 0.532300 -0.175683
C8    C     C_R   0.295486 0.842581 0.453344 -0.312077
C9    C     C_R   0.262202 0.949273 0.446383 0.389171
C10   C     C_R   0.336057 0.018245 0.482699 0.459778
C11   C     C_R   0.446066 0.978003 0.525936 -0.152805
C12   C     C_R   0.577619 0.434388 0.106739 -0.056465
C13   C     C_R   0.469794 0.872902 0.551118 -0.137904
C14   C     C_R   0.532922 0.037620 0.545515 0.041265
C15   C     C_R   0.633274 0.000316 0.605936 -0.066650
C16   C     C_R   0.561751 0.308262 0.511890 0.921382
C17   C     C_R   0.646998 0.902696 0.645416 0.261167
C18   C     C_R   0.562713 0.841369 0.622091 0.492034
C19   C     C_R   0.524486 0.131177 0.502060 -0.205142
C20   C     C_R   0.699883 0.163035 0.593189 0.413214
C21   C     C_R   0.399664 0.803419 0.503853 -0.154233
C22   C     C_R   0.078312 0.390185 0.339341 -0.337162
C23   C     C_R   0.300167 0.576768 0.007905 0.522687
C24   C     C_R   0.806132 0.605191 0.628322 -0.094657
C25   C     C_R   0.915987 0.599333 0.673078 0.462577
C26   C     C_R   0.995406 0.548275 0.628592 0.318874
C27   C     C_R   0.965668 0.515931 0.535371 -0.157369
C28   C     C_R   0.497285 0.501715 0.327040 0.947433
C29   C     C_R   0.853494 0.508645 0.499528 0.107411
C30   C     C_R   0.042043 0.480496 0.479477 0.045303
C31   C     C_R   0.005002 0.437085 0.391238 0.053118
C32   C     C_R   0.895606 0.432194 0.357918 -0.240215
C33   C     C_R   0.825333 0.450648 0.416500 0.412636
C34   C     C_R   0.306043 0.579693 0.916813 -0.223238
C35   C     C_R   0.153051 0.490743 0.504399 -0.089502
C36   C     C_R   0.189599 0.392585 0.372432 0.720177
C37   C     C_R   0.579358 0.444513 0.199226 -0.245647
C38   C     C_R   0.491890 0.500069 0.230019 -0.179586
C39   C     C_R   0.398907 0.548021 0.168832 0.338724
C40   C     C_R   0.394004 0.537138 0.074002 -0.050837
C41   C     C_R   0.486840 0.484402 0.043812 -0.063748
C42   C     C_3   0.279120 0.161084 0.563230 -0.172801
C43   C     C_3   0.547090 0.783547 0.758282 -0.349323
C44   C     C_3   0.238327 0.351434 0.233070 -0.280487
C45   C     C_R   0.401435 0.537554 0.888534 -0.023071
C46   C     C_3   0.902030 0.601403 0.823442 -0.121436
C47   C     C_3   0.138893 0.529602 0.015115 -0.216887
C48   C     C_3   0.312839 0.691352 0.722380 -0.294444
C49   C     C_3   0.700155 0.212503 0.912368 -0.166681
C50   C     C_3   0.731943 0.226023 0.159786 -0.235059
C51   C     C_R   0.490746 0.484854 0.951167 -0.113179
C52   C     C_R   0.584488 0.434320 0.921697 -0.166810
C53   C     C_R   0.665517 0.369192 0.983393 0.484850
C54   C     C_R   0.664474 0.373115 0.076350 0.409885
Cl1   Cl    Cl    0.770794 0.853706 0.721444 -0.624691
Cl2   Cl    Cl    0.128325 0.996021 0.388012 -0.515332
Cl3   Cl    Cl    0.298667 0.632500 0.213729 -0.554927
Cl4   Cl    Cl    0.117861 0.492935 0.701382 -0.572445
Cl5   Cl    Cl    0.761263 0.340294 0.408518 -0.592963
Cl6   Cl    Cl    0.719510 0.412727 0.798335 -0.553846
Cl7   Cl    Cl    0.804737 0.239668 0.632122 -0.469059
H1    H     H_    0.648856 0.407878 0.247950 0.234084
H2    H     H_    0.356272 0.154253 0.616840 0.136972
H3    H     H_    0.218517 0.120023 0.584321 0.177643
H4    H     H_    0.244863 0.244902 0.557596 0.211691
H5    H     H_    0.468876 0.837504 0.752395 0.143043
H6    H     H_    0.614084 0.820335 0.802472 0.224994
H7    H     H_    0.541444 0.713153 0.794139 0.186732
H8    H     H_    0.313165 0.337040 0.205413 0.190368
H9    H     H_    0.196741 0.431231 0.212816 0.175675
H10   H     H_    0.186477 0.291939 0.201568 0.178300
H11   H     H_    0.919483 0.514826 0.822696 0.195351
H12   H     H_    0.794050 0.037147 0.673197 0.230711
H13   H     H_    0.813028 0.628721 0.812526 0.185743
H14   H     H_    0.939301 0.629589 0.892839 0.182791
H15   H     H_    0.063066 0.554331 0.040081 0.196408
H16   H     H_    0.183166 0.458946 0.053210 0.132554
H17   H     H_    0.115374 0.509894 0.940748 0.178903
H18   H     H_    0.228348 0.725824 0.689731 0.219047
H19   H     H_    0.336596 0.734300 0.788570 0.142583
H20   H     H_    0.364995 0.701851 0.674707 0.178842
H21   H     H_    0.645077 0.232255 0.844677 0.172890
H22   H     H_    0.654527 0.178583 0.955664 0.092887
H23   H     H_    0.456878 0.154938 0.445645 0.242188
H24   H     H_    0.767068 0.151518 0.900342 0.213662
H25   H     H_    0.647189 0.227853 0.168919 0.141258
H26   H     H_    0.788155 0.201078 0.225581 0.233843
H27   H     H_    0.748987 0.166667 0.106938 0.185139
H28   H     H_    0.240087 0.790345 0.418359 0.231296
H29   H     H_    0.869972 0.392593 0.292681 0.221323
H30   H     H_    0.048920 0.349839 0.275463 0.175786
H31   H     H_    0.185210 0.538787 0.561950 0.227751
H32   H     H_    0.743134 0.640494 0.662114 0.231046
H33   H     H_    0.234373 0.615080 0.868442 0.245392
N1    N     N_R   0.222190 0.444670 0.452360 -0.163448
N2    N     N_R   0.776970 0.554790 0.547140 -0.148495
O1    O     O_R   0.366740 0.627160 0.477250 -0.624682
O2    O     O_3   0.568162 0.753039 0.671273 -0.607892
O3    O     O_3   0.269052 0.341142 0.329138 -0.563345
O4    O     O_3   0.948290 0.643793 0.759461 -0.549919
O5    O     O_3   0.201357 0.612087 0.030553 -0.541946
O6    O     O_3   0.314166 0.584598 0.734053 -0.552660
O7    O     O_3   0.746228 0.299948 0.955074 -0.526658
O8    O     O_3   0.753809 0.323593 0.138034 -0.602607
O9    O     O_R   0.544830 0.662520 0.507680 -0.584450
O10   O     O_R   0.410940 0.482340 0.616930 -0.588577
O11   O     O_R   0.589030 0.517700 0.647360 -0.558051
O12   O     O_R   0.455170 0.337480 0.492320 -0.596650
O13   O     O_R   0.633260 0.372840 0.522750 -0.500663
O14   O     O_R   0.410970 0.482300 0.352640 -0.552818
O15   O     O_R   0.589060 0.517660 0.383070 -0.610395
O16   O     O_3   0.297897 0.123859 0.477227 -0.588561
Zn1   Zn    Zn3+2 0.381090 0.476390 0.479680 1.032506
Zn2   Zn    Zn3+2 0.618910 0.523610 0.520320 1.062469

loop_
_geom_bond_atom_site_label_1
_geom_bond_atom_site_label_2
_ccdc_geom_bond_type
C49   H21   S    
C1    C21   S    
C47   O5    S    
C27   C29   A    
C43   O2    S    
C37   H1    S    
C53   C54   A    
C50   O8    S    
C26   C27   A    
C37   C38   A    
C30   C35   A    
C48   H18   S    
C54   O8    S    
N1    Zn1   S    
C47   H15   S    
C24   N2    A    
C30   C31   A    
C44   O3    S    
C45   C51   A    
C23   C40   A    
C39   Cl3   S    
C29   C33   A    
C12   C37   A    
C48   H20   S    
C44   H10   S    
C20   Cl7   S    
C42   O16   S    
C6    C15   A    
C32   H29   S    
C8    C9    A    
C42   H4    S    
C22   H30   S    
C5    C52   A    
C44   H9    S    
C36   O3    S    
C9    C10   A    
C17   Cl1   S    
C46   H11   S    
C50   H27   S    
C35   H31   S    
C33   Cl5   S    
C27   C30   A    
N2    Zn2   S    
C46   H14   S    
C16   O13   A    
C8    C21   A    
C28   O15   A    
C38   C39   A    
C4    O11   A    
C22   C31   A    
O10   Zn1   S    
C51   C52   A    
C49   H24   S    
O9    Zn2   S    
C24   C25   A    
C10   C11   A    
C1    O1    A    
C39   C40   A    
C9    Cl2   S    
C16   O12   A    
C43   H7    S    
C28   O14   A    
C25   C26   A    
C4    O10   A    
O12   Zn1   S    
O11   Zn2   S    
C12   C41   A    
C25   O4    S    
C31   C32   A    
C28   C38   S    
C23   C34   A    
C48   O6    S    
C17   C18   A    
C13   C21   A    
C44   H8    S    
C34   C45   A    
C10   O16   S    
C26   Cl4   S    
O14   Zn1   S    
O13   Zn2   S    
C13   C18   A    
C7    C16   S    
C7    C19   A    
C47   H16   S    
O1    Zn1   S    
C3    C4    S    
C42   H3    S    
C46   H13   S    
C6    C20   A    
C52   C53   A    
C6    H12   S    
C15   C17   A    
C46   O4    S    
C40   C41   A    
C5    Cl6   S    
C14   C19   A    
C50   H26   S    
C34   H33   S    
C3    C5    A    
C49   O7    S    
C29   N2    A    
C35   N1    A    
C22   C36   A    
C32   C33   A    
C48   H19   S    
C2    C3    A    
C24   H32   S    
C11   C13   A    
C36   N1    A    
C49   H22   S    
C23   O5    S    
C53   O7    S    
C43   H5    S    
C11   C14   A    
O15   Zn2   S    
C2    C45   A    
C50   H25   S    
C43   H6    S    
C7    C20   A    
C2    O6    S    
C14   C15   A    
C8    H28   S    
C18   O2    S    
C47   H17   S    
C42   H2    S    
C41   C51   A    
C12   C54   A    
C19   H23   S    
C1    O9    A    
