data_mof_unit_50870.cif
_audit_creation_date              2013-03-05T15:48:29-0500
_audit_creation_method            fapswitch 2.2
_symmetry_space_group_name_H-M    P1
_symmetry_Int_Tables_number       1
_space_group_crystal_system       triclinic
_cell_length_a                    19.965289
_cell_length_b                    7.22397
_cell_length_c                    14.372551
_cell_angle_alpha                 90.002119
_cell_angle_beta                  103.649645
_cell_angle_gamma                 89.998473
_cell_volume                      2014.38752162

loop_
_atom_site_label
_atom_site_type_symbol
_atom_site_description
_atom_site_fract_x
_atom_site_fract_y
_atom_site_fract_z
_atom_type_partial_charge
O1    O     O_R   0.449830 0.506740 0.599960 -0.579995
O2    O     O_R   0.550170 0.006740 0.400040 -0.580020
O3    O     O_R   0.588980 0.179860 0.596720 -0.592264
O4    O     O_R   0.411020 0.679860 0.403280 -0.592260
C1    C     C_R   0.615818 0.345914 0.618265 1.097511
C2    C     C_R   0.384185 0.845918 0.381728 1.097223
O5    O     O_R   0.452740 0.177340 0.612040 -0.581108
O6    O     O_R   0.547260 0.677340 0.387960 -0.581101
O7    O     O_R   0.412960 0.002070 0.415460 -0.575998
O8    O     O_R   0.587040 0.502070 0.584540 -0.576003
C3    C     C_R   0.435256 0.345891 0.634934 1.081497
C4    C     C_R   0.564743 0.845887 0.365066 1.081167
O9    O     O_3   0.487110 0.337570 0.435490 -0.292517
O10   O     O_3   0.512890 0.837570 0.564510 -0.292547
V1    V     V_3+5 0.502390 0.064650 0.511970 1.332056
V2    V     V_3+5 0.497610 0.564650 0.488030 1.332084
C5    C     C_R   0.606244 0.972418 0.132052 -0.088972
C6    C     C_R   0.393775 0.472131 0.868020 -0.089091
H1    H     H_    0.578420 0.020561 0.062452 0.214769
H2    H     H_    0.421595 0.520121 0.937652 0.214910
C7    C     C_R   0.601160 0.859974 0.287691 -0.301930
C8    C     C_R   0.398847 0.359963 0.712322 -0.301975
C9    C     C_R   0.931729 0.802936 0.301572 -0.242376
C10   C     C_R   0.068278 0.302931 0.698430 -0.242344
C11   C     C_R   0.899814 0.790817 0.376991 0.323116
C12   C     C_R   0.100194 0.290844 0.623007 0.323086
C13   C     C_R   0.828907 0.831279 0.360106 0.401317
C14   C     C_R   0.171101 0.331325 0.639907 0.401326
C15   C     C_R   0.787438 0.856223 0.265364 -0.122804
C16   C     C_R   0.212568 0.356196 0.734656 -0.122807
C17   C     C_R   0.822286 0.872759 0.189476 -0.084370
C18   C     C_R   0.177718 0.372700 0.810542 -0.084361
C19   C     C_R   0.713119 0.872254 0.243272 0.115945
C20   C     C_R   0.286889 0.372201 0.756752 0.115985
C21   C     C_R   0.677751 0.938599 0.152012 -0.119564
C22   C     C_R   0.322260 0.438426 0.848034 -0.119568
C23   C     C_R   0.712875 0.958226 0.079266 0.319888
C24   C     C_R   0.287132 0.458056 0.920776 0.319873
C25   C     C_R   0.782559 0.911004 0.096233 0.333906
C26   C     C_R   0.217443 0.410898 0.903793 0.333907
C27   C     C_R   0.671732 0.817271 0.306313 -0.060542
C28   C     C_R   0.328270 0.317306 0.693688 -0.060649
C29   C     C_R   0.568197 0.939175 0.199760 0.313318
C30   C     C_R   0.431829 0.438963 0.800305 0.313148
C31   C     C_R   0.895756 0.851803 0.209993 -0.177330
C32   C     C_R   0.104247 0.351778 0.790014 -0.177346
H3    H     H_    0.692622 0.737473 0.369469 0.219680
H4    H     H_    0.307371 0.237606 0.630501 0.219687
H5    H     H_    0.986579 0.782598 0.316167 0.240231
H6    H     H_    0.013429 0.282596 0.683835 0.240267
C33   C     C_3   0.227181 0.678830 0.184302 0.432423
C34   C     C_3   0.772819 0.178844 0.815706 0.432380
H7    H     H_    0.230055 0.667516 0.108992 0.183922
H8    H     H_    0.769946 0.167561 0.891017 0.183928
C35   C     C_3   0.301905 0.690152 0.245470 -0.391709
C36   C     C_3   0.698094 0.190168 0.754538 -0.391635
H9    H     H_    0.336921 0.710784 0.196971 0.259165
H10   H     H_    0.663082 0.210841 0.803040 0.259209
H11   H     H_    0.319029 0.554922 0.279103 0.243584
H12   H     H_    0.680965 0.054930 0.720917 0.243552
C37   C     C_3   0.178139 0.867679 0.305824 0.294569
C38   C     C_3   0.821864 0.367608 0.694171 0.294592
C39   C     C_3   0.232048 0.016913 0.175096 0.282308
C40   C     C_3   0.767957 0.516930 0.824888 0.282316
C41   C     C_3   0.185335 0.854284 0.196144 -0.514555
C42   C     C_3   0.814667 0.354275 0.803852 -0.514564
H13   H     H_    0.203721 0.145371 0.173530 0.236412
H14   H     H_    0.796288 0.645372 0.826452 0.236420
C43   C     C_3   0.311651 0.857097 0.317035 -0.347756
C44   C     C_3   0.688352 0.357083 0.682959 -0.347760
C45   C     C_3   0.254866 0.852549 0.378249 0.344828
C46   C     C_3   0.745137 0.352468 0.621746 0.344754
C47   C     C_3   0.300753 0.032109 0.252345 -0.377882
C48   C     C_3   0.699256 0.532125 0.747634 -0.377884
H15   H     H_    0.344782 0.048407 0.218060 0.272168
H16   H     H_    0.655227 0.548470 0.781914 0.272145
H17   H     H_    0.300386 0.161238 0.293532 0.243047
H18   H     H_    0.699629 0.661230 0.706435 0.243059
O11   O     O_R   0.912980 0.203550 0.915410 -0.532850
O12   O     O_R   0.087020 0.703550 0.084590 -0.532871
O13   O     O_R   0.047270 0.535570 0.887960 -0.576102
O14   O     O_R   0.952730 0.035570 0.112040 -0.576076
C49   C     C_R   0.062335 0.366918 0.861842 1.097037
C50   C     C_R   0.937664 0.866925 0.138157 1.097081
O15   O     O_R   0.911030 0.532970 0.903270 -0.564584
O16   O     O_R   0.088970 0.032970 0.096730 -0.564531
O17   O     O_R   0.949820 0.708150 0.099970 -0.568945
O18   O     O_R   0.050180 0.208150 0.900030 -0.568936
C51   C     C_R   0.884870 0.363769 0.879323 1.050428
C52   C     C_R   0.115132 0.863770 0.120673 1.050516
O19   O     O_3   0.012900 0.375230 0.064480 -0.242009
O20   O     O_3   0.987100 0.875230 0.935520 -0.242037
V3    V     V_3+5 0.997610 0.648190 0.988040 1.402756
V4    V     V_3+5 0.002390 0.148190 0.011960 1.402790
N1    N     N_R   0.495406 0.976353 0.175964 0.241335
O21   O     O_R   0.470313 0.109924 0.117276 -0.314075
O22   O     O_R   0.453186 0.861873 0.202310 -0.429001
N2    N     N_R   0.504637 0.475987 0.824153 0.241466
O23   O     O_R   0.529804 0.608823 0.883315 -0.313862
O24   O     O_R   0.546807 0.361878 0.797411 -0.429504
N3    N     N_R   0.133337 0.722782 0.332026 0.290759
O25   O     O_R   0.082588 0.652724 0.267989 -0.339990
O26   O     O_R   0.128149 0.715550 0.420529 -0.228507
N4    N     N_R   0.866665 0.222681 0.667984 0.290778
O27   O     O_R   0.917423 0.152672 0.732024 -0.340005
O28   O     O_R   0.871839 0.215362 0.579478 -0.228383
N5    N     N_R   0.266691 0.678654 0.434520 0.265340
O29   O     O_R   0.256266 0.518084 0.393682 -0.259237
O30   O     O_R   0.303756 0.683023 0.522348 -0.342407
N6    N     N_R   0.733309 0.178548 0.565488 0.265330
O31   O     O_R   0.743722 0.017991 0.606337 -0.259277
O32   O     O_R   0.696262 0.182891 0.477649 -0.342411
Cl1   Cl    Cl    0.250264 0.999943 0.058192 -0.531795
Cl2   Cl    Cl    0.749737 0.500018 0.941790 -0.531686
N7    N     N_R   0.143051 0.045111 0.315401 0.249519
O33   O     O_R   0.176540 0.198807 0.336786 -0.222175
O34   O     O_R   0.075991 0.052883 0.293792 -0.341057
N8    N     N_R   0.856948 0.545029 0.684571 0.249509
O35   O     O_R   0.823457 0.698740 0.663242 -0.222287
O36   O     O_R   0.924010 0.552768 0.706071 -0.341000
N9    N     N_R   0.676668 0.017095 0.985514 0.237024
O37   O     O_R   0.660057 0.897103 0.916401 -0.310443
O38   O     O_R   0.651382 0.183666 0.973301 -0.336831
N10   N     N_R   0.323333 0.516931 0.014531 0.237039
O39   O     O_R   0.339919 0.396961 0.083654 -0.310348
O40   O     O_R   0.348637 0.683480 0.026740 -0.336856
N11   N     N_R   0.262506 0.001818 0.450836 0.256923
O41   O     O_R   0.224785 0.994504 0.513353 -0.306188
O42   O     O_R   0.306764 0.135941 0.457752 -0.372015
N12   N     N_R   0.737504 0.501704 0.549149 0.256929
O43   O     O_R   0.775223 0.494330 0.486630 -0.306131
O44   O     O_R   0.693243 0.635828 0.542212 -0.372013
Cl3   Cl    Cl    0.798850 0.894859 0.458905 -0.373987
Cl4   Cl    Cl    0.201157 0.395155 0.541153 -0.374062
N13   N     N_R   0.941200 0.738578 0.470070 0.284471
O45   O     O_R   0.993896 0.629810 0.475854 -0.288000
O46   O     O_R   0.931838 0.811426 0.548742 -0.175406
N14   N     N_R   0.058804 0.238658 0.529915 0.284486
O47   O     O_R   0.006030 0.130178 0.524111 -0.287960
O48   O     O_R   0.068270 0.311199 0.451236 -0.175343
Cl5   Cl    Cl    0.816018 0.887555 0.996071 -0.591780
Cl6   Cl    Cl    0.183971 0.387487 0.003946 -0.591810
Cl7   Cl    Cl    0.186715 0.473617 0.207316 -0.461901
Cl8   Cl    Cl    0.813283 0.973614 0.792701 -0.461938

loop_
_geom_bond_atom_site_label_1
_geom_bond_atom_site_label_2
_geom_bond_distance
_ccdc_geom_bond_type
C2    C43   1.527340 S    
C16   C18   1.430411 A    
C39   C41   1.573146 S    
N3    O25   1.299887 A    
C9    C31   1.388072 A    
C26   Cl6   1.732425 S    
C13   C15   1.428304 A    
C47   H15   1.110782 S    
C35   H11   1.107657 S    
C37   N3    1.482108 S    
N1    O21   1.301584 A    
O1    C3    1.325372 A    
C50   O17   1.318532 A    
O2    C4    1.325343 A    
C2    O7    1.306177 A    
N4    O28   1.301388 A    
O3    V1    2.042362 S    
N13   O45   1.299965 A    
C12   C14   1.409389 A    
O5    C3    1.329232 A    
C34   Cl8   1.756693 S    
C48   H16   1.110782 S    
C14   Cl4   1.728965 S    
C40   H14   1.084164 S    
C21   C23   1.396811 A    
C10   C12   1.383758 A    
C45   N5    1.482515 S    
C9    H5    1.075354 S    
N7    O33   1.295107 A    
C15   C19   1.446910 A    
C33   C41   1.549345 S    
C43   C45   1.590979 S    
C40   C48   1.551609 S    
N6    O31   1.294460 A    
O16   V4    2.042365 S    
C19   C21   1.418312 A    
N8    O35   1.295110 A    
O15   V3    2.042365 S    
C8    C30   1.401915 A    
C25   Cl5   1.732410 S    
C36   H10   1.107639 S    
N7    O34   1.302275 A    
C20   C28   1.419436 A    
C44   C48   1.553967 S    
C29   N1    1.437551 S    
N5    O29   1.294463 A    
C43   C47   1.553961 S    
C6    H2    1.080693 S    
C37   C45   1.639981 S    
O5    V1    2.094443 S    
C49   O18   1.318530 A    
O6    V2    2.094506 S    
C7    C29   1.401838 A    
N5    O30   1.304290 A    
C45   N11   1.482980 S    
C30   N2    1.437674 S    
N4    O27   1.299887 A    
O13   C49   1.330025 A    
C34   H8    1.100395 S    
C42   C51   1.558299 S    
C39   H13   1.084186 S    
C10   H6    1.075346 S    
C41   C52   1.558302 S    
C46   N6    1.482538 S    
O11   C51   1.336498 A    
C38   C42   1.619213 S    
C13   Cl3   1.729036 S    
C40   Cl2   1.805200 S    
O11   V4    2.025589 S    
O4    C2    1.320486 A    
O16   C52   1.341796 A    
C16   C20   1.446921 A    
C39   C47   1.551620 S    
C33   C35   1.544760 S    
O3    C1    1.320475 A    
C4    C7    1.468780 S    
C38   N4    1.482119 S    
C36   H12   1.107656 S    
C33   H7    1.100397 S    
C40   C42   1.573133 S    
O4    V2    2.042362 S    
N12   O44   1.299231 A    
N11   O42   1.299238 A    
C37   N7    1.482592 S    
C1    C44   1.527342 S    
C6    C30   1.389534 A    
O19   V3    2.242821 S    
O13   V3    2.094489 S    
O6    C4    1.329238 A    
O20   V4    2.242764 S    
C27   H3    1.073096 S    
C38   C46   1.639973 S    
O1    V2    2.096988 S    
C28   H4    1.073066 S    
O2    V1    2.096954 S    
N9    O37   1.300977 A    
C35   C43   1.567077 S    
N14   O48   1.300001 A    
C23   N9    1.435051 S    
N8    O36   1.302317 A    
C36   C44   1.567090 S    
C35   H9    1.107645 S    
C48   H18   1.105731 S    
C7    C27   1.405017 A    
C31   C50   1.478402 S    
O14   V4    2.094552 S    
N9    O38   1.300682 A    
C34   C42   1.549334 S    
N10   O40   1.300674 A    
N3    O26   1.301405 A    
N13   O46   1.300028 A    
O15   C51   1.341803 A    
C18   C32   1.434343 A    
C12   N14   1.446821 S    
N1    O22   1.299437 A    
C46   N12   1.482968 S    
C33   Cl7   1.756702 S    
C11   C13   1.409356 A    
C3    C8    1.468820 S    
O14   C50   1.330021 A    
C19   C27   1.419458 A    
C22   C24   1.396820 A    
N12   O43   1.302581 A    
O7    V1    2.036539 S    
C10   C32   1.388064 A    
C1    O8    1.306197 A    
C15   C17   1.430428 A    
O8    V2    2.036544 S    
O19   V4    1.796948 S    
C24   C26   1.396873 A    
C8    C28   1.405023 A    
C34   C36   1.544765 S    
O17   V3    2.100085 S    
C14   C16   1.428292 A    
O20   V3    1.796989 S    
C5    H1    1.080714 S    
C17   C25   1.414124 A    
C20   C22   1.418276 A    
C18   C26   1.414123 A    
O12   C52   1.336497 A    
C11   N13   1.446764 S    
N2    O24   1.299526 A    
N6    O32   1.304290 A    
C38   N8    1.482593 S    
N14   O47   1.299935 A    
C32   C49   1.478387 S    
C39   Cl1   1.805210 S    
C37   C41   1.619212 S    
C9    C11   1.383730 A    
C23   C25   1.396885 A    
N2    O23   1.301786 A    
C17   C31   1.434360 A    
O9    V2    1.797320 S    
C5    C29   1.389468 A    
O18   V4    2.100120 S    
C47   H17   1.105730 S    
O10   V1    1.797361 S    
C44   C46   1.590980 S    
C5    C21   1.409573 A    
O12   V3    2.025586 S    
C6    C22   1.409560 A    
C24   N10   1.435046 S    
N11   O41   1.302582 A    
N10   O39   1.300968 A    
