data_mof_unit_44994.cif
_audit_creation_date              2012-12-10T20:42:38-0500
_audit_creation_method            fapswitch 2.2
_symmetry_space_group_name_H-M    P1
_symmetry_Int_Tables_number       1
_space_group_crystal_system       triclinic
_cell_length_a                    8.982138
_cell_length_b                    10.742205
_cell_length_c                    9.948051
_cell_angle_alpha                 89.290577
_cell_angle_beta                  90.791579
_cell_angle_gamma                 91.37472
_cell_volume                      959.429652453

loop_
_atom_site_label
_atom_site_type_symbol
_atom_type_description
_atom_site_fract_x
_atom_site_fract_y
_atom_site_fract_z
_atom_type_partial_charge
C1    C     C_R   0.514287 0.260883 0.499920 0.909771
C2    C     C_R   0.544341 0.939506 0.369214 0.131551
C3    C     C_R   0.529912 0.872492 0.493154 -0.231273
C4    C     C_R   0.560593 0.934751 0.612752 0.039232
C5    C     C_3   0.490246 0.929529 0.749503 0.194354
C6    C     C_3   0.509079 0.071951 0.750336 -0.019236
C7    C     C_R   0.369826 0.504636 0.069883 0.037686
C8    C     C_R   0.627811 0.517391 0.074209 -0.175696
C9    C     C_R   0.628880 0.519180 0.930665 0.127555
C10   C     C_R   0.369658 0.505270 0.928102 0.021846
C11   C     C_3   0.233222 0.421154 0.923349 0.256896
C12   C     C_R   0.218843 0.500156 0.499317 0.939996
C13   C     C_3   0.239681 0.416349 0.077699 -0.010249
C14   C     C_R   0.503089 0.740276 0.498384 0.919231
C15   C     C_R   0.781198 0.500636 0.500614 0.913293
C16   C     C_1   0.065306 0.500858 0.498821 -0.205256
C17   C     C_1   0.934753 0.501024 0.500851 -0.217558
C18   C     C_R   0.572013 0.062152 0.613372 0.002388
C19   C     C_R   0.552121 0.130850 0.495928 -0.234341
C20   C     C_R   0.566626 0.068796 0.372324 0.167342
H1    H     H_    0.271194 0.325858 0.122352 0.140701
H2    H     H_    0.402182 0.120270 0.748092 0.126926
H3    H     H_    0.729798 0.533331 0.130222 0.156357
N1    N     N_R   0.499010 0.499140 0.142800 -0.115601
N2    N     N_R   0.499010 0.499180 0.857150 -0.119036
O1    O     O_R   0.500020 0.316790 0.614690 -0.615358
O2    O     O_R   0.500000 0.316760 0.385350 -0.584722
O3    O     O_R   0.285350 0.500020 0.614650 -0.617510
O4    O     O_R   0.285340 0.499980 0.385310 -0.592104
O5    O     O_R   0.500000 0.683240 0.614650 -0.612883
O6    O     O_R   0.499980 0.683210 0.385310 -0.619936
O7    O     O_R   0.714660 0.500020 0.614690 -0.601735
O8    O     O_R   0.714650 0.499980 0.385350 -0.640202
Zn1   Zn    Zn3+2 0.500010 0.500020 0.653130 0.951180
Zn2   Zn    Zn3+2 0.499990 0.499980 0.346870 0.938640
N3    N     N_2   0.607402 0.134797 0.252804 -0.265036
H4    H     H_    0.703602 0.103907 0.210142 0.216288
C21   C     C_3   0.489298 0.154070 0.155272 -0.692568
H5    H     H_    0.490517 0.081496 0.077531 0.237339
H6    H     H_    0.508491 0.245509 0.105210 0.221850
H7    H     H_    0.378418 0.151561 0.203606 0.229601
N4    N     N_2   0.258486 0.301036 0.863362 -0.268037
H8    H     H_    0.357260 0.263817 0.895375 0.199941
C22   C     C_3   0.136365 0.211167 0.873136 -0.842958
H9    H     H_    0.159600 0.128133 0.812587 0.226950
H10   H     H_    0.032676 0.251699 0.833019 0.263866
H11   H     H_    0.120480 0.181025 0.979270 0.233517
N5    N     N_2   0.112515 0.468028 0.143515 -0.258238
H12   H     H_    0.082414 0.556372 0.113745 0.223452
C23   C     C_3   0.989643 0.380285 0.162145 -0.767997
H13   H     H_    0.909586 0.419042 0.232352 0.256651
H14   H     H_    0.029137 0.291617 0.207185 0.228478
H15   H     H_    0.932407 0.361172 0.064655 0.248993
N6    N     N_2   0.522451 0.882960 0.241166 -0.286357
H16   H     H_    0.600076 0.819632 0.212528 0.236401
C24   C     C_3   0.369086 0.858034 0.198936 -0.749666
H17   H     H_    0.348568 0.900050 0.098388 0.209630
H18   H     H_    0.288567 0.897218 0.270103 0.229488
H19   H     H_    0.347024 0.756332 0.190858 0.254756
N7    N     N_3   0.334131 0.885459 0.746653 -0.462886
H20   H     H_    0.275103 0.932737 0.671151 0.161360
H21   H     H_    0.286387 0.908117 0.838171 0.161542
N8    N     N_3   0.579652 0.863158 0.850140 -0.447425
H22   H     H_    0.550217 0.768713 0.846767 0.211866
H23   H     H_    0.549347 0.892848 0.945221 0.197501
N9    N     N_2   0.615608 0.122148 0.849306 -0.293630
H24   H     H_    0.595833 0.213343 0.872672 0.235019
C25   C     C_3   0.773570 0.103160 0.833169 -0.741301
H25   H     H_    0.815716 0.162167 0.748830 0.233946
H26   H     H_    0.797824 0.004670 0.812670 0.259550
H27   H     H_    0.832785 0.129579 0.927581 0.225608
N10   N     N_3   0.765410 0.548128 0.863836 -0.403577
H28   H     H_    0.752969 0.634503 0.816151 0.198150
H29   H     H_    0.850816 0.562106 0.934601 0.161568
N11   N     N_3   0.101677 0.483483 0.867517 -0.444794
H30   H     H_    0.081316 0.455729 0.768925 0.236047
H31   H     H_    0.118718 0.580228 0.865108 0.162865

loop_
_geom_bond_atom_site_label_1
_geom_bond_atom_site_label_2
_ccdc_geom_bond_type
C8    C9    A    
C7    C10   A    
N9    C25   S    
N8    H23   S    
C12   O4    A    
C19   C20   A    
C9    N10   S    
C14   O6    A    
C9    N2    A    
C15   O7    A    
C12   O3    A    
N3    H4    S    
C5    C6    S    
C7    N1    A    
C6    H2    S    
C8    H3    S    
C24   H17   S    
C5    N8    S    
C11   N4    S    
N7    H21   S    
C18   C19   A    
C8    N1    A    
C25   H25   S    
O1    Zn1   S    
C12   C16   S    
C16   C17   T    
C23   H14   S    
C22   H11   S    
N2    Zn1   S    
C4    C18   A    
N5    C23   S    
N9    H24   S    
O3    Zn1   S    
N4    C22   S    
C14   O5    A    
C22   H10   S    
C6    C18   S    
N6    C24   S    
C1    C19   S    
C23   H15   S    
O5    Zn1   S    
C2    C20   A    
N1    Zn2   S    
C21   H7    S    
N10   H29   S    
C2    N6    S    
C4    C5    S    
O2    Zn2   S    
N7    H20   S    
O7    Zn1   S    
N11   H30   S    
C7    C13   S    
C23   H13   S    
C13   H1    S    
N11   H31   S    
C3    C14   S    
C10   N2    A    
N5    H12   S    
C1    O1    A    
O6    Zn2   S    
N4    H8    S    
C3    C4    A    
C22   H9    S    
C15   C17   S    
N6    H16   S    
C5    N7    S    
N10   H28   S    
C13   N5    S    
O4    Zn2   S    
C24   H19   S    
N3    C21   S    
C2    C3    A    
C11   N11   S    
C21   H6    S    
C11   C13   S    
C21   H5    S    
C25   H27   S    
O8    Zn2   S    
C24   H18   S    
C10   C11   S    
N8    H22   S    
C20   N3    S    
C6    N9    S    
C25   H26   S    
C1    O2    A    
C15   O8    A    
