data_mof_unit_38422.cif
_audit_creation_date              2012-12-10T20:34:51-0500
_audit_creation_method            fapswitch 2.2
_symmetry_space_group_name_H-M    P1
_symmetry_Int_Tables_number       1
_space_group_crystal_system       triclinic
_cell_length_a                    10.633734
_cell_length_b                    10.67447
_cell_length_c                    9.865563
_cell_angle_alpha                 89.944176
_cell_angle_beta                  89.797824
_cell_angle_gamma                 90.132611
_cell_volume                      1119.82436092

loop_
_atom_site_label
_atom_site_type_symbol
_atom_type_description
_atom_site_fract_x
_atom_site_fract_y
_atom_site_fract_z
_atom_type_partial_charge
C1    C     C_R   0.503559 0.260125 0.500195 0.877694
C2    C     C_3   0.878434 0.504718 0.499936 0.174088
C3    C     C_3   0.928678 0.514504 0.647952 -0.376864
C4    C     C_3   0.930464 0.613256 0.407452 0.035325
C5    C     C_R   0.509243 0.063804 0.623430 0.080345
C6    C     C_R   0.520891 0.128756 0.501714 -0.091524
C7    C     C_R   0.552639 0.064866 0.382353 -0.235167
C8    C     C_R   0.550452 0.935341 0.382087 -0.223721
C9    C     C_R   0.515494 0.871615 0.500841 -0.095908
C10   C     C_R   0.503911 0.936487 0.622557 0.052819
C11   C     C_3   0.407792 0.932103 0.734704 -0.020789
C12   C     C_R   0.257701 0.501556 0.500381 0.835385
C13   C     C_3   0.414583 0.074925 0.735225 -0.488993
C14   C     C_R   0.432091 0.412590 0.071639 0.218019
C15   C     C_R   0.576031 0.578528 0.072014 -0.202793
C16   C     C_R   0.576344 0.578802 0.927619 0.151989
C17   C     C_R   0.431790 0.412856 0.929112 0.180166
C18   C     C_3   0.292717 0.395947 0.924875 -0.523965
C19   C     C_3   0.293308 0.394308 0.078588 -0.510411
C20   C     C_R   0.501478 0.739940 0.499960 0.864196
C21   C     C_R   0.742196 0.501918 0.499951 0.846360
C22   C     C_3   0.071369 0.382539 0.432796 -0.410774
C23   C     C_3   0.927062 0.378863 0.441122 -0.483889
C24   C     C_3   0.071100 0.509692 0.648534 -0.417955
C25   C     C_3   0.074379 0.621296 0.423776 -0.433820
C26   C     C_3   0.121379 0.503729 0.501058 0.159240
H1    H     H_    0.110709 0.298170 0.483652 0.161548
H2    H     H_    0.108364 0.593931 0.701726 0.174395
H3    H     H_    0.896930 0.600872 0.699258 0.184194
H4    H     H_    0.571644 0.114096 0.288375 0.166058
H5    H     H_    0.569216 0.886161 0.288174 0.159616
H6    H     H_    0.446422 0.889000 0.828376 0.159027
H7    H     H_    0.327385 0.123300 0.701903 0.196308
H8    H     H_    0.456879 0.113340 0.829364 0.182135
H9    H     H_    0.635436 0.643375 0.126816 0.138414
H10   H     H_    0.101108 0.379647 0.324569 0.178972
H11   H     H_    0.244144 0.479333 0.882913 0.213556
H12   H     H_    0.265126 0.304762 0.879407 0.194813
H13   H     H_    0.243571 0.475631 0.124124 0.212722
H14   H     H_    0.267556 0.301659 0.122230 0.195281
H15   H     H_    0.888036 0.361512 0.338219 0.177638
H16   H     H_    0.896591 0.299275 0.506643 0.175920
H17   H     H_    0.101475 0.425048 0.705612 0.179591
H18   H     H_    0.892420 0.434964 0.710188 0.174435
H19   H     H_    0.102479 0.707177 0.479883 0.171749
H20   H     H_    0.118688 0.627610 0.321531 0.151978
H21   H     H_    0.914673 0.582584 0.300737 0.122424
N1    N     N_R   0.499150 0.499140 0.142800 -0.111201
N2    N     N_R   0.499150 0.499180 0.857150 -0.105949
O1    O     O_R   0.500020 0.316790 0.614690 -0.613853
O2    O     O_R   0.500000 0.316760 0.385350 -0.620952
O3    O     O_R   0.314800 0.500000 0.614670 -0.632644
O4    O     O_R   0.314790 0.499960 0.385330 -0.623470
O5    O     O_R   0.500000 0.683240 0.614650 -0.606638
O6    O     O_R   0.499980 0.683210 0.385310 -0.626791
O7    O     O_R   0.685210 0.500040 0.614670 -0.611409
O8    O     O_R   0.685200 0.500000 0.385330 -0.639621
Zn1   Zn    Zn3+2 0.500010 0.500020 0.653130 0.943823
Zn2   Zn    Zn3+2 0.499990 0.499980 0.346870 0.925770
C27   C     C_3   0.864704 0.743250 0.413084 -0.428411
C28   C     C_3   0.853395 0.803671 0.552742 -0.866759
H22   H     H_    0.779430 0.756171 0.613454 0.263632
H23   H     H_    0.944387 0.802077 0.606887 0.253464
H24   H     H_    0.824358 0.902929 0.540693 0.252064
H25   H     H_    0.917318 0.808749 0.345820 0.205284
H26   H     H_    0.768868 0.735331 0.369449 0.209587
C29   C     C_3   0.278188 0.879785 0.693572 -0.356623
C30   C     C_3   0.183668 0.892896 0.809444 -0.911318
H27   H     H_    0.218429 0.843774 0.901258 0.258780
H28   H     H_    0.167870 0.993212 0.833693 0.264610
H29   H     H_    0.092648 0.850255 0.779849 0.238535
H30   H     H_    0.241990 0.928714 0.602107 0.204280
H31   H     H_    0.286517 0.778765 0.669048 0.214070
N3    N     N_3   0.655786 0.663979 0.855380 -0.406075
H32   H     H_    0.632520 0.754903 0.885425 0.150596
H33   H     H_    0.748417 0.647392 0.885442 0.147398

loop_
_geom_bond_atom_site_label_1
_geom_bond_atom_site_label_2
_ccdc_geom_bond_type
O6    Zn2   S    
C4    C25   S    
O4    Zn2   S    
C7    C8    A    
C21   O8    A    
C23   H16   S    
N3    H33   S    
C16   N3    S    
C18   H11   S    
C24   C26   S    
C18   C19   S    
O5    Zn1   S    
C5    C6    A    
O8    Zn2   S    
C15   C16   A    
C3    H3    S    
C29   H30   S    
C28   H23   S    
C8    C9    A    
C29   H31   S    
C1    O1    A    
C5    C13   S    
C12   O4    A    
C27   H26   S    
C7    H4    S    
C14   C17   A    
C3    C24   S    
C15   N1    A    
C20   O6    A    
C15   H9    S    
C12   O3    A    
C11   C29   S    
O3    Zn1   S    
C3    H18   S    
N3    H32   S    
C1    C6    S    
O1    Zn1   S    
C16   N2    A    
C20   O5    A    
C19   H14   S    
C17   N2    A    
C30   H27   S    
C14   N1    A    
C25   C26   S    
N2    Zn1   S    
C29   C30   S    
C12   C26   S    
C27   C28   S    
C28   H24   S    
C2    C4    S    
C13   H7    S    
C9    C20   S    
C4    C27   S    
C2    C21   S    
C17   C18   S    
C1    O2    A    
C19   H13   S    
C11   H6    S    
C22   H1    S    
O2    Zn2   S    
C25   H19   S    
N1    Zn2   S    
C9    C10   A    
C8    H5    S    
C14   C19   S    
C24   H2    S    
C27   H25   S    
C21   O7    A    
C6    C7    A    
C22   H10   S    
C23   H15   S    
C2    C3    S    
C18   H12   S    
C5    C10   A    
C11   C13   S    
C30   H29   S    
O7    Zn1   S    
C28   H22   S    
C10   C11   S    
C13   H8    S    
C30   H28   S    
C22   C26   S    
C2    C23   S    
C24   H17   S    
C22   C23   S    
C25   H20   S    
C4    H21   S    
