data_mof_unit_16802.cif
_audit_creation_date              2012-12-10T19:09:27-0500
_audit_creation_method            fapswitch 2.2
_symmetry_space_group_name_H-M    P1
_symmetry_Int_Tables_number       1
_space_group_crystal_system       triclinic
_cell_length_a                    15.501682
_cell_length_b                    14.615414
_cell_length_c                    9.686911
_cell_angle_alpha                 89.99951
_cell_angle_beta                  90.000074
_cell_angle_gamma                 90.004026
_cell_volume                      2194.70045607

loop_
_atom_site_label
_atom_site_type_symbol
_atom_type_description
_atom_site_fract_x
_atom_site_fract_y
_atom_site_fract_z
_atom_type_partial_charge
C1    C     C_R   0.122870 0.380622 0.499836 0.890316
C2    C     C_R   0.883644 0.626216 0.500072 0.910962
C3    C     C_R   0.383533 0.873892 0.500067 0.911628
C4    C     C_R   0.383644 0.126217 0.499927 0.910963
C5    C     C_3   0.824986 0.238294 0.627503 0.041055
C6    C     C_3   0.816559 0.249723 0.359360 0.034416
C7    C     C_3   0.824986 0.761762 0.372440 0.040296
C8    C     C_3   0.816719 0.750525 0.640568 0.033501
C9    C     C_3   0.316563 0.749716 0.640640 0.034452
C10   C     C_3   0.324992 0.738295 0.372495 0.041037
C11   C     C_3   0.316705 0.250510 0.359414 0.033528
C12   C     C_R   0.122918 0.619317 0.500162 0.890109
C13   C     C_3   0.325002 0.261776 0.627537 0.040297
C14   C     C_3   0.242017 0.681177 0.641149 -0.407380
C15   C     C_3   0.259053 0.660833 0.385136 -0.417815
C16   C     C_3   0.241938 0.318784 0.358787 -0.407661
C17   C     C_3   0.259025 0.339188 0.614833 -0.417507
C18   C     C_3   0.759080 0.160804 0.614810 -0.417891
C19   C     C_3   0.741984 0.181221 0.358819 -0.407419
C20   C     C_3   0.759023 0.839185 0.385161 -0.417516
C21   C     C_3   0.741938 0.818783 0.641210 -0.407669
C22   C     C_3   0.729280 0.353089 0.511251 -0.513675
C23   C     C_R   0.622869 0.880622 0.500164 0.890319
C24   C     C_3   0.729395 0.646939 0.488986 -0.513116
C25   C     C_3   0.229288 0.853088 0.488749 -0.513651
C26   C     C_3   0.229398 0.146942 0.511048 -0.513117
C27   C     C_3   0.817384 0.303551 0.499404 0.050139
C28   C     C_3   0.817487 0.696563 0.500621 0.050890
C29   C     C_3   0.317389 0.803546 0.500597 0.050132
C30   C     C_3   0.317488 0.196564 0.499375 0.050881
C31   C     C_3   0.193754 0.684515 0.500846 0.061811
C32   C     C_3   0.193728 0.315450 0.499138 0.062303
C33   C     C_3   0.693753 0.184516 0.499153 0.061845
C34   C     C_R   0.622919 0.119316 0.499837 0.890123
C35   C     C_3   0.693727 0.815449 0.500861 0.062314
C36   C     C_3   0.157234 0.781676 0.476713 -0.363230
C37   C     C_3   0.157291 0.218263 0.523305 -0.363664
C38   C     C_3   0.657237 0.281671 0.523367 -0.363231
C39   C     C_3   0.657290 0.718261 0.476700 -0.363673
C40   C     C_3   0.046914 0.420676 0.081254 -0.230916
C41   C     C_3   0.046696 0.420523 0.918759 -0.228446
C42   C     C_3   0.039635 0.583797 0.918755 -0.229632
C43   C     C_3   0.039387 0.583942 0.081250 -0.227598
C44   C     C_3   0.546668 0.920503 0.081243 -0.228443
C45   C     C_3   0.909812 0.495442 0.081357 -0.231631
C46   C     C_3   0.546887 0.920657 0.918748 -0.230904
C47   C     C_3   0.539415 0.083927 0.918747 -0.227602
C48   C     C_3   0.539664 0.083781 0.081243 -0.229635
C49   C     C_3   0.909801 0.495669 0.918636 -0.231676
C50   C     C_3   0.409799 0.995704 0.081363 -0.231667
C51   C     C_3   0.409810 0.995476 0.918643 -0.231624
C52   C     C_R   0.883529 0.373895 0.499934 0.911636
H1    H     H_    0.808229 0.278588 0.721430 0.142016
H2    H     H_    0.291472 0.594899 0.409884 0.208135
H3    H     H_    0.265727 0.389407 0.339014 0.197339
H4    H     H_    0.291407 0.405141 0.590042 0.208244
H5    H     H_    0.791529 0.094903 0.589968 0.208203
H6    H     H_    0.765974 0.110664 0.339161 0.197511
H7    H     H_    0.791417 0.905128 0.409961 0.208276
H8    H     H_    0.765713 0.889409 0.660996 0.197331
H9    H     H_    0.197255 0.698878 0.727071 0.174150
H10   H     H_    0.226568 0.652208 0.283506 0.171715
H11   H     H_    0.197180 0.300851 0.272950 0.174424
H12   H     H_    0.804450 0.298958 0.273714 0.137036
H13   H     H_    0.226543 0.347798 0.716460 0.171423
H14   H     H_    0.726620 0.152110 0.716445 0.171728
H15   H     H_    0.697206 0.198984 0.272947 0.174177
H16   H     H_    0.726539 0.847809 0.283538 0.171427
H17   H     H_    0.697184 0.800832 0.727043 0.174431
H18   H     H_    0.727688 0.398875 0.603212 0.189890
H19   H     H_    0.717743 0.397014 0.419084 0.194514
H20   H     H_    0.727797 0.601025 0.397171 0.189790
H21   H     H_    0.717916 0.603136 0.581306 0.194472
H22   H     H_    0.217768 0.897045 0.580887 0.194484
H23   H     H_    0.808230 0.721402 0.278573 0.142658
H24   H     H_    0.227688 0.898846 0.396755 0.189893
H25   H     H_    0.217915 0.103116 0.418755 0.194461
H26   H     H_    0.227807 0.101048 0.602890 0.189795
H27   H     H_    0.105653 0.797430 0.552489 0.226518
H28   H     H_    0.129748 0.785315 0.371087 0.214793
H29   H     H_    0.105640 0.202466 0.447662 0.226465
H30   H     H_    0.129924 0.214575 0.629008 0.214677
H31   H     H_    0.629810 0.285289 0.629036 0.214759
H32   H     H_    0.605612 0.297435 0.447673 0.226544
H33   H     H_    0.629932 0.714568 0.370991 0.214669
H34   H     H_    0.804931 0.701352 0.726421 0.137982
H35   H     H_    0.605631 0.702468 0.552332 0.226476
H36   H     H_    0.018325 0.355867 0.120256 0.180509
H37   H     H_    0.017698 0.355779 0.880213 0.179215
H38   H     H_    0.005428 0.645420 0.879730 0.181264
H39   H     H_    0.004723 0.645452 0.119760 0.179842
H40   H     H_    0.517648 0.855769 0.119791 0.179200
H41   H     H_    0.518278 0.855859 0.879748 0.180528
H42   H     H_    0.504774 0.145451 0.880235 0.179824
H43   H     H_    0.505479 0.145418 0.120264 0.181276
H44   H     H_    0.114736 0.422237 0.118630 0.152335
H45   H     H_    0.304417 0.798949 0.726273 0.137043
H46   H     H_    0.114419 0.421655 0.880975 0.151332
H47   H     H_    0.107304 0.589046 0.881540 0.153068
H48   H     H_    0.106903 0.589689 0.118971 0.152610
H49   H     H_    0.614391 0.921607 0.119028 0.151334
H50   H     H_    0.614710 0.922191 0.881373 0.152335
H51   H     H_    0.606933 0.089649 0.881026 0.152604
H52   H     H_    0.607335 0.089006 0.118458 0.153068
H53   H     H_    0.876939 0.432639 0.119167 0.156641
H54   H     H_    0.876659 0.433125 0.880397 0.157352
H55   H     H_    0.871462 0.554817 0.880535 0.153706
H56   H     H_    0.308275 0.778603 0.278562 0.142002
H57   H     H_    0.871230 0.554299 0.119875 0.154550
H58   H     H_    0.376634 0.933175 0.119606 0.157325
H59   H     H_    0.376915 0.932686 0.880834 0.156638
H60   H     H_    0.371247 0.054347 0.880124 0.154551
H61   H     H_    0.371480 0.054867 0.119462 0.153721
H62   H     H_    0.304891 0.201327 0.273584 0.137975
H63   H     H_    0.308272 0.221421 0.721422 0.142654
H64   H     H_    0.266042 0.610622 0.660710 0.197526
I1    I     I_    0.948849 0.183394 0.680897 -0.402747
I2    I     I_    0.935400 0.184568 0.298409 -0.398195
I3    I     I_    0.948747 0.816906 0.318872 -0.404297
I4    I     I_    0.935380 0.816385 0.700710 -0.399540
I5    I     I_    0.435417 0.684621 0.701674 -0.398227
I6    I     I_    0.448849 0.683342 0.319195 -0.402729
I7    I     I_    0.435370 0.316334 0.299189 -0.399547
I8    I     I_    0.448767 0.316943 0.681020 -0.404289
N1    N     N_3   0.998760 0.500000 0.138610 -0.043175
N2    N     N_3   0.998760 0.500000 0.861390 -0.043245
N3    N     N_3   0.498760 1.000000 0.138610 -0.043241
N4    N     N_3   0.498760 1.000000 0.861390 -0.043171
O1    O     O_R   0.092530 0.407440 0.616040 -0.629721
O2    O     O_R   0.907330 0.407420 0.383960 -0.625710
O3    O     O_R   0.907330 0.592580 0.383960 -0.624687
O4    O     O_R   0.907330 0.592580 0.616040 -0.625969
O5    O     O_R   0.407330 0.907420 0.616040 -0.625689
O6    O     O_R   0.407330 0.907420 0.383960 -0.624768
O7    O     O_R   0.407330 0.092580 0.383960 -0.625948
O8    O     O_R   0.407330 0.092580 0.616040 -0.624703
O9    O     O_R   0.092530 0.407440 0.383960 -0.629684
O10   O     O_R   0.092530 0.592560 0.383960 -0.629648
O11   O     O_R   0.092530 0.592560 0.616040 -0.629555
O12   O     O_R   0.592530 0.907440 0.616040 -0.629676
O13   O     O_R   0.592530 0.907440 0.383960 -0.629733
O14   O     O_R   0.592530 0.092560 0.383960 -0.629548
O15   O     O_R   0.592530 0.092560 0.616040 -0.629656
O16   O     O_R   0.907330 0.407420 0.616040 -0.624744
Zn1   Zn    Zn3+2 0.999890 0.500000 0.654960 0.925579
Zn2   Zn    Zn3+2 0.999890 0.500000 0.345040 0.925644
Zn3   Zn    Zn3+2 0.499890 1.000000 0.654960 0.925644
Zn4   Zn    Zn3+2 0.499890 0.000000 0.345040 0.925579

loop_
_geom_bond_atom_site_label_1
_geom_bond_atom_site_label_2
_ccdc_geom_bond_type
C41   H37   S    
C44   N3    S    
C51   H60   S    
C48   H43   S    
C38   H31   S    
O2    Zn2   S    
C10   H56   S    
C39   H35   S    
C14   C31   S    
C43   N1    S    
C47   N4    S    
C49   H55   S    
O15   Zn3   S    
C6    C19   S    
C46   H50   S    
C8    I4    S    
C26   H26   S    
O4    Zn1   S    
C46   N4    S    
C1    O1    A    
N1    Zn2   S    
C45   H57   S    
C24   H21   S    
C48   H52   S    
C50   H58   S    
C24   C39   S    
O3    Zn2   S    
C25   H22   S    
C6    H12   S    
C3    C29   S    
C11   H62   S    
O13   Zn4   S    
C5    C27   S    
C20   C35   S    
C15   H10   S    
C34   O14   A    
C47   C48   S    
C11   C30   S    
C45   N1    S    
C2    O4    A    
C19   H15   S    
O5    Zn3   S    
C16   H11   S    
C51   H59   S    
O1    Zn1   S    
C44   H40   S    
C9    C29   S    
N3    Zn4   S    
C4    O8    A    
C37   H29   S    
C40   H44   S    
O12   Zn3   S    
N2    Zn1   S    
C45   H53   S    
C2    O3    A    
C19   H6    S    
C25   C29   S    
C34   O15   A    
C26   H25   S    
C47   H51   S    
C15   H2    S    
O14   Zn4   S    
C13   C30   S    
C43   H48   S    
C21   H8    S    
C19   C33   S    
C13   I8    S    
C7    H23   S    
C5    C18   S    
C44   C46   S    
C14   H9    S    
C7    C20   S    
C1    C32   S    
C43   H39   S    
C7    C28   S    
C5    I1    S    
C3    O5    A    
C35   C39   S    
C9    C14   S    
C49   N2    S    
C7    I3    S    
C11   C16   S    
O9    Zn2   S    
C18   H5    S    
C9    I5    S    
C6    C27   S    
C45   C49   S    
C50   C51   S    
C12   O11   A    
C26   C37   S    
C52   O16   A    
C32   C37   S    
C20   H7    S    
C23   O12   A    
C17   H4    S    
C13   H63   S    
C4    O7    A    
C40   C41   S    
C26   C30   S    
C23   C35   S    
C22   C27   S    
C12   C31   S    
C36   H28   S    
C8    C28   S    
C12   O10   A    
C37   H30   S    
C16   C32   S    
C42   C43   S    
C51   N4    S    
C22   H19   S    
C1    O9    A    
C27   C52   S    
C24   H20   S    
C5    H1    S    
O11   Zn1   S    
C9    H45   S    
C38   H32   S    
C31   C36   S    
C41   N2    S    
C20   H16   S    
C11   I7    S    
C24   C28   S    
O16   Zn1   S    
C10   I6    S    
C36   H27   S    
C8    C21   S    
C44   H49   S    
N4    Zn3   S    
C15   C31   S    
C49   H54   S    
C21   C35   S    
C18   H14   S    
O6    Zn4   S    
C17   H13   S    
C33   C38   S    
C13   C17   S    
C10   C15   S    
C50   H61   S    
C52   O2    A    
C25   H24   S    
C16   H3    S    
C42   H47   S    
C48   N3    S    
C10   C29   S    
C40   H36   S    
C46   H41   S    
O10   Zn2   S    
C14   H64   S    
C40   N1    S    
C3    O6    A    
C47   H42   S    
C33   C34   S    
C8    H34   S    
C18   C33   S    
O8    Zn3   S    
C42   N2    S    
C25   C36   S    
O7    Zn4   S    
C21   H17   S    
C17   C32   S    
C39   H33   S    
C41   H46   S    
C23   O13   A    
C2    C28   S    
C50   N3    S    
C42   H38   S    
C22   H18   S    
C4    C30   S    
C6    I2    S    
C22   C38   S    
