data_mof_unit_32889.cif
_audit_creation_date              2013-03-05T15:48:23-0500
_audit_creation_method            fapswitch 2.2
_symmetry_space_group_name_H-M    P1
_symmetry_Int_Tables_number       1
_space_group_crystal_system       triclinic
_cell_length_a                    11.684366
_cell_length_b                    12.980556
_cell_length_c                    11.804458
_cell_angle_alpha                 98.971342
_cell_angle_beta                  93.633649
_cell_angle_gamma                 92.255975
_cell_volume                      1762.71542797

loop_
_atom_site_label
_atom_site_type_symbol
_atom_site_description
_atom_site_fract_x
_atom_site_fract_y
_atom_site_fract_z
_atom_type_partial_charge
O1    O     O_R   0.505930 0.354460 0.582000 -0.556976
O2    O     O_R   0.494070 0.645540 0.418000 -0.564304
O3    O     O_R   0.491820 0.341410 0.386200 -0.548601
O4    O     O_R   0.508180 0.658590 0.613800 -0.550886
C1    C     C_R   0.501666 0.299633 0.478816 0.807800
C2    C     C_R   0.495698 0.700128 0.520809 0.811613
O5    O     O_R   0.344250 0.506540 0.597900 -0.558786
O6    O     O_R   0.655750 0.493460 0.402100 -0.547287
O7    O     O_R   0.330140 0.493480 0.402100 -0.544428
O8    O     O_R   0.669860 0.506520 0.597900 -0.543006
C3    C     C_R   0.284204 0.499305 0.500134 0.820744
C4    C     C_R   0.715768 0.500190 0.499772 0.827938
Cu1   Cu    Cu3+1 0.508350 0.507730 0.615930 1.058640
Cu2   Cu    Cu3+1 0.491650 0.492270 0.384070 1.058133
C5    C     C_1   0.162464 0.499165 0.500393 -0.098924
C6    C     C_1   0.837463 0.499845 0.499319 -0.091079
C7    C     C_1   0.059890 0.499262 0.500078 0.050437
C8    C     C_1   0.940018 0.499530 0.499508 0.052029
C9    C     C_R   0.482997 0.812746 0.531458 -0.078484
C10   C     C_R   0.507961 0.186299 0.465659 -0.083216
C11   C     C_R   0.561090 0.019723 0.363988 -0.207002
C12   C     C_R   0.423659 0.978582 0.629541 -0.200992
C13   C     C_R   0.558534 0.127971 0.371485 -0.001691
C14   C     C_R   0.430649 0.870760 0.624862 0.001913
C15   C     C_R   0.460161 0.135222 0.548368 -0.202372
C16   C     C_R   0.523868 0.863111 0.444503 -0.216261
C17   C     C_R   0.466853 0.028165 0.543092 0.136953
C18   C     C_R   0.517193 0.970085 0.450041 0.133705
H1    H     H_    0.562725 0.819301 0.372640 0.217356
H2    H     H_    0.415726 0.178747 0.615916 0.228782
H3    H     H_    0.599936 0.974609 0.292425 0.181335
H4    H     H_    0.383580 0.023693 0.700249 0.176831
N1    N     N_R   0.520920 0.519350 0.790130 -0.316706
N2    N     N_R   0.479080 0.480650 0.209870 -0.313653
C19   C     C_R   0.375669 0.415997 0.026608 0.211208
C20   C     C_R   0.606689 0.603795 0.975548 0.216692
C21   C     C_R   0.389907 0.421945 0.147055 0.359467
C22   C     C_R   0.596171 0.592847 0.854248 0.361716
C23   C     C_R   0.555345 0.536148 0.154542 0.460967
C24   C     C_R   0.453746 0.455602 0.845127 0.483519
C25   C     C_R   0.539157 0.538136 0.033532 -0.277369
C26   C     C_R   0.454669 0.470256 0.967895 -0.272998
C27   C     C_R   0.378802 0.821541 0.716084 0.114433
C28   C     C_R   0.418060 0.852261 0.831935 -0.052971
C29   C     C_R   0.372313 0.803035 0.917463 -0.128594
C30   C     C_R   0.285760 0.724210 0.888293 -0.107241
C31   C     C_R   0.243589 0.695609 0.773771 -0.062712
C32   C     C_R   0.289299 0.744513 0.687963 -0.123503
H5    H     H_    0.485765 0.912655 0.855639 0.163516
H6    H     H_    0.404288 0.825721 0.006303 0.172591
H7    H     H_    0.250950 0.685713 0.954474 0.173044
H8    H     H_    0.175799 0.635228 0.751401 0.169557
H9    H     H_    0.255911 0.721792 0.599527 0.103639
C33   C     C_R   0.611378 0.177343 0.281288 0.121467
C34   C     C_R   0.709986 0.244232 0.308569 -0.144272
C35   C     C_R   0.757435 0.293205 0.223751 -0.044554
C36   C     C_R   0.706667 0.275966 0.111497 -0.078587
C37   C     C_R   0.609268 0.208566 0.083510 -0.148052
C38   C     C_R   0.562177 0.158665 0.167835 -0.062951
H10   H     H_    0.749337 0.258949 0.395510 0.114516
H11   H     H_    0.833169 0.345027 0.245280 0.179459
H12   H     H_    0.742838 0.314747 0.046202 0.175867
H13   H     H_    0.570081 0.195196 0.996577 0.183942
H14   H     H_    0.486297 0.107049 0.145333 0.163217
N3    N     N_R   0.401866 0.360759 0.781453 0.154076
O9    O     O_R   0.306328 0.361285 0.718927 -0.310002
O10   O     O_R   0.435794 0.272608 0.807721 -0.407682
N4    N     N_R   0.660983 0.578705 0.214758 0.171590
O11   O     O_R   0.664549 0.666407 0.285150 -0.323954
O12   O     O_R   0.756699 0.536429 0.187770 -0.349409
N5    N     N_R   0.668924 0.657735 0.798790 0.175393
O13   O     O_R   0.647649 0.755835 0.803380 -0.340199
O14   O     O_R   0.772474 0.629396 0.779651 -0.307067
N6    N     N_R   0.307899 0.366587 0.203014 0.174140
O15   O     O_R   0.203257 0.397261 0.205769 -0.310806
O16   O     O_R   0.327237 0.271943 0.219594 -0.336260
N7    N     N_R   0.273453 0.363892 0.967148 0.195085
O17   O     O_R   0.250234 0.265696 0.971065 -0.254877
O18   O     O_R   0.196280 0.418154 0.922476 -0.300563
N8    N     N_R   0.677650 0.689038 0.038363 0.190459
O19   O     O_R   0.787725 0.693741 0.027293 -0.229472
O20   O     O_R   0.629974 0.769164 0.093206 -0.355021

loop_
_geom_bond_atom_site_label_1
_geom_bond_atom_site_label_2
_geom_bond_distance
_ccdc_geom_bond_type
C28   H5    1.083238 S    
C21   N6    1.430007 S    
N2    C21   1.370934 A    
C23   N4    1.430593 S    
C34   C35   1.398237 A    
C36   H12   1.082442 S    
C23   C25   1.433381 A    
C1    C10   1.460304 S    
N7    O17   1.301223 A    
O5    C3    1.300512 A    
C2    C9    1.461823 S    
C11   H3    1.085279 S    
C38   H14   1.083242 S    
C12   H4    1.085168 S    
O1    C1    1.308337 A    
C19   C21   1.410655 A    
C10   C15   1.395211 A    
C15   H2    1.076850 S    
C35   C36   1.398310 A    
C25   C26   1.404587 A    
O4    Cu1   1.962403 S    
C9    C16   1.398541 A    
C19   C26   1.417963 A    
C33   C34   1.404309 A    
C3    C5    1.422585 S    
C4    C6    1.422455 S    
N4    O11   1.298099 A    
N3    O10   1.301308 A    
C27   C32   1.404896 A    
C24   C26   1.431220 A    
Cu1   Cu2   2.706905 S    
C20   C25   1.419503 A    
O2    C2    1.305026 A    
O8    C4    1.299533 A    
C33   C38   1.404645 A    
N7    O18   1.301105 A    
C32   H9    1.082716 S    
N1    C24   1.379592 A    
N6    O15   1.301486 A    
N2    C23   1.381876 A    
C14   C27   1.483758 S    
N8    O20   1.300975 A    
C20   N8    1.433730 S    
N5    O14   1.301552 A    
C37   C38   1.398433 A    
C29   C30   1.397407 A    
C30   H7    1.082365 S    
C19   N7    1.434784 S    
O7    Cu2   1.912866 S    
Cu1   N1    2.033735 S    
C31   C32   1.398803 A    
C10   C13   1.419227 A    
O6    C4    1.300015 A    
C7    C8    1.400361 S    
O7    C3    1.299088 A    
O3    Cu2   1.962402 S    
N6    O16   1.299954 A    
O4    C2    1.299023 A    
C11   C18   1.397944 A    
C24   N3    1.429320 S    
C11   C13   1.395684 A    
C27   C28   1.405573 A    
C12   C14   1.397866 A    
O1    Cu1   1.965974 S    
C28   C29   1.398592 A    
C13   C33   1.480073 S    
C37   H13   1.082353 S    
C5    C7    1.198326 T    
C30   C31   1.397429 A    
O6    Cu2   1.914913 S    
N8    O19   1.300997 A    
O3    C1    1.294776 A    
O8    Cu1   1.912865 S    
Cu2   N2    2.033736 S    
C31   H8    1.082366 S    
C15   C17   1.386849 A    
C16   C18   1.385417 A    
N1    C22   1.371327 A    
C12   C17   1.398172 A    
C20   C22   1.413655 A    
C9    C14   1.421160 A    
N5    O13   1.300526 A    
C36   C37   1.397699 A    
C29   H6    1.082331 S    
O2    Cu2   1.965976 S    
O5    Cu1   1.914912 S    
C16   H1    1.080666 S    
C6    C8    1.198326 T    
N3    O9    1.299492 A    
C17   C18   1.406906 A    
N4    O12   1.300903 A    
C35   H11   1.082339 S    
C34   H10   1.083190 S    
C22   N5    1.430660 S    
