data_mof_unit_44516.cif
_audit_creation_date              2012-12-11T14:58:29-0500
_audit_creation_method            fapswitch 2.2
_symmetry_space_group_name_H-M    P1
_symmetry_Int_Tables_number       1
_space_group_crystal_system       triclinic
_cell_length_a                    10.982302
_cell_length_b                    11.004994
_cell_length_c                    18.726378
_cell_angle_alpha                 90.820105
_cell_angle_beta                  90.820567
_cell_angle_gamma                 59.493709
_cell_volume                      1949.71089812

loop_
_atom_site_label
_atom_site_type_symbol
_atom_type_description
_atom_site_fract_x
_atom_site_fract_y
_atom_site_fract_z
_atom_type_partial_charge
C1    C     C_R   0.359690 0.772695 0.397735 0.530849
C2    C     C_R   0.625317 0.131550 0.158518 0.058803
C3    C     C_R   0.371299 0.342245 0.157243 -0.005358
C4    C     C_R   0.511699 0.272706 0.265971 -0.155382
C5    C     C_R   0.501400 0.253079 0.193081 -0.020376
C6    C     C_R   0.085115 0.720281 0.302084 -0.047399
C7    C     C_R   0.947820 0.814500 0.326989 0.011513
C8    C     C_R   0.682455 0.995155 0.186680 -0.087989
C9    C     C_R   0.797004 0.879937 0.153629 -0.118854
C10   C     C_R   0.264536 0.458856 0.193504 -0.154356
C11   C     C_R   0.273261 0.474776 0.267115 -0.034945
C12   C     C_R   0.417739 0.379942 0.382726 0.552378
C13   C     C_R   0.858824 0.762647 0.343134 -0.108366
C14   C     C_R   0.909050 0.618984 0.337987 -0.129515
C15   C     C_R   0.049717 0.524899 0.321184 -0.080339
C16   C     C_R   0.138134 0.574696 0.301688 0.047111
C17   C     C_R   0.397337 0.375807 0.304754 -0.006445
C18   C     C_R   0.952107 0.284033 0.307686 -0.179110
C19   C     C_R   0.981928 0.280191 0.235775 -0.137333
C20   C     C_R   0.872159 0.334177 0.185219 0.045333
C21   C     C_R   0.731603 0.401993 0.206129 -0.149245
C22   C     C_R   0.701793 0.414102 0.278450 -0.132888
C23   C     C_R   0.776138 0.378533 0.402836 0.529751
C24   C     C_R   0.812213 0.353737 0.328790 0.024300
C25   C     C_R   0.476364 0.778176 0.286439 -0.138946
C26   C     C_R   0.464606 0.804539 0.213325 -0.151556
C27   C     C_R   0.329967 0.883712 0.183423 0.037038
C28   C     C_R   0.211070 0.950599 0.227816 -0.142494
C29   C     C_R   0.224817 0.933344 0.300703 -0.165792
C30   C     C_R   0.353666 0.834577 0.328891 0.028320
C31   C     C_R   0.389148 0.197381 0.692822 -0.135654
C32   C     C_R   0.379511 0.184651 0.765087 -0.121939
C33   C     C_R   0.296493 0.304645 0.807667 0.037227
C34   C     C_R   0.344066 0.769931 0.604465 0.546405
C35   C     C_R   0.212880 0.436213 0.776190 -0.138136
C36   C     C_R   0.224039 0.449497 0.703289 -0.127560
C37   C     C_R   0.318379 0.330745 0.662381 0.029842
C38   C     C_R   0.741938 0.475540 0.732446 -0.121652
C39   C     C_R   0.751339 0.462539 0.805571 -0.129419
C40   C     C_R   0.812558 0.328947 0.836143 0.029512
C41   C     C_R   0.846860 0.210381 0.792907 -0.128639
C42   C     C_R   0.831869 0.224586 0.718935 -0.132916
C43   C     C_R   0.785192 0.356703 0.688388 0.035347
C44   C     C_R   0.201071 0.832478 0.712793 -0.136333
C45   C     C_R   0.368064 0.350357 0.594897 0.558091
C46   C     C_R   0.194422 0.840496 0.786225 -0.140030
C47   C     C_R   0.303339 0.841093 0.825452 0.036618
C48   C     C_R   0.421453 0.828571 0.790431 -0.144799
C49   C     C_R   0.427581 0.821609 0.716770 -0.148284
C50   C     C_R   0.319199 0.819920 0.677658 0.036558
C51   C     C_R   0.910090 0.316906 0.111382 0.531566
C52   C     C_R   0.331404 0.296527 0.091021 0.539043
C53   C     C_R   0.304361 0.906148 0.107320 0.542521
C54   C     C_R   0.878393 0.310634 0.906091 0.541163
C55   C     C_R   0.291828 0.283764 0.883391 0.549638
C56   C     C_R   0.757439 0.380223 0.612209 0.550416
C57   C     C_R   0.276424 0.892640 0.898280 0.547340
C58   C     C_R   0.854838 0.899518 0.091986 -0.109158
C59   C     C_R   0.798148 0.034329 0.063317 -0.080876
C60   C     C_R   0.685029 0.150421 0.096833 -0.057893
Cr1   Cr    Cr6+3 0.601770 0.606860 0.505860 1.003424
Cr2   Cr    Cr6+3 0.291380 0.601660 0.495070 1.023940
Cr3   Cr    Cr6+3 0.606880 0.291510 0.499120 1.005208
Cr4   Cr    Cr6+3 0.062440 0.063090 0.008210 0.983957
Cr5   Cr    Cr6+3 0.062880 0.375170 0.998920 1.008479
Cr6   Cr    Cr6+3 0.374700 0.061720 0.992470 1.019740
H1    H     H_    0.610248 0.204592 0.293080 0.130558
H2    H     H_    0.750169 0.833106 0.358661 0.113741
H3    H     H_    0.837338 0.582005 0.344820 0.160212
H4    H     H_    0.089596 0.413332 0.319048 0.121418
H5    H     H_    0.036889 0.239858 0.346880 0.106479
H6    H     H_    0.090769 0.234659 0.219229 0.122201
H7    H     H_    0.646438 0.446506 0.167128 0.102990
H8    H     H_    0.592810 0.471976 0.295505 0.108566
H9    H     H_    0.579638 0.706479 0.308681 0.131675
H10   H     H_    0.840279 0.775312 0.175522 0.123815
H11   H     H_    0.133144 0.984630 0.333982 0.115390
H12   H     H_    0.460126 0.104511 0.661881 0.126487
H13   H     H_    0.440173 0.080395 0.787791 0.136583
H14   H     H_    0.167462 0.553904 0.680300 0.133421
H15   H     H_    0.700885 0.579516 0.710459 0.133072
H16   H     H_    0.722484 0.555698 0.837864 0.124079
H17   H     H_    0.894449 0.105970 0.815598 0.127010
H18   H     H_    0.860645 0.132612 0.685748 0.119136
H19   H     H_    0.101184 0.852238 0.811844 0.120780
H20   H     H_    0.506276 0.830430 0.819733 0.116176
H21   H     H_    0.519015 0.812979 0.690659 0.114953
H22   H     H_    0.943029 0.810132 0.066184 0.108111
H23   H     H_    0.841854 0.048752 0.014992 0.138640
H24   H     H_    0.642585 0.254410 0.074211 0.093117
H25   H     H_    0.149999 0.758064 0.281558 0.129110
H26   H     H_    0.637254 0.977858 0.233761 0.112379
H27   H     H_    0.165388 0.528261 0.166358 0.136581
O1    O     O_R   0.748800 0.497470 0.428000 -0.531955
O2    O     O_R   0.300070 0.471040 0.567100 -0.502107
O3    O     O_R   0.491670 0.258900 0.574910 -0.515683
O4    O     O_R   0.718780 0.304180 0.577850 -0.500307
O5    O     O_3   0.500010 0.500010 0.500020 -0.267693
O6    O     O_R   0.186690 0.923650 0.086970 -0.528387
O7    O     O_R   0.957250 0.194250 0.084630 -0.514549
O8    O     O_R   0.934970 0.407490 0.085330 -0.517825
O9    O     O_R   0.203780 0.365190 0.067090 -0.507993
O10   O     O_R   0.417600 0.174890 0.067840 -0.503510
O11   O     O_R   0.375320 0.946260 0.070860 -0.495090
O12   O     O_R   0.476420 0.724060 0.429470 -0.511217
O13   O     O_R   0.160600 0.919630 0.926660 -0.530815
O14   O     O_R   0.933060 0.190520 0.936020 -0.521943
O15   O     O_R   0.908880 0.403460 0.925020 -0.519538
O16   O     O_R   0.179600 0.361450 0.918490 -0.502030
O17   O     O_R   0.391510 0.170860 0.907530 -0.531717
O18   O     O_R   0.351130 0.942530 0.922260 -0.510199
O19   O     O_3   0.166667 0.166667 0.999870 -0.245627
O20   O     O_R   0.264580 0.744340 0.416750 -0.523185
O21   O     O_R   0.309380 0.472470 0.418200 -0.486393
O22   O     O_R   0.501710 0.260430 0.414300 -0.523826
O23   O     O_R   0.728090 0.305600 0.428960 -0.519921
O24   O     O_R   0.738760 0.495930 0.588610 -0.521324
O25   O     O_R   0.467110 0.722640 0.578360 -0.506179
O26   O     O_R   0.254530 0.742800 0.577360 -0.527567
H28   H     H_    0.557878 0.756378 0.180161 0.119353
H29   H     H_    0.105688 0.012455 0.205767 0.152864
H30   H     H_    0.144575 0.528546 0.808088 0.118720
H31   H     H_    0.115801 0.830726 0.683896 0.125611
C61   C     C_3   0.895173 0.968661 0.336061 -0.395181
H32   H     H_    0.906991 0.013578 0.285688 0.135699
H33   H     H_    0.782595 0.026548 0.351641 0.136774
H34   H     H_    0.953564 0.984167 0.380552 0.144601

loop_
_geom_bond_atom_site_label_1
_geom_bond_atom_site_label_2
_ccdc_geom_bond_type
C34   O25   A    
C52   O10   A    
C33   C55   S    
C41   C42   A    
C49   H21   S    
C35   C36   A    
Cr5   O8    S    
C7    C61   S    
C28   C29   A    
C53   O6    A    
C52   O9    A    
C26   C27   A    
C54   O14   A    
Cr4   O14   S    
C18   C24   A    
C56   O4    A    
C36   C37   A    
C26   H28   S    
Cr2   O21   S    
C20   C51   S    
C59   H23   S    
C38   C39   A    
C2    C60   A    
Cr4   O19   S    
C53   O11   A    
C6    H25   S    
C41   H17   S    
C21   H7    S    
C34   O26   A    
C9    C58   A    
C56   O24   A    
C23   O23   A    
Cr2   O5    S    
Cr4   O6    S    
C19   C20   A    
Cr2   O2    S    
C8    C9    A    
C12   C17   S    
C23   C24   S    
C8    H26   S    
C9    H10   S    
Cr6   O18   S    
Cr1   O12   S    
Cr5   O15   S    
C12   O22   A    
Cr3   O22   S    
C57   O13   A    
C59   C60   A    
C13   C14   A    
C55   O16   A    
C19   H6    S    
C1    O20   A    
Cr5   O9    S    
C44   C46   A    
C12   O21   A    
C35   H30   S    
C34   C50   S    
Cr1   O24   S    
Cr6   O11   S    
C42   H18   S    
Cr2   O20   S    
C36   H14   S    
C39   C40   A    
Cr1   O1    S    
C18   C19   A    
C10   H27   S    
C58   C59   A    
Cr3   O3    S    
C31   C37   A    
C25   H9    S    
Cr5   O19   S    
C29   C30   A    
C18   H5    S    
C47   C57   S    
C11   C16   S    
C47   C48   A    
C7    C13   A    
Cr6   O17   S    
Cr5   O16   S    
Cr2   O26   S    
C61   H34   S    
Cr3   O23   S    
C48   C49   A    
C40   C54   S    
C55   O17   A    
C14   H3    S    
C22   C24   A    
C2    C5    S    
C51   O8    A    
C42   C43   A    
C4    C17   A    
C37   C45   S    
C45   O2    A    
C31   H12   S    
C61   H33   S    
C44   C50   A    
C25   C30   A    
C15   H4    S    
C46   C47   A    
C11   C17   A    
Cr1   O25   S    
C28   H29   S    
Cr6   O10   S    
C31   C32   A    
C2    C8    A    
C39   H16   S    
C4    C5    A    
C3    C5    A    
C58   H22   S    
C4    H1    S    
C3    C52   S    
C27   C53   S    
Cr4   O13   S    
C6    C7    A    
C60   H24   S    
Cr3   O5    S    
C44   H31   S    
C23   O1    A    
C54   O15   A    
C51   O7    A    
C32   C33   A    
C46   H19   S    
C25   C26   A    
C38   C43   A    
C38   H15   S    
C3    C10   A    
C32   H13   S    
Cr1   O5    S    
C57   O18   A    
C1    C30   S    
C33   C35   A    
C48   H20   S    
C10   C11   A    
C6    C16   A    
C43   C56   S    
Cr4   O7    S    
C29   H11   S    
C20   C21   A    
Cr3   O4    S    
C49   C50   A    
C27   C28   A    
C22   H8    S    
C14   C15   A    
C40   C41   A    
Cr6   O19   S    
C21   C22   A    
C45   O3    A    
C15   C16   A    
C1    O12   A    
C61   H32   S    
C13   H2    S    
