data_mof_unit_43887.cif
_audit_creation_date              2013-03-05T15:44:32-0500
_audit_creation_method            fapswitch 2.2
_symmetry_space_group_name_H-M    P1
_symmetry_Int_Tables_number       1
_space_group_crystal_system       triclinic
_cell_length_a                    27.745684
_cell_length_b                    10.911294
_cell_length_c                    9.681322
_cell_angle_alpha                 90.013871
_cell_angle_beta                  90.384175
_cell_angle_gamma                 90.338209
_cell_volume                      2930.81909408

loop_
_atom_site_label
_atom_site_type_symbol
_atom_site_description
_atom_site_fract_x
_atom_site_fract_y
_atom_site_fract_z
_atom_type_partial_charge
O1    O     O_R   0.500010 0.321960 0.617040 -0.529625
O2    O     O_R   0.499990 0.321920 0.382900 -0.560283
C1    C     C_R   0.498391 0.265346 0.499991 0.822751
O3    O     O_R   0.430270 0.500040 0.617060 -0.560935
O4    O     O_R   0.430260 0.500000 0.382910 -0.501799
C2    C     C_R   0.407608 0.500381 0.499632 0.879643
Cu1   Cu    Cu3+1 0.500010 0.500020 0.638630 0.993866
Cu2   Cu    Cu3+1 0.499990 0.499980 0.361370 1.007720
O5    O     O_R   0.500010 0.678080 0.617100 -0.599079
O6    O     O_R   0.499990 0.678040 0.382960 -0.584942
O7    O     O_R   0.569740 0.500000 0.617090 -0.547227
O8    O     O_R   0.569730 0.499960 0.382940 -0.556516
C3    C     C_R   0.502668 0.734938 0.500294 0.714638
C4    C     C_R   0.592355 0.498853 0.500491 0.893378
C5    C     C_R   0.177490 0.402975 0.422961 0.700232
O9    O     O_2   0.202473 0.321800 0.347005 -0.446936
N1    N     N_R   0.202014 0.488187 0.500058 -0.427549
C6    C     C_R   0.178508 0.571699 0.579830 0.652677
C7    C     C_R   0.277875 0.571897 0.408028 0.254672
C8    C     C_R   0.328581 0.579962 0.412311 0.345631
C9    C     C_R   0.330625 0.420533 0.587832 -0.337497
C10   C     C_R   0.280271 0.414187 0.589224 0.350276
C11   C     C_R   0.253753 0.490165 0.498072 0.062931
C12   C     C_R   0.101812 0.482720 0.509396 -0.113967
C13   C     C_R   0.126620 0.400289 0.422936 -0.142646
C14   C     C_R   0.099833 0.320522 0.336870 0.477460
C15   C     C_R   0.128113 0.569520 0.587473 -0.003696
C16   C     C_R   0.354805 0.500896 0.499530 -0.244502
H1    H     H_    0.351370 0.361759 0.655795 0.224718
C17   C     C_R   0.645081 0.492967 0.502120 -0.304135
C18   C     C_R   0.974108 0.375925 0.463528 -0.085788
C19   C     C_R   0.974808 0.567433 0.597538 0.017230
C20   C     C_R   0.948982 0.471601 0.530233 0.019526
C21   C     C_R   0.947866 0.269232 0.423615 0.371844
C22   C     C_R   0.897320 0.269691 0.420128 0.280966
C23   C     C_R   0.871891 0.373307 0.467659 -0.193332
C24   C     C_R   0.897751 0.471087 0.530161 -0.154477
C25   C     C_R   0.872341 0.568927 0.591612 -0.101231
C26   C     C_R   0.821579 0.568085 0.585886 0.636675
N2    N     N_R   0.797566 0.477504 0.516380 -0.437512
C27   C     C_R   0.821265 0.382456 0.456082 0.612165
C28   C     C_R   0.718695 0.403277 0.591672 -0.255755
C29   C     C_R   0.668421 0.406805 0.587473 0.399638
C30   C     C_R   0.672402 0.573099 0.418922 0.292422
C31   C     C_R   0.722956 0.564446 0.418764 0.440509
C32   C     C_R   0.745953 0.481494 0.508257 0.118959
O10   O     O_2   0.795719 0.299417 0.382294 -0.483954
C33   C     C_R   0.024671 0.387775 0.444204 -0.010357
C34   C     C_R   0.050711 0.478797 0.517746 0.074245
C35   C     C_R   0.026072 0.565944 0.599534 0.087872
C36   C     C_R   0.049737 0.314905 0.348505 -0.229184
H2    H     H_    0.736674 0.339487 0.660202 0.195243
H3    H     H_    0.030914 0.255715 0.276684 0.219757
O11   O     O_2   0.204007 0.655438 0.652986 -0.505077
C37   C     C_R   0.103732 0.651431 0.672620 -0.120571
H4    H     H_    0.123236 0.717557 0.735436 0.199340
C38   C     C_R   0.948463 0.662469 0.659772 -0.277374
C39   C     C_R   0.898267 0.665233 0.655347 0.491661
O12   O     O_2   0.796083 0.656967 0.648386 -0.479042
C40   C     C_R   0.053766 0.649743 0.678964 -0.213272
H5    H     H_    0.965686 0.739351 0.709793 0.152428
H6    H     H_    0.038063 0.713941 0.749883 0.148538
C41   C     C_2   0.490427 0.932369 0.395054 -0.261322
C42   C     C_2   0.509745 0.867941 0.499901 0.347268
H7    H     H_    0.470006 0.886943 0.313499 0.131352
C43   C     C_2   0.494776 0.065922 0.387199 -0.117693
C44   C     C_2   0.493393 0.133617 0.502257 -0.253281
H8    H     H_    0.496874 0.108401 0.285934 0.164638
H9    H     H_    0.487152 0.091592 0.602058 0.176433
C45   C     C_2   0.475822 0.420594 0.921993 0.451166
N3    N     N_2   0.499480 0.498660 0.846910 -0.320195
H10   H     H_    0.512794 0.575939 0.894950 0.130053
C46   C     C_2   0.468624 0.438962 0.077039 0.416692
N4    N     N_2   0.499460 0.498630 0.153040 -0.322989
H11   H     H_    0.529880 0.532199 0.105777 0.150333
N5    N     N_R   0.250876 0.646357 0.312375 0.164824
O13   O     O_R   0.263165 0.759774 0.289775 -0.285365
O14   O     O_R   0.215010 0.599683 0.242504 -0.344844
O15   O     O_3   0.649816 0.657954 0.334828 -0.561849
C47   C     C_3   0.644344 0.767586 0.410156 -0.187949
H12   H     H_    0.679951 0.807891 0.439075 0.194798
H13   H     H_    0.622030 0.753234 0.503989 0.143924
H14   H     H_    0.625346 0.834996 0.343897 0.186491
O16   O     O_3   0.874881 0.760228 0.721029 -0.554387
C48   C     C_3   0.875070 0.863199 0.633101 -0.110245
H15   H     H_    0.855391 0.938431 0.684680 0.214376
H16   H     H_    0.856237 0.843037 0.533646 0.200241
H17   H     H_    0.912346 0.896297 0.613268 0.116879
O17   O     O_3   0.750126 0.643805 0.339361 -0.554049
C49   C     C_3   0.754962 0.592590 0.206552 -0.201993
H18   H     H_    0.719365 0.582025 0.154073 0.185750
H19   H     H_    0.773874 0.503004 0.210701 0.167314
H20   H     H_    0.777142 0.655614 0.143006 0.204663
O18   O     O_3   0.543945 0.923738 0.586050 -0.594548
C50   C     C_3   0.535662 0.897098 0.726537 -0.341792
H21   H     H_    0.554488 0.811531 0.756577 0.199778
H22   H     H_    0.496584 0.892007 0.752103 0.155812
H23   H     H_    0.551462 0.972277 0.789685 0.176345
N6    N     N_R   0.256967 0.329327 0.682118 0.160062
O19   O     O_R   0.280647 0.236329 0.731574 -0.323763
O20   O     O_R   0.213371 0.347944 0.725671 -0.350110
O21   O     O_3   0.452348 0.324435 0.856213 -0.535459
C51   C     C_3   0.472140 0.212807 0.902549 -0.270049
H24   H     H_    0.463343 0.194584 0.012436 0.179130
H25   H     H_    0.511871 0.210293 0.886959 0.151144
H26   H     H_    0.456055 0.137138 0.840817 0.173935
O22   O     O_3   0.430775 0.379763 0.142111 -0.552029
C52   C     C_3   0.386759 0.427389 0.092579 -0.157072
H27   H     H_    0.378287 0.392862 0.987236 0.186344
H28   H     H_    0.386499 0.529514 0.094016 0.175021
H29   H     H_    0.357472 0.395620 0.161596 0.197710
O23   O     O_3   0.122262 0.244008 0.243632 -0.525416
C53   C     C_3   0.120599 0.299504 0.112083 -0.148295
H30   H     H_    0.138059 0.391773 0.113159 0.181618
H31   H     H_    0.082901 0.306118 0.072881 0.121754
H32   H     H_    0.140879 0.241499 0.038726 0.222468
O24   O     O_3   0.642224 0.329455 0.672018 -0.556656
C54   C     C_3   0.633964 0.218467 0.600823 -0.237006
H33   H     H_    0.668417 0.170593 0.579180 0.175190
H34   H     H_    0.613396 0.233495 0.503177 0.140267
H35   H     H_    0.611878 0.157400 0.667037 0.198841
N7    N     N_R   0.872632 0.159470 0.378737 0.181885
O25   O     O_R   0.883588 0.106075 0.263030 -0.292305
O26   O     O_R   0.844972 0.102474 0.465985 -0.364872
O27   O     O_3   0.970734 0.159081 0.398392 -0.552756
C55   C     C_3   0.982984 0.104799 0.526107 -0.239084
H36   H     H_    0.996499 0.010968 0.506406 0.194988
H37   H     H_    0.951188 0.096482 0.595146 0.148427
H38   H     H_    0.012260 0.157055 0.579033 0.166524
O28   O     O_3   0.352281 0.660095 0.324752 -0.553404
C56   C     C_3   0.366447 0.765121 0.400483 -0.170461
H39   H     H_    0.396438 0.744366 0.473069 0.102346
H40   H     H_    0.335877 0.805934 0.458193 0.190558
H41   H     H_    0.379640 0.835403 0.326930 0.182542

loop_
_geom_bond_atom_site_label_1
_geom_bond_atom_site_label_2
_geom_bond_distance
_ccdc_geom_bond_type
C43   H8    1.086302 S    
C37   H4    1.083533 S    
C41   H7    1.086572 S    
C55   H36   1.109312 S    
C46   N4    1.296917 D    
C7    C8    1.409421 A    
C12   C15   1.408907 A    
C56   H41   1.108879 S    
C38   C39   1.393601 A    
C50   H23   1.109388 S    
Cu1   Cu2   2.684240 S    
C48   H15   1.109074 S    
Cu1   O7    1.947301 S    
N1    C11   1.435810 S    
C7    N5    1.441193 S    
N5    O14   1.300792 A    
C22   N7    1.436141 S    
C47   H14   1.109341 S    
Cu1   N3    2.016635 S    
O4    C2    1.296744 A    
O7    C4    1.295271 A    
C15   C37   1.396492 A    
C46   O22   1.384903 S    
C5    O9    1.348896 S    
C52   H27   1.110345 S    
C40   H6    1.076709 S    
C21   C22   1.402646 A    
C28   C32   1.397661 A    
O5    C3    1.292300 A    
C54   H33   1.113151 S    
C25   C39   1.409696 A    
C33   C36   1.410353 A    
C2    C16   1.465079 S    
C50   H21   1.110399 S    
O22   C52   1.411116 S    
C18   C20   1.416743 A    
C12   C13   1.413537 A    
C45   N3    1.298043 D    
C31   O17   1.381816 S    
C53   H32   1.109470 S    
C43   C44   1.337299 D    
C41   C43   1.463547 S    
C37   C40   1.388118 A    
C17   C30   1.410161 A    
C23   C27   1.412509 A    
O21   C51   1.411089 S    
C19   C38   1.409663 A    
C4    C17   1.464703 S    
O3    Cu1   1.944831 S    
O23   C53   1.410912 S    
C48   H16   1.113693 S    
C1    C44   1.443374 S    
N4    H11   1.028362 S    
O16   C48   1.409774 S    
C47   H13   1.113357 S    
C26   N2    1.363609 A    
C8    C16   1.409339 A    
C55   H38   1.111868 S    
C13   C14   1.409921 A    
C31   C32   1.405990 A    
C9    H1    1.083961 S    
C20   C24   1.421413 A    
C41   C42   1.345097 D    
O1    C1    1.290886 A    
C54   H35   1.109532 S    
C7    C11   1.415760 A    
C24   C25   1.415942 A    
C39   O16   1.383074 S    
C49   H19   1.112761 S    
N6    O19   1.301729 A    
Cu2   O8    1.944826 S    
C26   O12   1.349308 S    
C45   C46   1.528908 S    
Cu2   N4    2.016914 S    
N1    C6    1.365859 A    
C27   O10   1.348694 S    
C18   C21   1.421532 A    
C51   H25   1.114140 S    
N5    O13   1.300664 A    
C19   C35   1.422537 A    
C29   O24   1.382627 S    
C45   O21   1.384430 S    
O3    C2    1.295480 A    
N2    C27   1.364415 A    
N6    O20   1.300740 A    
C9    C16   1.396756 A    
O8    C4    1.296100 A    
C18   C33   1.421696 A    
O27   C55   1.411476 S    
C17   C29   1.409406 A    
C28   C29   1.395948 A    
N2    C32   1.434570 S    
N7    O26   1.300970 A    
C56   H39   1.109960 S    
C14   O23   1.382879 S    
C30   C31   1.406407 A    
C49   H20   1.109221 S    
C53   H30   1.114691 S    
C48   H17   1.111440 S    
C44   H9    1.084128 S    
C12   C34   1.421066 A    
C5    N1    1.367471 A    
C23   C24   1.415652 A    
C55   H37   1.113668 S    
C10   N6    1.444074 S    
O1    Cu1   1.954026 S    
C30   O15   1.383165 S    
O2    Cu2   1.954065 S    
C6    C15   1.400744 A    
C8    O28   1.384382 S    
C47   H12   1.113053 S    
C56   H40   1.113805 S    
O6    C3    1.295886 A    
O4    Cu2   1.947304 S    
C50   H22   1.114823 S    
C38   H5    1.076368 S    
C14   C36   1.396253 A    
C52   H29   1.109499 S    
C35   C40   1.414670 A    
C19   C20   1.419857 A    
O2    C1    1.291799 A    
N7    O25   1.301163 A    
C42   O18   1.396070 S    
N3    H10   1.028396 S    
O24   C54   1.410101 S    
C49   H18   1.113016 S    
C25   C26   1.409121 A    
C3    C42   1.463319 S    
C21   O27   1.384803 S    
C33   C34   1.414080 A    
C52   H28   1.114467 S    
O28   C56   1.412687 S    
C51   H26   1.109007 S    
O18   C50   1.410947 S    
C54   H34   1.113619 S    
C5    C13   1.411544 A    
C6    O11   1.349946 S    
O15   C47   1.410341 S    
Cu1   O5    1.954065 S    
Cu2   O6    1.954026 S    
C34   C35   1.418817 A    
C51   H24   1.110803 S    
C10   C11   1.416416 A    
C22   C23   1.414663 A    
C36   H3    1.079017 S    
O17   C49   1.409372 S    
C9    C10   1.398557 A    
C28   H2    1.083229 S    
C53   H31   1.113048 S    
