data_mof_unit_13221.cif
_audit_creation_date              2013-03-05T15:51:50-0500
_audit_creation_method            fapswitch 2.2
_symmetry_space_group_name_H-M    P1
_symmetry_Int_Tables_number       1
_space_group_crystal_system       triclinic
_cell_length_a                    10.873234
_cell_length_b                    11.046883
_cell_length_c                    18.792906
_cell_angle_alpha                 90.19898
_cell_angle_beta                  89.65202
_cell_angle_gamma                 60.236062
_cell_volume                      1959.43598187

loop_
_atom_site_label
_atom_site_type_symbol
_atom_site_description
_atom_site_fract_x
_atom_site_fract_y
_atom_site_fract_z
_atom_type_partial_charge
O1    O     O_R   0.507380 0.255700 0.581440 -0.547634
O2    O     O_R   0.280320 0.527350 0.578930 -0.487810
C1    C     C_R   0.237977 0.645997 0.609967 0.571197
O3    O     O_R   0.260510 0.739590 0.584590 -0.461204
O4    O     O_R   0.532300 0.695080 0.573820 -0.447393
C2    C     C_R   0.630040 0.591044 0.609182 0.536766
O5    O     O_R   0.744840 0.503500 0.576370 -0.491393
O6    O     O_R   0.699120 0.276560 0.571960 -0.490522
C3    C     C_R   0.631194 0.221672 0.600563 0.530634
O7    O     O_R   0.498940 0.256500 0.419860 -0.498838
O8    O     O_R   0.272500 0.528080 0.429150 -0.500692
C4    C     C_R   0.222775 0.649045 0.401207 0.551747
O9    O     O_R   0.252060 0.740380 0.423010 -0.498739
O10   O     O_R   0.524480 0.695810 0.424040 -0.464102
C5    C     C_R   0.643815 0.622051 0.392515 0.581437
O11   O     O_R   0.736390 0.504290 0.414790 -0.489579
O12   O     O_R   0.691300 0.277290 0.422170 -0.486542
C6    C     C_R   0.618693 0.225511 0.395979 0.540895
Cr1   Cr    Cr6+3 0.392960 0.397920 0.502240 1.061951
Cr2   Cr    Cr6+3 0.398340 0.708480 0.501250 1.127258
Cr3   Cr    Cr6+3 0.708670 0.393570 0.496460 1.107804
O13   O     O_3   0.499990 0.499990 0.499980 -0.316705
C7    C     C_3   0.604938 0.805881 0.776770 -0.169524
H1    H     H_    0.669130 0.858464 0.775186 0.077242
H2    H     H_    0.503896 0.875250 0.805474 0.196937
C8    C     C_3   0.573368 0.780637 0.700196 0.263701
H3    H     H_    0.608832 0.833262 0.662046 0.115921
H4    H     H_    0.896404 0.637006 0.783683 0.121310
C9    C     C_3   0.835638 0.581585 0.776355 -0.254878
C10   C     C_3   0.607618 0.586241 0.812940 -0.227053
C11   C     C_3   0.691061 0.665106 0.815840 -0.008482
H5    H     H_    0.660468 0.489240 0.844522 0.210990
H6    H     H_    0.500649 0.651853 0.837123 0.122392
C12   C     C_3   0.652746 0.622223 0.683294 0.033732
C13   C     C_3   0.814693 0.564751 0.697705 -0.141174
C14   C     C_3   0.592387 0.553500 0.734802 -0.235576
H7    H     H_    0.478808 0.592442 0.723508 0.153949
H8    H     H_    0.644569 0.439675 0.727117 0.127431
H9    H     H_    0.899722 0.476274 0.799947 0.213095
H10   H     H_    0.876457 0.451805 0.685801 0.172252
C15   C     C_R   0.702764 0.115731 0.815120 0.013835
C16   C     C_R   0.821301 0.089338 0.773221 0.012861
C17   C     C_R   0.806852 0.107947 0.699679 -0.007774
C18   C     C_R   0.581954 0.116329 0.705124 -0.063360
C19   C     C_R   0.586076 0.122188 0.778912 -0.168268
C20   C     C_3   0.917801 0.149786 0.775759 0.209455
C21   C     C_3   0.896283 0.174953 0.695795 -0.086412
C22   C     C_R   0.680788 0.137180 0.665374 -0.024967
H11   H     H_    0.498769 0.124353 0.807975 0.191395
H12   H     H_    0.027277 0.073378 0.791570 0.125111
H13   H     H_    0.835132 0.284258 0.680112 0.138986
C23   C     C_R   0.175234 0.673325 0.833891 0.005345
C24   C     C_R   0.159192 0.574338 0.794851 -0.006555
C25   C     C_R   0.168171 0.570251 0.721204 0.004388
C26   C     C_R   0.189536 0.775666 0.722842 -0.138773
C27   C     C_R   0.190369 0.774675 0.796571 -0.169968
C28   C     C_3   0.243392 0.419478 0.799582 -0.266771
C29   C     C_3   0.252282 0.416161 0.719068 -0.207976
C30   C     C_R   0.187058 0.668300 0.683594 0.017214
H14   H     H_    0.204276 0.854076 0.697150 0.228152
H15   H     H_    0.199634 0.855681 0.824379 0.150129
H16   H     H_    0.179611 0.374096 0.820867 0.165613
H17   H     H_    0.347052 0.383281 0.825922 0.139793
H18   H     H_    0.360961 0.379756 0.698630 0.164194
H19   H     H_    0.192584 0.370593 0.693383 0.204950
C31   C     C_R   0.652114 0.678474 0.168361 -0.031902
C32   C     C_R   0.714617 0.549676 0.200641 -0.026642
C33   C     C_R   0.723086 0.536020 0.271768 -0.063493
C34   C     C_R   0.588007 0.782780 0.288303 0.319571
C35   C     C_R   0.584376 0.797162 0.213500 -0.144645
C36   C     C_3   0.803618 0.397171 0.186330 -0.271458
C37   C     C_3   0.808614 0.380799 0.267763 -0.091017
C38   C     C_R   0.657992 0.648897 0.318508 0.028010
H20   H     H_    0.533072 0.900294 0.191019 0.149848
H21   H     H_    0.906842 0.369859 0.160777 0.144137
H22   H     H_    0.743086 0.353544 0.159557 0.145920
H23   H     H_    0.748368 0.331648 0.288217 0.154930
C39   C     C_R   0.690349 0.062484 0.186857 -0.005009
C40   C     C_R   0.558847 0.117062 0.219796 0.031822
C41   C     C_R   0.541611 0.157913 0.289424 0.125069
C42   C     C_R   0.791584 0.072733 0.300962 -0.160845
C43   C     C_R   0.809543 0.028358 0.229522 -0.164548
C44   C     C_3   0.417736 0.235037 0.199007 -0.275031
C45   C     C_3   0.398740 0.280839 0.276126 -0.253353
C46   C     C_R   0.654194 0.148705 0.329249 0.023834
H24   H     H_    0.881854 0.056589 0.331952 0.165188
H25   H     H_    0.914232 0.975675 0.206587 0.142835
H26   H     H_    0.343516 0.198696 0.182202 0.145928
H27   H     H_    0.425595 0.309932 0.162435 0.154483
H28   H     H_    0.398176 0.380819 0.284143 0.135138
H29   H     H_    0.312783 0.272237 0.303823 0.177168
C47   C     C_R   0.153596 0.663924 0.181064 0.021056
C48   C     C_R   0.231882 0.718932 0.211457 0.001374
C49   C     C_R   0.241900 0.720795 0.283593 0.001875
C50   C     C_R   0.122003 0.588655 0.297955 -0.170862
C51   C     C_R   0.107531 0.589082 0.224115 -0.166481
C52   C     C_3   0.225979 0.857326 0.204652 -0.271604
C53   C     C_3   0.229644 0.861254 0.285000 -0.237299
C54   C     C_R   0.181299 0.663679 0.328140 0.022395
H30   H     H_    0.084462 0.533602 0.331179 0.138632
H31   H     H_    0.049738 0.541698 0.201767 0.137909
H32   H     H_    0.126908 0.944094 0.183278 0.160822
H33   H     H_    0.322934 0.846283 0.178770 0.141988
H34   H     H_    0.324606 0.858817 0.306651 0.218499
H35   H     H_    0.128436 0.941985 0.309322 0.175480
O14   O     O_R   0.089400 0.825690 0.930570 -0.523680
O15   O     O_R   0.818460 0.054440 0.929850 -0.460885
C55   C     C_R   0.707868 0.089365 0.892224 0.577298
O16   O     O_R   0.606060 0.077150 0.915510 -0.540810
O17   O     O_R   0.646550 0.806680 0.917570 -0.517700
C56   C     C_R   0.720489 0.686166 0.889764 0.545627
O18   O     O_R   0.837170 0.593410 0.915250 -0.499919
O19   O     O_R   0.065200 0.635530 0.931570 -0.496558
C57   C     C_R   0.118173 0.706813 0.905823 0.541529
O20   O     O_R   0.068260 0.828890 0.091840 -0.540691
O21   O     O_R   0.798870 0.057410 0.079340 -0.503195
C58   C     C_R   0.702843 0.038850 0.110548 0.561399
O22   O     O_R   0.584930 0.080350 0.076780 -0.518625
O23   O     O_R   0.626960 0.809650 0.067060 -0.527382
C59   C     C_R   0.693801 0.690916 0.096878 0.548985
O24   O     O_R   0.816040 0.596610 0.076510 -0.510352
O25   O     O_R   0.045610 0.638500 0.081060 -0.511470
C60   C     C_R   0.092508 0.709512 0.112301 0.539329
Cr4   Cr    Cr6+3 0.937650 0.938540 0.007610 1.030409
Cr5   Cr    Cr6+3 0.625330 0.937370 0.994520 1.004876
Cr6   Cr    Cr6+3 0.937940 0.625230 0.001190 1.020141
O26   O     O_3   0.833640 0.833710 0.001100 -0.282185
C61   C     C_2   0.468420 0.097231 0.671815 0.243484
H36   H     H_    0.476073 0.067244 0.616232 0.163028
O27   O     O_2   0.367825 0.108912 0.706626 -0.521252
F1    F     F_    0.860812 0.271297 0.815198 -0.685347
C62   C     C_2   0.027476 0.096968 0.651075 0.189665
H37   H     H_    0.123329 0.097811 0.665866 0.171210
O28   O     O_2   0.025844 0.038190 0.596236 -0.458542
F2    F     F_    0.524873 0.898125 0.330494 -0.638693
F3    F     F_    0.428884 0.837122 0.692422 -0.641321
C63   C     C_2   0.954651 0.324320 0.297745 0.249282
H38   H     H_    0.023520 0.362636 0.278942 0.089220
O29   O     O_2   0.996864 0.234723 0.343491 -0.495625
C64   C     C_2   0.877477 0.634138 0.652001 0.214418
H39   H     H_    0.849792 0.741654 0.661848 0.093660
O30   O     O_2   0.962043 0.569003 0.604431 -0.470440

loop_
_geom_bond_atom_site_label_1
_geom_bond_atom_site_label_2
_geom_bond_distance
_ccdc_geom_bond_type
C51   H31   1.083299 S    
C36   H21   1.112482 S    
C26   C27   1.385720 A    
C48   C49   1.361570 A    
C15   C55   1.474910 S    
C26   C30   1.406194 A    
C15   C16   1.406842 A    
C56   O18   1.268466 A    
C41   C45   1.494111 S    
C61   H36   1.084877 S    
C52   C53   1.511765 S    
C28   H16   1.111528 S    
O4    Cr2   1.953189 S    
C24   C25   1.385902 A    
C59   O24   1.270706 A    
C63   O29   1.220270 D    
O8    Cr1   1.958427 S    
C8    H3    1.105792 S    
Cr6   O26   1.999265 S    
C53   H35   1.109932 S    
O14   C57   1.274667 A    
O4    C2    1.301196 A    
H4    C9    1.110172 S    
C64   O30   1.221090 D    
C10   C11   1.539545 S    
C50   C54   1.398585 A    
C32   C36   1.490654 S    
C49   C53   1.490098 S    
C5    O11   1.260787 A    
C47   C51   1.414158 A    
C55   O16   1.256166 A    
C12   C13   1.572947 S    
C16   C20   1.498399 S    
C7    C8    1.537768 S    
O17   C56   1.272469 A    
C4    C54   1.432392 S    
C37   H23   1.105994 S    
C8    C12   1.549660 S    
C18   C61   1.492432 S    
C50   C51   1.397273 A    
O6    C3    1.282244 A    
C35   H20   1.078365 S    
O15   C55   1.283140 A    
C34   C38   1.407965 A    
C45   H29   1.111792 S    
C10   H5    1.108110 S    
C17   C22   1.404096 A    
O18   Cr6   2.081461 S    
C52   H32   1.106020 S    
C10   H6    1.113096 S    
C31   C32   1.380301 A    
C34   F2    1.356987 S    
C31   C59   1.443877 S    
Cr3   O13   1.970817 S    
C45   H28   1.111182 S    
O15   Cr4   1.960330 S    
C42   C43   1.406458 A    
C25   C30   1.392598 A    
C29   H18   1.107806 S    
C44   H27   1.112489 S    
O1    Cr1   2.080758 S    
C6    C46   1.450193 S    
O20   C60   1.271232 A    
C32   C33   1.344268 A    
O10   Cr2   1.946783 S    
Cr1   O13   1.982445 S    
O1    C3    1.259852 A    
C64   H39   1.085524 S    
C47   C60   1.430938 S    
C20   F1    1.377248 S    
C24   C28   1.489860 S    
C50   H30   1.082745 S    
C62   H37   1.084775 S    
C21   H13   1.093026 S    
O19   Cr6   1.942890 S    
C33   C38   1.391378 A    
O5    Cr3   2.086461 S    
O12   Cr3   1.966335 S    
C2    C12   1.484824 S    
C61   O27   1.221315 D    
C7    C11   1.550762 S    
O25   Cr6   1.958381 S    
C41   C46   1.398948 A    
C13   C64   1.519299 S    
C39   C43   1.412198 A    
C29   H19   1.110979 S    
C44   C45   1.512144 S    
O10   C5    1.279124 A    
C19   H11   1.082202 S    
O7    Cr1   2.083138 S    
C33   C37   1.491898 S    
C9    H9    1.112649 S    
O12   C6    1.282120 A    
C7    H1    1.108095 S    
C52   H33   1.108385 S    
Cr4   O26   1.983944 S    
O23   Cr5   1.959137 S    
O16   Cr5   2.081209 S    
C37   C63   1.502598 S    
O22   Cr5   2.088893 S    
Cr2   O13   1.999657 S    
C43   H25   1.074599 S    
C16   C17   1.396284 A    
C1    O3    1.268844 A    
C48   C52   1.503937 S    
C36   H22   1.111703 S    
C23   C24   1.396351 A    
O19   C57   1.278889 A    
C25   C29   1.479527 S    
C9    C13   1.521636 S    
C20   C21   1.527381 S    
C14   H7    1.109775 S    
C15   C19   1.413822 A    
O20   Cr4   2.079040 S    
O21   Cr4   1.952991 S    
O9    Cr2   2.071583 S    
C5    C38   1.446274 S    
O2    Cr1   1.961402 S    
C39   C40   1.386331 A    
C18   C19   1.390002 A    
C42   H24   1.080867 S    
C28   H17   1.111748 S    
O6    Cr3   1.959331 S    
O23   C59   1.275224 A    
O11   Cr3   2.077485 S    
C2    O5    1.289026 A    
C23   C57   1.451770 S    
C63   H38   1.085026 S    
C20   H12   1.107328 S    
C10   C14   1.540552 S    
C21   C62   1.497874 S    
C14   H8    1.101480 S    
C13   H10   1.105482 S    
C36   C37   1.539755 S    
C9    C11   1.553760 S    
C58   O22   1.298072 A    
C40   C44   1.493573 S    
C28   C29   1.514753 S    
C31   C35   1.416699 A    
C49   C54   1.393879 A    
O7    C6    1.250342 A    
C53   H34   1.100012 S    
C47   C48   1.391813 A    
O21   C58   1.296968 A    
O2    C1    1.289327 A    
C12   C14   1.560824 S    
C7    H2    1.113232 S    
C34   C35   1.413849 A    
C8    F3    1.381634 S    
O17   Cr5   1.969649 S    
C40   C41   1.363790 A    
O3    Cr2   2.067233 S    
C18   C22   1.415324 A    
O24   Cr6   2.063188 S    
C4    O9    1.266878 A    
C3    C22   1.470252 S    
C62   O28   1.221077 D    
O14   Cr4   2.070983 S    
Cr5   O26   1.971306 S    
C11   C56   1.470914 S    
C27   H15   1.082089 S    
C39   C58   1.450171 S    
O25   C60   1.271896 A    
C26   H14   1.071856 S    
C44   H26   1.111776 S    
C17   C21   1.487593 S    
C42   C46   1.400388 A    
C23   C27   1.399814 A    
O8    C4    1.282473 A    
C1    C30   1.461031 S    
