data_mof_unit_29019.cif
_audit_creation_date              2012-12-10T17:24:11-0500
_audit_creation_method            fapswitch 2.2
_symmetry_space_group_name_H-M    P1
_symmetry_Int_Tables_number       1
_space_group_crystal_system       triclinic
_cell_length_a                    10.10825
_cell_length_b                    10.573915
_cell_length_c                    16.745356
_cell_angle_alpha                 90.385974
_cell_angle_beta                  77.740247
_cell_angle_gamma                 93.920751
_cell_volume                      1744.84131875

loop_
_atom_site_label
_atom_site_type_symbol
_atom_type_description
_atom_site_fract_x
_atom_site_fract_y
_atom_site_fract_z
_atom_type_partial_charge
C1    C     C_R   0.555084 0.733864 0.489466 0.924720
C2    C     C_R   0.445821 0.266605 0.498514 0.920782
C3    C     C_2   0.582319 0.867614 0.468745 -0.423691
C4    C     C_2   0.420235 0.132352 0.486214 -0.417792
C5    C     C_2   0.494777 0.931087 0.435918 -0.015411
C6    C     C_2   0.510240 0.067524 0.433356 -0.013140
C7    C     C_2   0.926478 0.512398 0.505677 -0.126713
C8    C     C_2   0.074274 0.489999 0.492706 -0.132909
C9    C     C_R   0.482616 0.497917 0.654670 0.866666
C10   C     C_R   0.518195 0.502990 0.344187 0.869984
C11   C     C_R   0.472731 0.466295 0.740368 -0.151122
C12   C     C_R   0.525679 0.490642 0.255321 -0.212800
C13   C     C_R   0.513990 0.345639 0.758585 0.068079
C14   C     C_R   0.404151 0.470773 0.226213 0.096554
C15   C     C_R   0.565081 0.331531 0.829989 0.171986
C16   C     C_R   0.403126 0.388457 0.159770 0.197381
C17   C     C_R   0.546228 0.428721 0.888780 -0.008988
C18   C     C_R   0.528397 0.363445 0.108338 0.022914
C19   C     C_R   0.483399 0.539835 0.875706 -0.027539
C20   C     C_R   0.652226 0.400880 0.130687 -0.026152
C21   C     C_R   0.452259 0.562276 0.799491 0.067814
C22   C     C_R   0.652024 0.469201 0.202904 0.100390
C23   C     C_2   0.592288 0.417688 0.965176 -0.174356
C24   C     C_2   0.528089 0.334514 0.022415 -0.194350
H1    H     H_    0.451786 0.266603 0.007790 0.181520
H2    H     H_    0.654996 0.497453 0.981284 0.158619
H3    H     H_    0.330377 0.083832 0.523823 0.150468
H4    H     H_    0.671996 0.916951 0.483410 0.152904
H5    H     H_    0.116406 0.420122 0.448462 0.161162
H6    H     H_    0.884968 0.584198 0.548622 0.165231
H7    H     H_    0.110383 0.617419 0.574302 0.164087
H8    H     H_    0.888924 0.379569 0.427906 0.162070
N1    N     N_2   0.846390 0.448330 0.467170 -0.193208
N2    N     N_2   0.153610 0.551670 0.532830 -0.185580
O1    O     O_R   0.430310 0.692580 0.506610 -0.591557
O2    O     O_R   0.569690 0.307420 0.493390 -0.598907
O3    O     O_R   0.652740 0.659410 0.485540 -0.605974
O4    O     O_R   0.347260 0.340590 0.514460 -0.603761
O5    O     O_R   0.375640 0.518570 0.627580 -0.597293
O6    O     O_R   0.624360 0.481430 0.372420 -0.592434
O7    O     O_R   0.598070 0.485390 0.606510 -0.615484
O8    O     O_R   0.401930 0.514610 0.393490 -0.623296
Zn1   Zn    Zn3+2 0.351480 0.522150 0.514070 0.941619
Zn2   Zn    Zn3+2 0.648520 0.477850 0.485930 0.935319
C25   C     C_3   0.506667 0.235362 0.699616 -0.338875
C26   C     C_3   0.418968 0.119384 0.739186 -0.877076
H9    H     H_    0.481141 0.053376 0.763629 0.265900
H10   H     H_    0.334175 0.147713 0.788357 0.267534
H11   H     H_    0.375000 0.066154 0.692412 0.240931
H12   H     H_    0.457782 0.263694 0.650392 0.202178
H13   H     H_    0.609501 0.208674 0.669374 0.196574
C27   C     C_3   0.282903 0.549115 0.258787 -0.392546
C28   C     C_3   0.249742 0.632474 0.192155 -0.867078
H14   H     H_    0.339779 0.696393 0.165268 0.278589
H15   H     H_    0.218137 0.575866 0.142676 0.262207
H16   H     H_    0.165355 0.691798 0.219433 0.254202
H17   H     H_    0.193077 0.487449 0.288661 0.192929
H18   H     H_    0.304614 0.617858 0.304885 0.254581
C29   C     C_3   0.783095 0.539258 0.215830 -0.347768
C30   C     C_3   0.882241 0.452830 0.241585 -0.811271
H19   H     H_    0.966967 0.512035 0.258267 0.233296
H20   H     H_    0.832339 0.394326 0.295239 0.286709
H21   H     H_    0.925735 0.389301 0.191450 0.252994
H22   H     H_    0.834708 0.589451 0.158360 0.190503
H23   H     H_    0.760958 0.615502 0.261733 0.206468
C31   C     C_3   0.401995 0.689200 0.780468 -0.393309
C32   C     C_3   0.247302 0.683798 0.799463 -0.811868
H24   H     H_    0.213028 0.776790 0.784802 0.238857
H25   H     H_    0.206086 0.609616 0.762380 0.267601
H26   H     H_    0.206725 0.662505 0.865326 0.258871
H27   H     H_    0.440632 0.767093 0.816012 0.204153
H28   H     H_    0.441157 0.717634 0.715620 0.193340
C33   C     C_1   0.455383 0.633047 0.940154 0.157375
N3    N     N_1   0.433149 0.707373 0.991448 -0.227483
C34   C     C_1   0.779516 0.369789 0.078207 0.176877
N4    N     N_1   0.880669 0.344889 0.036106 -0.228024
C35   C     C_3   0.270011 0.328627 0.142846 -0.425204
C36   C     C_3   0.258654 0.185338 0.157314 -0.869359
H29   H     H_    0.343503 0.138935 0.117556 0.258337
H30   H     H_    0.259444 0.164612 0.222169 0.264197
H31   H     H_    0.161740 0.144096 0.143953 0.259334
H32   H     H_    0.179822 0.364991 0.183340 0.221061
H33   H     H_    0.260584 0.350539 0.079624 0.210701
C37   C     C_3   0.658175 0.225806 0.837216 -0.344452
C38   C     C_3   0.588890 0.114268 0.892013 -0.856903
H34   H     H_    0.618522 0.119150 0.952123 0.260924
H35   H     H_    0.476640 0.112188 0.901721 0.260080
H36   H     H_    0.622702 0.023421 0.863721 0.240271
H37   H     H_    0.703558 0.188839 0.776215 0.190919
H38   H     H_    0.747273 0.265617 0.860529 0.205897
C39   C     C_1   0.624892 0.125913 0.375346 0.226845
N5    N     N_1   0.716586 0.171100 0.328578 -0.232097
C40   C     C_1   0.377503 0.872541 0.409288 0.223853
N6    N     N_1   0.283190 0.827207 0.388367 -0.229591

loop_
_geom_bond_atom_site_label_1
_geom_bond_atom_site_label_2
_ccdc_geom_bond_type
C35   C36   S    
C40   N6    T    
C21   C31   S    
C10   O8    A    
C33   N3    T    
C7    C8    S    
C28   H14   S    
C26   H11   S    
C29   H22   S    
C17   C23   S    
C30   H21   S    
C18   C24   S    
C8    H5    S    
C25   H12   S    
C10   O6    A    
C3    H4    S    
C19   C21   A    
C5    C6    S    
C36   H30   S    
C28   H16   S    
C25   H13   S    
C6    C39   S    
C12   C22   A    
C9    O5    A    
C30   H20   S    
C16   C35   S    
C23   H2    S    
C14   C27   S    
C31   H28   S    
C23   C24   D    
O1    Zn1   S    
C1    O3    A    
C38   H35   S    
C31   C32   S    
C29   C30   S    
C7    H6    S    
C7    N1    D    
C37   H38   S    
C28   H15   S    
C27   H18   S    
C26   H10   S    
C32   H24   S    
C19   C33   S    
C37   C38   S    
C4    C6    D    
C22   C29   S    
C36   H29   S    
O5    Zn1   S    
C38   H34   S    
C11   C21   A    
C20   C34   S    
C30   H19   S    
C1    C3    S    
C2    C4    S    
C34   N4    T    
C2    O4    A    
C31   H27   S    
H7    N2    S    
C8    N2    D    
C24   H1    S    
C9    C11   S    
C10   C12   S    
C12   C14   A    
C13   C15   A    
O7    Zn2   S    
C14   C16   A    
O2    Zn2   S    
C37   H37   S    
C39   N5    T    
C4    H3    S    
C27   C28   S    
C1    O1    A    
C38   H36   S    
C2    O2    A    
C15   C17   A    
C26   H9    S    
N1    Zn2   S    
N2    Zn1   S    
C20   C22   A    
C3    C5    D    
C5    C40   S    
C15   C37   S    
C9    O7    A    
C32   H26   S    
H8    N1    S    
O3    Zn2   S    
O4    Zn1   S    
C29   H23   S    
C13   C25   S    
C11   C13   A    
C36   H31   S    
C35   H32   S    
C17   C19   A    
C18   C20   A    
C27   H17   S    
C25   C26   S    
O6    Zn2   S    
C16   C18   A    
O8    Zn1   S    
C35   H33   S    
C32   H25   S    
