data_mof_unit_35310.cif
_audit_creation_date              2012-12-11T15:41:28-0500
_audit_creation_method            fapswitch 2.2
_symmetry_space_group_name_H-M    P1
_symmetry_Int_Tables_number       1
_space_group_crystal_system       triclinic
_cell_length_a                    15.062591
_cell_length_b                    14.777527
_cell_length_c                    14.934106
_cell_angle_alpha                 108.747954
_cell_angle_beta                  110.313565
_cell_angle_gamma                 109.2382
_cell_volume                      2562.14782049

loop_
_atom_site_label
_atom_site_type_symbol
_atom_type_description
_atom_site_fract_x
_atom_site_fract_y
_atom_site_fract_z
_atom_type_partial_charge
C1    C     C_R   0.195220 0.993142 0.902082 0.057772
C2    C     C_R   0.820588 0.912178 0.420720 -0.142475
C3    C     C_R   0.200904 0.315158 0.975139 -0.180211
C4    C     C_R   0.720822 0.814717 0.346656 -0.156246
C5    C     C_R   0.304216 0.352155 0.061417 0.090840
C6    C     C_R   0.710990 0.730534 0.259284 0.089065
C7    C     C_R   0.311559 0.317349 0.139565 -0.165540
C8    C     C_R   0.802852 0.744409 0.248270 -0.198296
C9    C     C_R   0.217269 0.250054 0.134550 0.106013
C10   C     C_R   0.903027 0.842313 0.322200 0.102901
C11   C     C_R   0.114498 0.215569 0.049067 -0.117363
C12   C     C_R   0.753098 0.938391 0.030524 0.061608
C13   C     C_R   0.911396 0.926222 0.408724 -0.148969
C14   C     C_R   0.407589 0.533084 0.080785 -0.229019
C15   C     C_R   0.601035 0.529194 0.168880 -0.234440
C16   C     C_R   0.805137 0.209041 0.299590 -0.172178
C17   C     C_R   0.253783 0.778818 0.686454 -0.156157
C18   C     C_R   0.506622 0.625119 0.119827 0.053921
C19   C     C_R   0.501191 0.430761 0.105981 0.051825
C20   C     C_R   0.604819 0.627975 0.180574 0.044391
C21   C     C_R   0.404436 0.436867 0.078485 0.039414
C22   C     C_R   0.018423 0.486844 0.380548 -0.172810
C23   C     C_R   0.869027 0.299786 0.297446 0.021628
C24   C     C_R   0.135651 0.470024 0.559351 -0.180383
C25   C     C_R   0.107562 0.579450 0.473193 -0.171290
C26   C     C_R   0.045456 0.375651 0.464995 -0.184184
C27   C     C_R   0.159046 0.573316 0.567174 0.151837
C28   C     C_R   0.981499 0.385649 0.378712 0.149162
C29   C     C_R   0.599447 0.155964 0.621359 -0.173283
C30   C     C_R   0.402360 0.057467 0.428029 -0.171962
C31   C     C_R   0.599767 0.154129 0.528257 -0.172174
C32   C     C_R   0.401936 0.058797 0.521010 -0.171570
C33   C     C_R   0.501126 0.094179 0.428369 0.144796
C34   C     C_R   0.221454 0.673671 0.673126 0.004946
C35   C     C_R   0.500409 0.098479 0.614925 0.143895
C36   C     C_R   0.039049 0.952123 0.027513 -0.178805
C37   C     C_R   0.860254 0.907517 0.842251 -0.174135
C38   C     C_R   0.956951 0.965090 0.036661 -0.236504
C39   C     C_R   0.945792 0.897778 0.833621 -0.195804
C40   C     C_R   0.409049 0.974126 0.222442 -0.129917
C41   C     C_R   0.590723 0.094333 0.790711 -0.134461
C42   C     C_R   0.866889 0.941169 0.944221 0.150766
C43   C     C_R   0.035257 0.921575 0.927237 0.171545
C44   C     C_R   0.591123 0.314221 0.068991 -0.132868
C45   C     C_R   0.500913 0.050996 0.325351 0.037303
C46   C     C_R   0.412293 0.703295 0.012229 -0.106667
C47   C     C_R   0.592120 0.065954 0.314383 -0.126620
C48   C     C_R   0.409257 0.004762 0.699686 -0.136759
C49   C     C_R   0.408936 0.223442 0.975555 -0.128477
C50   C     C_R   0.591577 0.795778 0.103412 -0.112642
C51   C     C_R   0.804850 0.294998 0.202367 0.024898
C52   C     C_R   0.243270 0.683752 0.775783 0.061716
C53   C     C_R   0.196716 0.901050 0.993023 -0.193056
C54   C     C_R   0.755329 0.033008 0.940419 -0.174213
C55   C     C_R   0.132688 0.928800 0.929697 -0.002890
C56   C     C_R   0.499945 0.065600 0.697328 0.046083
C57   C     C_R   0.785067 0.959377 0.959894 0.002745
C58   C     C_R   0.499958 0.326024 0.055659 0.053964
C59   C     C_R   0.503915 0.704452 0.079759 0.039557
C60   C     C_R   0.106596 0.246639 0.968877 -0.148213
H1    H     H_    0.027182 0.219301 0.902941 0.113646
H2    H     H_    0.324642 0.017530 0.354000 0.102930
H3    H     H_    0.677648 0.189960 0.533174 0.106521
H4    H     H_    0.323969 0.019502 0.514960 0.105246
H5    H     H_    0.833042 0.178787 0.354474 0.096773
H6    H     H_    0.249385 0.803705 0.625475 0.106203
H7    H     H_    0.324598 0.942049 0.200270 0.091002
H8    H     H_    0.674341 0.153939 0.823478 0.080271
H9    H     H_    0.675589 0.376714 0.124656 0.103956
H10   H     H_    0.330736 0.654053 0.993249 0.089747
H11   H     H_    0.676921 0.119045 0.377368 0.094166
H12   H     H_    0.827496 0.977067 0.487461 0.113525
H13   H     H_    0.325955 0.982178 0.648126 0.086629
H14   H     H_    0.324854 0.202247 0.942317 0.126825
H15   H     H_    0.673446 0.835448 0.169084 0.128478
H16   H     H_    0.170881 0.843757 0.021208 0.105873
H17   H     H_    0.773408 0.071997 0.894113 0.106344
H18   H     H_    0.040626 0.165997 0.045062 0.121657
H19   H     H_    0.987993 0.002411 0.466732 0.100918
H20   H     H_    0.099717 0.943116 0.742891 0.093329
H21   H     H_    0.114098 0.059115 0.833093 0.112946
H22   H     H_    0.836650 0.924292 0.158981 0.086355
H23   H     H_    0.193403 0.340737 0.913828 0.113889
H24   H     H_    0.795443 0.821065 0.035219 0.115247
H25   H     H_    0.151218 0.178665 0.209423 0.098462
H26   H     H_    0.260286 0.169265 0.211782 0.102171
H27   H     H_    0.063980 0.930887 0.370906 0.086856
H28   H     H_    0.977860 0.856605 0.234915 0.091155
H29   H     H_    0.332215 0.535045 0.050795 0.121126
H30   H     H_    0.676879 0.529651 0.206682 0.125070
H31   H     H_    0.972277 0.499722 0.317154 0.131396
H32   H     H_    0.180465 0.462711 0.628517 0.127820
H33   H     H_    0.109120 0.973393 0.101129 0.111387
H34   H     H_    0.651010 0.805089 0.356712 0.120886
H35   H     H_    0.790630 0.890692 0.771200 0.121649
H36   H     H_    0.966485 0.998377 0.117457 0.116131
H37   H     H_    0.942701 0.873307 0.755647 0.115883
H38   H     H_    0.894391 0.305975 0.128734 0.106013
H39   H     H_    0.780841 0.309575 0.066155 0.100615
H40   H     H_    0.109754 0.548910 0.732509 0.100937
H41   H     H_    0.185511 0.635032 0.864677 0.088557
H42   H     H_    0.390685 0.346650 0.207446 0.120711
H43   H     H_    0.796141 0.679956 0.181173 0.118024
H44   H     H_    0.125578 0.656499 0.473346 0.110882
H45   H     H_    0.021315 0.297394 0.463503 0.108660
H46   H     H_    0.677276 0.193441 0.694376 0.104922
N1    N     N_R   0.293810 0.002730 0.945950 -0.045148
N2    N     N_R   0.443210 0.997250 0.791090 -0.035810
N3    N     N_R   0.443180 0.152110 0.945950 -0.039804
N4    N     N_R   0.556820 0.847890 0.054050 -0.041862
N5    N     N_R   0.706170 0.208950 0.152090 -0.050250
N6    N     N_R   0.293830 0.791050 0.847910 -0.053529
N7    N     N_R   0.293800 0.945910 0.002760 -0.043266
N8    N     N_R   0.706200 0.054090 0.997240 -0.047132
N9    N     N_3   0.155438 0.017544 0.816140 -0.229424
N10   N     N_3   0.772961 0.871866 0.077666 -0.221283
N11   N     N_3   0.227818 0.222019 0.219708 -0.216157
N12   N     N_R   0.706190 0.997270 0.054050 -0.049382
N13   N     N_3   0.995191 0.854942 0.308323 -0.221979
N14   N     N_3   0.845855 0.338804 0.143325 -0.235479
N15   N     N_3   0.191168 0.598314 0.795818 -0.227281
N16   N     N_R   0.706160 0.152130 0.208910 -0.042266
N17   N     N_R   0.293840 0.847870 0.791090 -0.046368
N18   N     N_R   0.443140 0.945920 0.152090 -0.039872
N19   N     N_R   0.556860 0.054080 0.847910 -0.035783
N20   N     N_R   0.556830 0.208940 0.002760 -0.044337
N21   N     N_R   0.443170 0.791060 0.997240 -0.042593
N22   N     N_R   0.556790 0.002750 0.208910 -0.040007
Ni1   Ni    Ni4+2 0.369690 0.999990 0.869700 0.215233
Ni2   Ni    Ni4+2 0.630310 0.000010 0.130300 0.209151
Ni3   Ni    Ni4+2 0.369670 0.869670 0.000000 0.202485
Ni4   Ni    Ni4+2 0.630330 0.130330 0.000000 0.198340

loop_
_geom_bond_atom_site_label_1
_geom_bond_atom_site_label_2
_ccdc_geom_bond_type
C30   C32   A    
C13   H19   S    
C46   C59   A    
C33   C45   S    
C14   C18   A    
C24   C27   A    
N1    Ni1   S    
C47   N22   A    
C41   C56   A    
C15   C19   A    
C44   N20   A    
C17   H6    S    
C50   C59   A    
C14   C21   A    
C19   C21   A    
C24   C26   A    
C38   C42   A    
C39   H37   S    
C52   N6    A    
C50   N4    A    
C9    N11   S    
C26   H45   S    
C48   C56   A    
H40   N15   S    
C37   C42   A    
C2    C13   A    
C16   N16   A    
N1    N7    A    
C10   N13   S    
H39   N14   S    
C36   H33   S    
C17   N17   A    
C44   C58   A    
C7    H42   S    
C22   H31   S    
C31   C33   A    
N2    N19   A    
N4    N21   A    
N18   N22   A    
C54   H17   S    
C3    C60   A    
C45   C47   A    
H24   N10   S    
C22   C28   A    
N17   Ni1   S    
N5    N16   A    
C40   C45   A    
C2    H12   S    
C24   H32   S    
C42   C57   S    
C53   N7    A    
C41   H8    S    
C53   C55   A    
C27   C34   S    
C15   C20   A    
C40   N18   A    
C32   C35   A    
C31   H3    S    
C46   N21   A    
C32   H4    S    
N6    N17   A    
C4    C6    A    
C5    C7    A    
C39   C43   A    
C40   H7    S    
H41   N15   S    
C49   C58   A    
N18   Ni3   S    
C60   H1    S    
C19   C58   S    
C2    C4    A    
C14   H29   S    
H27   N13   S    
N12   Ni2   S    
C11   H18   S    
C41   N19   A    
C52   N15   S    
C18   C59   S    
C23   C51   A    
H20   N9    S    
N20   Ni4   S    
H21   N9    S    
C51   N14   S    
C44   H9    S    
C23   C28   S    
H28   N13   S    
H25   N11   S    
C9    C11   A    
C47   H11   S    
N2    Ni1   S    
N8    N12   A    
N3    N20   A    
C1    N1    A    
C12   N12   A    
C12   C57   A    
C43   C55   S    
C22   C25   A    
C16   C23   A    
C30   H2    S    
C3    H23   S    
C4    H34   S    
C29   H46   S    
C53   H16   S    
C17   C34   A    
C11   C60   A    
C34   C52   A    
C49   N3    A    
C7    C9    A    
C51   N5    A    
N7    Ni3   S    
C30   C33   A    
C35   C56   S    
N8    Ni4   S    
C48   H13   S    
C8    C10   A    
C3    C5    A    
C10   C13   A    
N22   Ni2   S    
C6    C8    A    
C25   H44   S    
H38   N14   S    
C25   C27   A    
C6    C20   S    
C29   C35   A    
C26   C28   A    
C36   C38   A    
C1    C55   A    
H22   N10   S    
C29   C31   A    
C50   H15   S    
C15   H30   S    
N3    Ni1   S    
N19   Ni4   S    
C48   N2    A    
C54   N8    A    
N4    Ni2   S    
H26   N11   S    
C18   C20   A    
N6    Ni3   S    
C8    H43   S    
N21   Ni3   S    
C46   H10   S    
C37   H35   S    
N5    Ni4   S    
C5    C21   S    
C37   C39   A    
C38   H36   S    
C49   H14   S    
C36   C43   A    
C16   H5    S    
C1    N9    S    
N16   Ni2   S    
C12   N10   S    
C54   C57   A    
