data_mof_unit_51889.cif
_audit_creation_date              2012-12-10T17:54:16-0500
_audit_creation_method            fapswitch 2.2
_symmetry_space_group_name_H-M    P1
_symmetry_Int_Tables_number       1
_space_group_crystal_system       triclinic
_cell_length_a                    27.73651
_cell_length_b                    10.67621
_cell_length_c                    9.888332
_cell_angle_alpha                 89.327934
_cell_angle_beta                  89.804481
_cell_angle_gamma                 91.81274
_cell_volume                      2926.45314766

loop_
_atom_site_label
_atom_site_type_symbol
_atom_type_description
_atom_site_fract_x
_atom_site_fract_y
_atom_site_fract_z
_atom_type_partial_charge
C1    C     C_R   0.501668 0.258838 0.501737 0.881795
C2    C     C_R   0.972965 0.379813 0.502589 0.047094
C3    C     C_R   0.976025 0.611072 0.514894 0.047309
C4    C     C_R   0.406073 0.499367 0.500254 0.852605
C5    C     C_R   0.949274 0.495662 0.508212 0.078496
C6    C     C_R   0.944597 0.267282 0.505401 -0.204420
C7    C     C_R   0.894640 0.268808 0.506386 -0.108265
C8    C     C_R   0.871099 0.382326 0.505223 -0.025966
C9    C     C_R   0.898216 0.496107 0.506822 -0.048697
C10   C     C_R   0.874152 0.610333 0.507061 -0.028854
C11   C     C_R   0.823740 0.608617 0.504299 0.587695
C12   C     C_R   0.278231 0.504232 0.625124 -0.100004
C13   C     C_R   0.820738 0.384981 0.502945 0.585408
C14   C     C_R   0.722229 0.503692 0.373908 0.452656
C15   C     C_R   0.671971 0.504957 0.375728 -0.295334
C16   C     C_R   0.491998 0.737154 0.498885 0.916092
C17   C     C_R   0.671951 0.493444 0.621217 -0.181309
C18   C     C_R   0.721928 0.492440 0.620242 -0.137587
C19   C     C_R   0.747095 0.497565 0.497578 0.184844
C20   C     C_R   0.023980 0.380039 0.495111 0.048325
C21   C     C_R   0.050715 0.494874 0.508460 0.072290
C22   C     C_R   0.027001 0.610018 0.522493 0.047700
C23   C     C_R   0.252996 0.494287 0.503531 0.320899
C24   C     C_R   0.049380 0.269176 0.473021 -0.210276
C25   C     C_R   0.105248 0.718735 0.545625 -0.132478
C26   C     C_R   0.950685 0.724059 0.512190 -0.204686
C27   C     C_R   0.900725 0.723394 0.508690 -0.109217
C28   C     C_R   0.593945 0.500189 0.499758 0.920597
C29   C     C_R   0.055306 0.720468 0.544411 -0.210394
C30   C     C_R   0.499824 0.102267 0.759903 -0.182042
C31   C     C_R   0.480483 0.040617 0.873589 -0.083190
C32   C     C_R   0.454495 0.928240 0.859209 -0.110379
C33   C     C_R   0.452506 0.870984 0.733725 -0.148903
C34   C     C_R   0.101784 0.494610 0.507513 -0.051325
C35   C     C_R   0.474115 0.930336 0.619261 0.092836
C36   C     C_R   0.491551 0.054285 0.628479 0.097060
C37   C     C_R   0.499177 0.123294 0.505706 -0.132540
C38   C     C_R   0.494551 0.064021 0.380608 -0.270588
C39   C     C_R   0.484387 0.937295 0.374163 -0.016799
C40   C     C_R   0.176360 0.384079 0.486746 0.504946
C41   C     C_R   0.479771 0.868335 0.495960 -0.203389
C42   C     C_R   0.435443 0.338427 0.142724 -0.172166
C43   C     C_R   0.402933 0.261062 0.073522 -0.212007
C44   C     C_R   0.402580 0.262274 0.933575 -0.188947
C45   C     C_R   0.125911 0.382037 0.488150 -0.020874
C46   C     C_R   0.435067 0.339946 0.862097 -0.172216
C47   C     C_R   0.468010 0.420959 0.928856 0.145270
C48   C     C_R   0.468108 0.420641 0.073593 0.168669
C49   C     C_R   0.530370 0.576269 0.070324 -0.090724
C50   C     C_R   0.530374 0.576188 0.927044 -0.100214
C51   C     C_R   0.179228 0.604627 0.524210 0.507501
C52   C     C_R   0.277683 0.485529 0.380770 -0.102245
C53   C     C_R   0.327790 0.487351 0.379372 -0.201777
C54   C     C_R   0.328305 0.505670 0.624191 -0.225106
C55   C     C_2   0.477291 0.880337 0.239538 0.925137
C56   C     C_R   0.099365 0.270410 0.469878 -0.134877
C57   C     C_R   0.128851 0.606966 0.525711 -0.023096
C58   C     C_R   0.353420 0.497630 0.501180 -0.032148
C59   C     C_R   0.646641 0.499629 0.498971 -0.109301
H1    H     H_    0.347251 0.513483 0.719463 0.166917
H2    H     H_    0.521848 0.185168 0.778656 0.180436
H3    H     H_    0.484872 0.081864 0.972404 0.180240
H4    H     H_    0.258951 0.510877 0.720044 0.140242
H5    H     H_    0.437151 0.883542 0.945614 0.154374
H6    H     H_    0.433416 0.781289 0.725953 0.155914
H7    H     H_    0.555133 0.638583 0.123277 0.176233
H8    H     H_    0.433905 0.330560 0.249952 0.204970
H9    H     H_    0.378137 0.199044 0.128993 0.167784
H10   H     H_    0.377671 0.200786 0.879861 0.167655
H11   H     H_    0.433907 0.331983 0.755010 0.211885
H12   H     H_    0.257974 0.477955 0.286735 0.140544
H13   H     H_    0.555154 0.638432 0.872017 0.170284
H14   H     H_    0.117137 0.183017 0.452762 0.190820
H15   H     H_    0.652592 0.510394 0.281137 0.197322
H16   H     H_    0.874515 0.180130 0.507754 0.195614
H17   H     H_    0.959817 0.175786 0.509718 0.139413
H18   H     H_    0.031754 0.179759 0.454408 0.141434
H19   H     H_    0.346350 0.480566 0.283323 0.169702
H20   H     H_    0.440082 0.752334 0.128764 0.327415
H21   H     H_    0.702111 0.417438 0.084353 0.354735
H22   H     H_    0.125317 0.805905 0.562242 0.192746
H23   H     H_    0.968344 0.815327 0.509367 0.138594
H24   H     H_    0.653222 0.489235 0.717542 0.183227
H25   H     H_    0.882999 0.812406 0.506734 0.192730
H26   H     H_    0.741314 0.487778 0.714983 0.185536
H27   H     H_    0.040045 0.809999 0.563907 0.141457
H28   H     H_    0.497874 0.116604 0.286330 0.189399
N1    N     N_R   0.201682 0.494301 0.504712 -0.358737
N2    N     N_R   0.798407 0.497057 0.500532 -0.346515
N3    N     N_R   0.499540 0.498800 0.142780 -0.129140
N4    N     N_R   0.499520 0.498720 0.857170 -0.134126
O1    O     O_R   0.500000 0.316780 0.614690 -0.654416
O2    O     O_R   0.571250 0.499990 0.614680 -0.618913
O3    O     O_R   0.571240 0.499970 0.385350 -0.616626
O4    O     O_2   0.200029 0.276976 0.468429 -0.551951
O5    O     O_2   0.505629 0.905718 0.147630 -0.662432
O6    O     O_R   0.438727 0.794911 0.219619 -0.790027
O7    O     O_2   0.782574 0.631426 0.208001 -0.221297
O8    O     O_2   0.786614 0.403205 0.207071 -0.282331
O9    O     O_3   0.714247 0.505669 0.087041 -0.542712
O10   O     O_2   0.794176 0.276817 0.502222 -0.520163
O11   O     O_2   0.205676 0.711601 0.541196 -0.547575
O12   O     O_2   0.800091 0.717211 0.505152 -0.512519
O13   O     O_R   0.500000 0.316750 0.385360 -0.639428
O14   O     O_R   0.428760 0.500030 0.614650 -0.655857
O15   O     O_R   0.428750 0.500010 0.385320 -0.625615
O16   O     O_R   0.500000 0.683250 0.614640 -0.619415
O17   O     O_R   0.500000 0.683220 0.385310 -0.588458
S1    S     S_3+6 0.753209 0.510897 0.217123 0.056659
Zn1   Zn    Zn3+2 0.500000 0.500020 0.653130 0.933932
Zn2   Zn    Zn3+2 0.500000 0.499980 0.346870 0.967155

loop_
_geom_bond_atom_site_label_1
_geom_bond_atom_site_label_2
_ccdc_geom_bond_type
C10   C27   A    
C14   S1    S    
O14   Zn1   S    
C8    C13   A    
C22   C29   A    
C35   C36   A    
C49   N3    A    
C33   H6    S    
C7    C8    A    
C39   C41   A    
C54   H1    S    
C51   O11   S    
C12   C23   A    
C26   C27   A    
N4    Zn1   S    
C36   C37   A    
C30   C31   A    
C31   C32   A    
O8    S1    D    
O3    Zn2   S    
C28   O3    A    
C18   C19   A    
C50   H13   S    
C16   O16   A    
C39   C55   S    
C20   C24   A    
C45   C56   A    
C43   H9    S    
C34   C57   A    
C51   C57   A    
C9    C10   A    
C1    C37   S    
O2    Zn1   S    
O9    S1    S    
C26   H23   S    
O7    S1    D    
C48   N3    A    
C21   C22   A    
H21   O9    S    
C25   H22   S    
C31   H3    S    
C2    C6    A    
C25   C57   A    
N3    Zn2   S    
C44   C46   A    
O15   Zn2   S    
C25   C29   A    
C40   C45   A    
C18   H26   S    
C49   H7    S    
C2    C20   A    
C32   H5    S    
C12   H4    S    
C8    C9    A    
C7    H16   S    
C21   C34   A    
C4    O15   A    
C28   O2    A    
C17   H24   S    
C43   C44   A    
C5    C9    A    
C37   C38   A    
C19   N2    S    
C11   N2    A    
C47   C48   A    
C55   O6    S    
C17   C18   A    
C44   H10   S    
C34   C45   A    
C42   C48   A    
C1    O13   A    
C29   H27   S    
C17   C59   A    
C1    O1    A    
C23   N1    S    
C42   H8    S    
O16   Zn1   S    
C2    C5    A    
C42   C43   A    
C40   O4    S    
C13   O10   S    
C52   C53   A    
C54   C58   A    
C28   C59   S    
C46   C47   A    
C27   H25   S    
C15   C59   A    
C56   H14   S    
C13   N2    A    
C47   N4    A    
C14   C19   A    
H20   O6    S    
C3    C26   A    
C55   O5    D    
C3    C5    A    
C51   N1    A    
O13   Zn2   S    
C53   C58   A    
C6    H17   S    
C6    C7    A    
C24   C56   A    
C4    O14   A    
O17   Zn2   S    
C30   C36   A    
C38   H28   S    
C32   C33   A    
C40   N1    A    
C53   H19   S    
C52   H12   S    
O1    Zn1   S    
C23   C52   A    
C38   C39   A    
C16   C41   S    
C33   C35   A    
C35   C41   A    
C46   H11   S    
C10   C11   A    
C16   O17   A    
C24   H18   S    
C15   H15   S    
C20   C21   A    
C49   C50   A    
C30   H2    S    
C4    C58   S    
C14   C15   A    
C3    C22   A    
C11   O12   S    
C50   N4    A    
C12   C54   A    
