data_mof_unit_60586.cif
_audit_creation_date              2012-12-10T18:05:48-0500
_audit_creation_method            fapswitch 2.2
_symmetry_space_group_name_H-M    P1
_symmetry_Int_Tables_number       1
_space_group_crystal_system       triclinic
_cell_length_a                    25.990993
_cell_length_b                    25.948117
_cell_length_c                    22.197889
_cell_angle_alpha                 89.986193
_cell_angle_beta                  54.216083
_cell_angle_gamma                 90.041626
_cell_volume                      12144.5956203

loop_
_atom_site_label
_atom_site_type_symbol
_atom_type_description
_atom_site_fract_x
_atom_site_fract_y
_atom_site_fract_z
_atom_type_partial_charge
C1    C     C_R   0.400335 0.250008 0.699424 0.826178
C2    C     C_3   0.225363 0.718344 0.974721 -0.244087
C3    C     C_3   0.256415 0.201892 0.976340 0.054702
C4    C     C_3   0.761405 0.298396 0.976194 0.055410
C5    C     C_3   0.246858 0.702407 0.023808 0.055165
C6    C     C_3   0.243585 0.298108 0.023660 0.054700
C7    C     C_3   0.757930 0.701746 0.976343 0.054668
C8    C     C_3   0.694775 0.273864 0.025178 -0.246237
C9    C     C_3   0.308683 0.733804 0.974812 -0.246393
C10   C     C_3   0.307461 0.269435 0.974793 -0.245143
C11   C     C_3   0.693171 0.729159 0.025210 -0.245025
C12   C     C_3   0.191317 0.766196 0.025188 -0.246399
C13   C     C_3   0.223328 0.278907 0.974589 -0.244205
C14   C     C_3   0.805225 0.226136 0.974822 -0.246243
C15   C     C_3   0.806829 0.770841 0.974789 -0.245034
C16   C     C_3   0.192539 0.230565 0.025207 -0.245152
C17   C     C_1   0.639383 0.249979 0.221214 -0.108461
C18   C     C_1   0.360610 0.750026 0.778786 -0.108616
C19   C     C_1   0.360671 0.249925 0.778777 -0.105609
C20   C     C_1   0.639327 0.750075 0.221223 -0.105531
C21   C     C_1   0.139390 0.749974 0.221214 -0.108621
C22   C     C_1   0.860617 0.250021 0.778786 -0.108465
C23   C     C_1   0.860673 0.749925 0.778777 -0.105536
C24   C     C_3   0.777564 0.722351 0.025410 -0.244288
C25   C     C_1   0.139329 0.250075 0.221223 -0.105616
C26   C     C_2   0.558635 0.443591 0.558459 0.468952
C27   C     C_2   0.441362 0.556408 0.441546 0.469280
C28   C     C_2   0.431968 0.442618 0.454221 0.534238
C29   C     C_2   0.568030 0.557382 0.545783 0.533938
C30   C     C_2   0.058749 0.943596 0.558321 0.469191
C31   C     C_2   0.941236 0.056405 0.441695 0.468845
C32   C     C_2   0.931858 0.942618 0.454369 0.534049
C33   C     C_2   0.068144 0.057381 0.545628 0.534333
C34   C     C_2   0.255389 0.851830 0.951740 0.393794
C35   C     C_3   0.274637 0.781656 0.025279 -0.244086
C36   C     C_2   0.726933 0.146452 0.048256 0.393543
C37   C     C_2   0.734368 0.853242 0.047936 0.393981
C38   C     C_2   0.262391 0.147070 0.952058 0.393881
C39   C     C_2   0.773067 0.353548 0.951744 0.393545
C40   C     C_2   0.244611 0.648170 0.048259 0.393798
C41   C     C_2   0.237609 0.352930 0.047942 0.393886
C42   C     C_2   0.765632 0.646758 0.952064 0.393985
C43   C     C_3   0.720514 0.225198 0.974709 -0.244378
C44   C     C_3   0.722436 0.777649 0.974590 -0.244287
C45   C     C_3   0.276672 0.221093 0.025411 -0.244206
C46   C     C_3   0.713315 0.249622 0.073371 0.171384
C47   C     C_3   0.286618 0.750377 0.926629 0.171480
C48   C     C_3   0.286677 0.249592 0.926628 0.170862
C49   C     C_R   0.599665 0.749992 0.300576 0.825831
C50   C     C_3   0.713310 0.750409 0.073372 0.170819
C51   C     C_3   0.213382 0.749623 0.073371 0.171481
C52   C     C_3   0.786684 0.250377 0.926629 0.171385
C53   C     C_3   0.786690 0.749591 0.926628 0.170820
C54   C     C_3   0.213323 0.250408 0.073372 0.170863
C55   C     C_1   0.672759 0.249861 0.154475 0.006276
C56   C     C_1   0.327213 0.750144 0.845525 0.006363
C57   C     C_1   0.327283 0.249804 0.845519 0.008061
C58   C     C_1   0.672712 0.750195 0.154481 0.008071
C59   C     C_1   0.172787 0.749856 0.154475 0.006359
C60   C     C_R   0.599691 0.250025 0.300561 0.823756
C61   C     C_1   0.827241 0.250140 0.845525 0.006273
C62   C     C_1   0.827288 0.749805 0.845519 0.008067
C63   C     C_1   0.172717 0.250196 0.154481 0.008057
C64   C     C_R   0.299868 0.216117 0.453551 -0.175869
C65   C     C_R   0.700134 0.783886 0.546444 -0.176648
C66   C     C_R   0.699993 0.216189 0.546620 -0.175184
C67   C     C_R   0.300008 0.783810 0.453378 -0.174542
C68   C     C_R   0.799866 0.716114 0.453555 -0.176656
C69   C     C_R   0.200132 0.283883 0.546449 -0.175875
C70   C     C_R   0.199992 0.716190 0.546622 -0.174550
C71   C     C_R   0.400309 0.749974 0.699439 0.825162
C72   C     C_R   0.800007 0.283811 0.453380 -0.175193
C73   C     C_R   0.246461 0.216090 0.453599 -0.165344
C74   C     C_R   0.753541 0.783913 0.546397 -0.165770
C75   C     C_R   0.753385 0.216152 0.546597 -0.175913
C76   C     C_R   0.246616 0.783847 0.453401 -0.175069
C77   C     C_R   0.746459 0.716087 0.453603 -0.165783
C78   C     C_R   0.253538 0.283910 0.546401 -0.165352
C79   C     C_R   0.253384 0.716154 0.546599 -0.175076
C80   C     C_R   0.746615 0.283848 0.453403 -0.175922
C81   C     C_R   0.196303 0.249979 0.500040 -0.001516
C82   C     C_R   0.900335 0.750008 0.699424 0.825829
C83   C     C_R   0.803697 0.750021 0.499959 -0.001123
C84   C     C_R   0.803681 0.249967 0.499983 0.002165
C85   C     C_R   0.196320 0.750032 0.500017 0.001846
C86   C     C_R   0.696303 0.749979 0.500040 -0.001118
C87   C     C_R   0.303697 0.250021 0.499960 -0.001511
C88   C     C_R   0.303680 0.749968 0.499983 0.001844
C89   C     C_R   0.696320 0.250032 0.500017 0.002162
C90   C     C_R   0.490306 0.026718 0.452713 -0.168078
C91   C     C_R   0.509694 0.973282 0.547287 -0.168618
C92   C     C_R   0.509694 0.026712 0.547287 -0.169026
C93   C     C_R   0.099665 0.249992 0.300576 0.826177
C94   C     C_R   0.490305 0.973288 0.452713 -0.168650
C95   C     C_R   0.990306 0.526718 0.452714 -0.168621
C96   C     C_R   0.009694 0.473282 0.547286 -0.168080
C97   C     C_R   0.009695 0.526712 0.547286 -0.168652
C98   C     C_R   0.990305 0.473288 0.452714 -0.169029
C99   C     C_R   0.499999 0.946304 0.499999 -0.003078
C100  C     C_R   0.500001 0.053696 0.500000 -0.003188
C101  C     C_R   0.999999 0.446304 0.500000 -0.003185
C102  C     C_R   0.000001 0.553696 0.500000 -0.003074
C103  C     C_R   0.640242 0.250044 0.500006 0.793973
C104  C     C_R   0.099691 0.750026 0.300561 0.825162
C105  C     C_R   0.359758 0.749956 0.499994 0.794667
C106  C     C_R   0.359778 0.250034 0.499976 0.794375
C107  C     C_R   0.640222 0.749966 0.500024 0.794064
C108  C     C_R   0.140242 0.750044 0.500005 0.794670
C109  C     C_R   0.859758 0.249956 0.499994 0.793977
C110  C     C_R   0.859778 0.750034 0.499976 0.794055
C111  C     C_R   0.140222 0.249966 0.500024 0.794366
C112  C     C_R   0.500001 0.109791 0.500000 0.802966
C113  C     C_R   0.499999 0.890209 0.500000 0.803436
C114  C     C_R   0.000001 0.609791 0.500000 0.803437
C115  C     C_R   0.900309 0.249975 0.699439 0.823757
C116  C     C_R   0.999998 0.390209 0.500000 0.802967
C117  C     C_R   0.500155 0.390033 0.500262 0.743608
C118  C     C_R   0.499845 0.609967 0.499738 0.743478
C119  C     C_R   0.000155 0.890033 0.500263 0.743495
C120  C     C_R   0.999845 0.109967 0.499736 0.743628
C121  C     C_R   0.531613 0.473008 0.525208 -0.027524
C122  C     C_R   0.468386 0.526991 0.474793 -0.027685
C123  C     C_R   0.467764 0.472640 0.475888 -0.041398
C124  C     C_R   0.532235 0.527360 0.524113 -0.041228
C125  C     C_R   0.031669 0.973009 0.525135 -0.027667
C126  C     C_3   0.779486 0.274802 0.025291 -0.244379
C127  C     C_R   0.968327 0.026991 0.474868 -0.027512
C128  C     C_R   0.967707 0.972639 0.475963 -0.041248
C129  C     C_R   0.032292 0.027360 0.524036 -0.041413
C130  C     C_R   0.499421 0.553775 0.500505 -0.188389
C131  C     C_R   0.500579 0.446225 0.499496 -0.188441
C132  C     C_R   0.999421 0.053775 0.500504 -0.188460
C133  C     C_R   0.000579 0.946224 0.499496 -0.188405
C134  C     C_3   0.253142 0.797593 0.976192 0.055167
C135  C     C_3   0.738595 0.201604 0.023806 0.055411
C136  C     C_3   0.742070 0.798254 0.023657 0.054669
H1    H     H_    0.649354 0.293726 0.046322 0.152175
H2    H     H_    0.803297 0.295433 0.046528 0.152187
H3    H     H_    0.799779 0.699394 0.046743 0.152788
H4    H     H_    0.201852 0.302893 0.953256 0.152890
H5    H     H_    0.696703 0.204567 0.953472 0.152190
H6    H     H_    0.294424 0.807883 0.046503 0.152456
H7    H     H_    0.298148 0.197107 0.046744 0.152892
H8    H     H_    0.700221 0.800606 0.953257 0.152791
H9    H     H_    0.338035 0.189599 0.417263 0.168823
H10   H     H_    0.661969 0.810406 0.582729 0.168269
H11   H     H_    0.661709 0.189729 0.583051 0.167091
H12   H     H_    0.356994 0.720218 0.953656 0.151883
H13   H     H_    0.338292 0.810269 0.416946 0.167351
H14   H     H_    0.838031 0.689594 0.417270 0.168264
H15   H     H_    0.161965 0.310401 0.582737 0.168817
H16   H     H_    0.161707 0.689731 0.583054 0.167348
H17   H     H_    0.838291 0.310271 0.416949 0.167088
H18   H     H_    0.244492 0.189547 0.417339 0.172464
H19   H     H_    0.755512 0.810458 0.582653 0.172234
H20   H     H_    0.755237 0.189666 0.583008 0.166999
H21   H     H_    0.244765 0.810332 0.416988 0.167258
H22   H     H_    0.744488 0.689542 0.417347 0.172216
H23   H     H_    0.354747 0.285673 0.953626 0.153141
H24   H     H_    0.255507 0.310453 0.582661 0.172448
H25   H     H_    0.255235 0.689668 0.583012 0.167258
H26   H     H_    0.744764 0.310334 0.416991 0.167000
H27   H     H_    0.482726 0.046815 0.415744 0.171463
H28   H     H_    0.517274 0.953185 0.584256 0.170606
H29   H     H_    0.517276 0.046804 0.584256 0.170577
H30   H     H_    0.482724 0.953196 0.415744 0.171008
H31   H     H_    0.982724 0.546815 0.415745 0.170603
H32   H     H_    0.017275 0.453185 0.584255 0.171460
H33   H     H_    0.017277 0.546804 0.584255 0.171005
H34   H     H_    0.646412 0.711770 0.046379 0.153344
H35   H     H_    0.982723 0.453196 0.415745 0.170574
H36   H     H_    0.582596 0.407187 0.534772 0.064588
H37   H     H_    0.417405 0.592814 0.465230 0.064608
H38   H     H_    0.450176 0.405990 0.425750 0.018276
H39   H     H_    0.549824 0.594013 0.574247 0.018133
H40   H     H_    0.082703 0.907191 0.534622 0.064727
H41   H     H_    0.917274 0.092804 0.465407 0.064730
H42   H     H_    0.950057 0.905998 0.425870 0.018140
H43   H     H_    0.049948 0.094003 0.574123 0.018294
H44   H     H_    0.229217 0.881705 0.993043 0.061716
H45   H     H_    0.143006 0.779782 0.046344 0.151877
H46   H     H_    0.747919 0.116065 0.006951 0.061370
H47   H     H_    0.757560 0.883514 0.006537 0.062884
H48   H     H_    0.238249 0.116890 0.993455 0.062978
H49   H     H_    0.752081 0.383935 0.993050 0.061376
H50   H     H_    0.270783 0.618295 0.006957 0.061725
H51   H     H_    0.261751 0.383110 0.006545 0.062988
H52   H     H_    0.742440 0.616486 0.993463 0.062892
H53   H     H_    0.850646 0.206274 0.953678 0.152169
H54   H     H_    0.853588 0.788229 0.953620 0.153338
H55   H     H_    0.145253 0.214328 0.046374 0.153134
H56   H     H_    0.205576 0.692117 0.953497 0.152455
O1    O     O_3   0.500000 0.250030 0.500000 -0.486647
O2    O     O_R   0.112550 0.219620 0.335580 -0.637642
O3    O     O_R   0.112550 0.780380 0.335580 -0.638918
O4    O     O_R   0.887450 0.219620 0.664420 -0.640202
O5    O     O_R   0.594260 0.219670 0.543090 -0.646353
O6    O     O_R   0.405740 0.780330 0.456910 -0.646167
O7    O     O_R   0.405740 0.219670 0.456910 -0.647513
O8    O     O_R   0.594260 0.780330 0.543090 -0.648003
O9    O     O_R   0.094260 0.719670 0.543090 -0.646168
O10   O     O_R   0.905740 0.280330 0.456910 -0.646353
O11   O     O_R   0.905740 0.719670 0.456910 -0.648005
O12   O     O_3   0.500000 0.749970 0.500000 -0.486550
O13   O     O_R   0.094260 0.280330 0.543090 -0.647514
O14   O     O_R   0.508800 0.134220 0.543090 -0.643556
O15   O     O_R   0.491200 0.865780 0.456910 -0.643310
O16   O     O_R   0.491200 0.134220 0.456910 -0.642813
O17   O     O_R   0.508800 0.865780 0.543090 -0.643191
O18   O     O_R   0.008800 0.634220 0.543090 -0.643310
O19   O     O_R   0.991200 0.365780 0.456910 -0.643557
O20   O     O_R   0.991200 0.634220 0.456910 -0.643192
O21   O     O_R   0.008800 0.365780 0.543090 -0.642814
O22   O     O_R   0.448100 0.365830 0.543110 -0.629046
O23   O     O_3   0.000000 0.750030 0.500000 -0.486546
O24   O     O_R   0.551900 0.634170 0.456890 -0.629080
O25   O     O_R   0.551900 0.365830 0.456890 -0.648138
O26   O     O_R   0.448100 0.634170 0.543110 -0.648219
O27   O     O_R   0.948100 0.865830 0.543110 -0.629092
O28   O     O_R   0.051900 0.134170 0.456890 -0.629061
O29   O     O_R   0.051900 0.865830 0.456890 -0.648251
O30   O     O_R   0.948100 0.134170 0.543110 -0.648175
O31   O     O_R   0.637370 0.280400 0.456880 -0.649258
O32   O     O_R   0.362630 0.719600 0.543120 -0.648969
O33   O     O_R   0.362630 0.280400 0.543120 -0.643968
O34   O     O_3   0.000000 0.249970 0.500000 -0.486642
O35   O     O_R   0.637370 0.719600 0.456880 -0.644011
O36   O     O_R   0.137370 0.780400 0.456880 -0.648978
O37   O     O_R   0.862630 0.219600 0.543120 -0.649268
O38   O     O_R   0.862630 0.780400 0.543120 -0.644008
O39   O     O_R   0.137370 0.219600 0.456880 -0.643968
O40   O     O_R   0.448170 0.219660 0.664410 -0.625491
O41   O     O_R   0.551830 0.780340 0.335590 -0.624937
O42   O     O_R   0.551830 0.219660 0.335590 -0.623316
O43   O     O_R   0.448170 0.780340 0.664410 -0.625940
O44   O     O_R   0.948170 0.719660 0.664410 -0.624938
O45   O     O_R   0.387450 0.280380 0.664420 -0.637645
O46   O     O_R   0.051830 0.280340 0.335590 -0.625491
O47   O     O_R   0.051830 0.719660 0.335590 -0.625942
O48   O     O_R   0.948170 0.280340 0.664410 -0.623319
O49   O     O_2   0.551928 0.458715 0.614745 -0.541757
O50   O     O_2   0.448060 0.541282 0.385265 -0.541336
O51   O     O_2   0.380563 0.457346 0.470872 -0.536183
O52   O     O_2   0.619432 0.542652 0.529140 -0.536621
O53   O     O_2   0.052104 0.958726 0.614570 -0.541377
O54   O     O_2   0.947881 0.041280 0.385445 -0.541798
O55   O     O_2   0.880422 0.957339 0.471109 -0.536645
O56   O     O_R   0.612550 0.719620 0.335580 -0.637987
O57   O     O_2   0.119579 0.042658 0.528889 -0.536214
O58   O     O_2   0.286339 0.862734 0.885889 -0.547512
O59   O     O_2   0.694094 0.135375 0.114107 -0.546858
O60   O     O_2   0.702296 0.864315 0.113753 -0.547718
O61   O     O_2   0.294116 0.136029 0.886240 -0.547898
O62   O     O_2   0.805906 0.364626 0.885893 -0.546857
O63   O     O_2   0.213661 0.637266 0.114111 -0.547510
O64   O     O_2   0.205884 0.363971 0.113760 -0.547896
O65   O     O_2   0.797704 0.635685 0.886247 -0.547716
O66   O     O_R   0.612550 0.280380 0.335580 -0.640205
O67   O     O_R   0.387450 0.719620 0.664420 -0.638921
O68   O     O_R   0.887450 0.780380 0.664420 -0.637983
Zn1   Zn    Zn3+2 0.574170 0.293410 0.438410 0.972390
Zn2   Zn    Zn3+2 0.487410 0.793350 0.438420 0.992137
Zn3   Zn    Zn3+2 0.487410 0.206650 0.438420 0.991293
Zn4   Zn    Zn3+2 0.512590 0.793350 0.561580 0.989508
Zn5   Zn    Zn3+2 0.012590 0.706650 0.561580 0.992136
Zn6   Zn    Zn3+2 0.987410 0.293350 0.438420 0.991138
Zn7   Zn    Zn3+2 0.987410 0.706650 0.438420 0.989503
Zn8   Zn    Zn3+2 0.012590 0.293350 0.561580 0.991289
Zn9   Zn    Zn3+2 0.425830 0.706590 0.561590 0.973631
Zn10  Zn    Zn3+2 0.425830 0.293410 0.561590 0.987948
Zn11  Zn    Zn3+2 0.574170 0.706590 0.438410 0.987458
Zn12  Zn    Zn3+2 0.074170 0.793410 0.438410 0.973620
Zn13  Zn    Zn3+2 0.925830 0.206590 0.561590 0.972378
Zn14  Zn    Zn3+2 0.925830 0.793410 0.561590 0.987465
Zn15  Zn    Zn3+2 0.074170 0.206590 0.438410 0.987951
Zn16  Zn    Zn3+2 0.512590 0.206650 0.561580 0.991138

loop_
_geom_bond_atom_site_label_1
_geom_bond_atom_site_label_2
_ccdc_geom_bond_type
C78   C87   A    
C44   C136  S    
C104  O47   A    
C115  O4    A    
O20   Zn7   S    
C25   C93   S    
O43   Zn4   S    
C23   C82   S    
C82   O44   A    
C64   H9    S    
C33   H43   S    
C111  O39   A    
C29   H39   S    
O48   Zn8   S    
C34   H44   S    
C93   O2    A    
C31   H41   S    
C8    C43   S    
C31   C127  S    
C74   C83   A    
C4    C8    S    
C2    C12   S    
C27   H37   S    
O12   Zn4   S    
C26   O49   D    
C97   H33   S    
C48   C57   S    
C28   H38   S    
C39   O62   D    
C19   C57   T    
O1    Zn16  S    
C7    C11   S    
C87   C106  S    
C41   O64   D    
C41   H51   S    
O2    Zn15  S    
O1    Zn3   S    
O16   Zn3   S    
C4    C52   S    
C102  C114  S    
C113  O15   A    
C109  O10   A    
C30   O53   D    
C79   H25   S    
C21   C59   T    
C116  O19   A    
C52   C61   S    
O7    Zn3   S    
C107  O8    A    
C43   C52   S    
O8    Zn4   S    
C67   H13   S    
C14   C135  S    
C34   C134  S    
C114  O20   A    
C7    C24   S    
C37   H47   S    
C29   C124  S    
C3    C48   S    
C119  O29   A    
C36   O59   D    
C38   H48   S    
O22   Zn10  S    
C103  O5    A    
C7    C42   S    
C60   O66   A    
C80   C89   A    
C90   C100  A    
O40   Zn16  S    
C127  C132  A    
C25   C63   T    
C121  C124  A    
C49   O41   A    
C110  O38   A    
C103  O31   A    
O32   Zn9   S    
C14   H53   S    
C109  O37   A    
C44   C53   S    
C29   O52   D    
C23   C62   T    
C14   C52   S    
C81   C111  S    
C3    C38   S    
C6    C13   S    
C6    C41   S    
C107  O35   A    
C73   H18   S    
C118  O26   A    
O23   Zn14  S    
C120  O30   A    
C64   C73   A    
C4    C39   S    
C31   O54   D    
C117  O25   A    
O45   Zn10  S    
O47   Zn7   S    
C26   C121  S    
C71   O43   A    
O23   Zn12  S    
C85   C108  S    
C126  H2    S    
C17   C55   T    
O24   Zn11  S    
C97   C102  A    
O67   Zn9   S    
C95   C102  A    
C18   C56   T    
C77   H22   S    
C129  C132  A    
O68   Zn14  S    
O12   Zn9   S    
C101  C116  S    
C46   C135  S    
C30   C125  S    
C26   H36   S    
C12   C134  S    
C96   C101  A    
C89   C103  S    
O28   Zn15  S    
C119  O27   A    
O1    Zn10  S    
C40   O63   D    
C94   H30   S    
C69   C78   A    
C5    C9    S    
O9    Zn5   S    
O23   Zn5   S    
C117  C131  S    
O3    Zn12  S    
C92   H29   S    
C35   C134  S    
C30   H40   S    
C79   C88   A    
C27   C122  S    
C35   H6    S    
C90   C94   A    
C66   C89   A    
C16   C54   S    
C24   H3    S    
C24   C50   S    
C86   C107  S    
C68   C77   A    
C76   H21   S    
C1    C19   S    
O26   Zn9   S    
O25   Zn1   S    
C32   O55   D    
C82   O68   A    
C69   H15   S    
C13   H4    S    
C65   C86   A    
C60   O42   A    
C112  O16   A    
O36   Zn12  S    
O23   Zn7   S    
C91   C92   A    
O6    Zn2   S    
O5    Zn16  S    
O12   Zn2   S    
C15   C136  S    
C108  O36   A    
C1    O45   A    
C76   C85   A    
C3    C45   S    
O19   Zn6   S    
O1    Zn1   S    
C65   C74   A    
C8    H1    S    
O41   Zn2   S    
C50   C58   S    
C46   C55   S    
C28   C123  S    
C6    C10   S    
C20   C49   S    
C118  C130  S    
C16   H55   S    
C53   C62   S    
C12   H45   S    
O21   Zn8   S    
O13   Zn8   S    
O46   Zn6   S    
C93   O46   A    
C120  O28   A    
O37   Zn13  S    
C96   C97   A    
C10   C45   S    
C96   H32   S    
C67   C88   A    
C106  O33   A    
O39   Zn15  S    
C11   C44   S    
C34   O58   D    
C119  C133  S    
C33   O57   D    
O10   Zn6   S    
C80   H26   S    
C66   H11   S    
C72   C84   A    
O29   Zn12  S    
C73   C81   A    
C69   C81   A    
C98   H35   S    
O35   Zn11  S    
O42   Zn3   S    
O34   Zn13  S    
C15   H54   S    
O34   Zn6   S    
C77   C86   A    
C6    C54   S    
O18   Zn5   S    
C121  C131  A    
C21   C104  S    
C47   C134  S    
C10   C48   S    
O44   Zn5   S    
C33   C129  S    
C91   H28   S    
C43   H5    S    
O66   Zn1   S    
C36   H46   S    
O34   Zn15  S    
C7    C53   S    
C20   C58   T    
C127  C128  A    
O15   Zn2   S    
C27   O50   D    
C15   C53   S    
O31   Zn1   S    
C12   C51   S    
C92   C100  A    
O17   Zn4   S    
C9    C35   S    
C42   H52   S    
C18   C71   S    
C36   C135  S    
C70   H16   S    
C111  O13   A    
C83   C110  S    
C105  O6    A    
C37   C136  S    
C72   H17   S    
C64   C87   A    
C123  C131  A    
C70   C79   A    
C120  C132  S    
C68   C83   A    
C46   C126  S    
C105  O32   A    
C49   O56   A    
C2    H56   S    
C116  O21   A    
C95   H31   S    
C45   C54   S    
C99   C113  S    
C13   C48   S    
C118  O24   A    
C51   C59   S    
C9    C47   S    
C67   C76   A    
C4    C126  S    
C2    C47   S    
C43   C135  S    
C98   C101  A    
C90   H27   S    
C9    H12   S    
C125  C133  A    
C84   C109  S    
C14   C126  S    
O14   Zn16  S    
C37   O60   D    
C32   C128  S    
O30   Zn13  S    
C32   H42   S    
C122  C123  A    
C113  O17   A    
C72   C80   A    
C11   C50   S    
O11   Zn7   S    
C128  C133  A    
C124  C130  A    
C15   C24   S    
C35   C51   S    
C88   C105  S    
C1    O40   A    
C114  O18   A    
C100  C112  S    
C115  O48   A    
O56   Zn11  S    
C22   C115  S    
C94   C99   A    
C66   C75   A    
C78   H24   S    
C39   H49   S    
C104  O3    A    
C122  C130  A    
C74   H19   S    
C75   H20   S    
C42   O65   D    
O27   Zn14  S    
C117  O22   A    
C75   C84   A    
C8    C46   S    
O33   Zn10  S    
C106  O7    A    
C108  O9    A    
C68   H14   S    
C3    C16   S    
C17   C60   S    
C112  O14   A    
C2    C5    S    
O12   Zn11  S    
C125  C129  A    
C38   O61   D    
C40   H50   S    
C11   H34   S    
C54   C63   S    
C13   C16   S    
C45   H7    S    
C28   O51   D    
C5    C51   S    
C50   C136  S    
C44   H8    S    
C91   C99   A    
C65   H10   S    
C5    C40   S    
C70   C85   A    
C71   O67   A    
C10   H23   S    
C110  O11   A    
O38   Zn14  S    
O4    Zn13  S    
O34   Zn8   S    
C47   C56   S    
C22   C61   T    
C95   C98   A    
