data_mof_unit_29324.cif
_audit_creation_date              2012-12-10T17:00:00-0500
_audit_creation_method            fapswitch 2.2
_symmetry_space_group_name_H-M    P1
_symmetry_Int_Tables_number       1
_space_group_crystal_system       triclinic
_cell_length_a                    23.492649
_cell_length_b                    10.946331
_cell_length_c                    9.71893
_cell_angle_alpha                 89.944586
_cell_angle_beta                  89.490292
_cell_angle_gamma                 90.995101
_cell_volume                      2498.82624311

loop_
_atom_site_label
_atom_site_type_symbol
_atom_type_description
_atom_site_fract_x
_atom_site_fract_y
_atom_site_fract_z
_atom_type_partial_charge
C1    C     C_R   0.499259 0.265514 0.500225 0.821069
C2    C     C_R   0.968372 0.387172 0.729641 0.193872
C3    C     C_R   0.028455 0.398199 0.737757 0.193283
C4    C     C_R   0.060113 0.451696 0.627423 -0.098209
C5    C     C_R   0.030921 0.503766 0.515884 -0.069987
C6    C     C_R   0.061885 0.560022 0.406917 0.013862
C7    C     C_R   0.032890 0.613726 0.297507 -0.190010
C8    C     C_R   0.973791 0.612461 0.295525 -0.176683
C9    C     C_R   0.120430 0.452947 0.622863 0.567210
C10   C     C_R   0.121419 0.560826 0.409288 0.533697
C11   C     C_R   0.241675 0.608756 0.549008 -0.179191
C12   C     C_R   0.391354 0.500258 0.500795 0.829021
C13   C     C_R   0.301121 0.607909 0.544133 0.181431
C14   C     C_R   0.329121 0.500539 0.503506 -0.135329
C15   C     C_R   0.297542 0.393203 0.470362 0.177580
C16   C     C_R   0.237697 0.398103 0.473092 -0.124895
C17   C     C_R   0.210149 0.504833 0.512382 0.270412
C18   C     C_R   0.761210 0.453330 0.388395 -0.101380
C19   C     C_R   0.701865 0.455457 0.386245 -0.228455
C20   C     C_R   0.671454 0.502143 0.498866 -0.035684
C21   C     C_R   0.701219 0.549810 0.611860 -0.221012
C22   C     C_R   0.760526 0.550870 0.612197 -0.100045
C23   C     C_R   0.503705 0.734252 0.499289 0.877209
C24   C     C_R   0.790975 0.501221 0.501341 0.336941
C25   C     C_2   0.514995 0.937385 0.387346 0.238364
C26   C     C_2   0.515853 0.864599 0.499293 -0.374660
C27   C     C_2   0.525190 0.069186 0.404672 0.213444
C28   C     C_2   0.495722 0.132931 0.500327 0.018954
C29   C     C_2   0.465453 0.434237 0.925849 0.261470
C30   C     C_2   0.478064 0.413054 0.075618 0.301710
C31   C     C_R   0.608953 0.500689 0.499466 0.784333
C32   C     C_R   0.882744 0.555994 0.401160 0.524063
C33   C     C_R   0.878862 0.441960 0.610602 0.559150
C34   C     C_R   0.939119 0.441665 0.618460 -0.092049
C35   C     C_R   0.970759 0.500588 0.512632 -0.070295
C36   C     C_R   0.942304 0.556399 0.402237 0.021359
Cu1   Cu    Cu3+1 0.500010 0.500020 0.638630 0.935699
Cu2   Cu    Cu3+1 0.499990 0.499980 0.361370 0.954056
H1    H     H_    0.679756 0.418649 0.297813 0.159380
H2    H     H_    0.678650 0.587615 0.699208 0.155114
H3    H     H_    0.782886 0.589726 0.699198 0.153496
H4    H     H_    0.952881 0.655272 0.209564 0.184266
H5    H     H_    0.219795 0.690707 0.580046 0.145702
N1    N     N_R   0.852259 0.499185 0.503987 -0.471521
N2    N     N_R   0.149200 0.507150 0.515485 -0.459983
N3    N     N_2   0.499380 0.498660 0.846910 -0.318063
N4    N     N_2   0.499370 0.498630 0.153040 -0.308321
O1    O     O_R   0.500010 0.321960 0.617040 -0.594758
O2    O     O_2   0.846750 0.386126 0.708526 -0.510583
O3    O     O_2   0.150458 0.399061 0.723060 -0.507651
O4    O     O_2   0.151491 0.613580 0.305476 -0.546778
O5    O     O_R   0.499990 0.321920 0.382900 -0.514193
O6    O     O_R   0.417890 0.499980 0.617100 -0.568158
O7    O     O_R   0.417870 0.499940 0.382950 -0.581675
O8    O     O_R   0.500010 0.678080 0.617100 -0.566851
O9    O     O_R   0.499990 0.678040 0.382960 -0.579690
O10   O     O_R   0.582130 0.500060 0.617050 -0.585019
O11   O     O_R   0.582110 0.500020 0.382900 -0.568079
O12   O     O_2   0.855416 0.613773 0.298986 -0.547779
N5    N     N_2   0.937435 0.322485 0.834414 -0.376159
H6    H     H_    0.950244 0.339936 0.933683 0.250702
C37   C     C_3   0.928828 0.193578 0.806682 -0.599589
H7    H     H_    0.970118 0.145700 0.805782 0.190054
H8    H     H_    0.907823 0.180060 0.705719 0.248073
H9    H     H_    0.901004 0.152471 0.887892 0.229142
N6    N     N_2   0.507491 0.892296 0.251023 -0.432141
H10   H     H_    0.532468 0.821870 0.216872 0.266984
C38   C     C_3   0.451447 0.902733 0.192154 -0.678905
H11   H     H_    0.432115 0.810301 0.178537 0.229251
H12   H     H_    0.455272 0.947811 0.090077 0.223908
H13   H     H_    0.422789 0.957626 0.258497 0.222199
H14   H     H_    0.527471 0.903081 0.597975 0.157019
N7    N     N_2   0.565262 0.128903 0.314560 -0.412512
H15   H     H_    0.569079 0.088448 0.219230 0.268348
C39   C     C_3   0.620186 0.153134 0.375849 -0.688746
H16   H     H_    0.648301 0.201224 0.300276 0.227135
H17   H     H_    0.640381 0.065984 0.405479 0.222674
H18   H     H_    0.615760 0.212132 0.468106 0.222918
N8    N     N_2   0.454433 0.074626 0.588257 -0.464867
H19   H     H_    0.413280 0.101668 0.571508 0.242305
C40   C     C_3   0.468581 0.068426 0.733027 -0.689838
H20   H     H_    0.456305 0.976728 0.773372 0.234565
H21   H     H_    0.444635 0.137408 0.792182 0.226180
H22   H     H_    0.514945 0.083356 0.750113 0.230424
N9    N     N_2   0.416092 0.375417 0.871703 -0.430289
H23   H     H_    0.419830 0.339772 0.774640 0.294890
C41   C     C_3   0.363643 0.439673 0.896353 -0.647598
H24   H     H_    0.365013 0.530417 0.845108 0.251239
H25   H     H_    0.356512 0.453242 0.008292 0.223531
H26   H     H_    0.327275 0.385399 0.855015 0.231082
H27   H     H_    0.535559 0.533752 0.892412 0.163603
N10   N     N_2   0.468968 0.293435 0.129698 -0.361693
H28   H     H_    0.488513 0.226817 0.072095 0.228823
C42   C     C_3   0.410827 0.260046 0.165048 -0.581974
H29   H     H_    0.388169 0.224046 0.073489 0.214774
H30   H     H_    0.387629 0.339204 0.207142 0.254312
H31   H     H_    0.410977 0.186973 0.244175 0.213481
N11   N     N_2   0.056911 0.356481 0.857624 -0.379917
H32   H     H_    0.042110 0.274645 0.897625 0.249479
C43   C     C_3   0.065734 0.449412 0.961580 -0.594051
H33   H     H_    0.024291 0.480191 0.003755 0.190024
H34   H     H_    0.089419 0.529254 0.917575 0.246380
H35   H     H_    0.091128 0.411549 0.046965 0.237767
H36   H     H_    0.504304 0.583342 0.107752 0.154829
H37   H     H_    0.055767 0.657197 0.212921 0.182816
N12   N     N_2   0.332686 0.714654 0.582339 -0.424029
H38   H     H_    0.313370 0.764827 0.658901 0.252879
C44   C     C_3   0.350782 0.790660 0.467682 -0.679509
H39   H     H_    0.313184 0.828867 0.415224 0.224758
H40   H     H_    0.376154 0.737408 0.392701 0.243450
H41   H     H_    0.377860 0.867356 0.505746 0.234946
N13   N     N_2   0.326554 0.282882 0.435655 -0.438175
H42   H     H_    0.366942 0.274823 0.474627 0.227007
C45   C     C_3   0.295290 0.167898 0.428663 -0.709326
H43   H     H_    0.325121 0.093020 0.404753 0.211784
H44   H     H_    0.263598 0.170406 0.344719 0.242747
H45   H     H_    0.274078 0.147694 0.528947 0.240021
H46   H     H_    0.211555 0.319560 0.446494 0.149329
H47   H     H_    0.784079 0.414133 0.302369 0.154322

loop_
_geom_bond_atom_site_label_1
_geom_bond_atom_site_label_2
_ccdc_geom_bond_type
N6    C38   S    
C41   H24   S    
C9    N2    A    
C26   H14   S    
N7    H15   S    
C35   C36   A    
N13   C45   S    
C45   H43   S    
C23   O9    A    
N9    H23   S    
C37   H7    S    
C18   C24   A    
C32   C36   A    
C31   O11   A    
Cu1   Cu2   S    
C17   N2    S    
C18   C19   A    
C1    O5    A    
C5    C6    A    
C2    N5    S    
C22   H3    S    
Cu2   O5    S    
N12   H38   S    
C33   O2    S    
C15   C16   A    
C44   H39   S    
N5    C37   S    
C34   C35   A    
C8    C36   A    
C23   C26   S    
C28   N8    S    
N10   H28   S    
C37   H8    S    
Cu2   O11   S    
C19   C20   A    
C38   H11   S    
C1    C28   S    
C7    H37   S    
C11   H5    S    
C29   N9    S    
C12   O6    A    
Cu1   O6    S    
C2    C34   A    
N6    H10   S    
C13   C14   A    
N7    C39   S    
C10   O4    S    
C43   H34   S    
N13   H42   S    
C40   H21   S    
C40   H20   S    
N9    C41   S    
C25   N6    S    
C30   N4    D    
C7    C8    A    
C30   N10   S    
N8    C40   S    
C4    C5    A    
N3    H27   S    
C42   H31   S    
C25   C26   D    
C43   H35   S    
N5    H6    S    
C39   H16   S    
C29   C30   S    
C16   H46   S    
Cu2   O7    S    
C10   N2    A    
N10   C42   S    
C33   C34   A    
C32   N1    A    
Cu1   O1    S    
C42   H30   S    
C39   H17   S    
Cu2   N4    S    
C19   H1    S    
C12   C14   S    
N11   C43   S    
C41   H25   S    
C24   N1    S    
C22   C24   A    
C3    C4    A    
C40   H22   S    
C11   C17   A    
N4    H36   S    
C37   H9    S    
C33   N1    A    
C15   N13   S    
C9    O3    S    
C8    H4    S    
C13   N12   S    
C6    C10   A    
C45   H44   S    
C1    O1    A    
C23   O8    A    
C6    C7    A    
C25   C27   S    
C44   H41   S    
C29   N3    D    
C31   O10   A    
C2    C3    A    
C4    C9    A    
C27   N7    S    
C11   C13   A    
C3    N11   S    
C16   C17   A    
C21   H2    S    
N12   C44   S    
C38   H13   S    
C5    C35   A    
C43   H33   S    
C44   H40   S    
C42   H29   S    
C39   H18   S    
Cu1   O10   S    
C45   H45   S    
N8    H19   S    
Cu1   O8    S    
Cu2   O9    S    
C20   C21   A    
C38   H12   S    
N11   H32   S    
C41   H26   S    
C27   C28   D    
C14   C15   A    
C32   O12   S    
Cu1   N3    S    
C21   C22   A    
C18   H47   S    
C12   O7    A    
C20   C31   S    
