data_mof_unit_38715.cif
_audit_creation_date              2012-12-11T16:08:50-0500
_audit_creation_method            fapswitch 2.2
_symmetry_space_group_name_H-M    P1
_symmetry_Int_Tables_number       1
_space_group_crystal_system       triclinic
_cell_length_a                    12.980639
_cell_length_b                    13.274663
_cell_length_c                    27.725775
_cell_angle_alpha                 95.021781
_cell_angle_beta                  90.077027
_cell_angle_gamma                 119.353805
_cell_volume                      4142.76269841

loop_
_atom_site_label
_atom_site_type_symbol
_atom_type_description
_atom_site_fract_x
_atom_site_fract_y
_atom_site_fract_z
_atom_type_partial_charge
C1    C     C_R   0.627940 0.895148 0.427479 0.547529
C2    C     C_R   0.570546 0.271489 0.221536 0.300014
C3    C     C_R   0.561317 0.255354 0.271099 -0.086906
C4    C     C_R   0.661561 0.313215 0.303019 -0.007876
C5    C     C_R   0.682319 0.342332 0.203730 0.046004
C6    C     C_1   0.693147 0.366124 0.153659 -0.013273
C7    C     C_1   0.649678 0.293533 0.353489 -0.054662
C8    C     C_1   0.702878 0.394174 0.112975 -0.004164
C9    C     C_R   0.206087 0.759056 0.346733 -0.129044
C10   C     C_R   0.195971 0.755055 0.296899 0.009579
C11   C     C_R   0.182319 0.750579 0.196454 0.012669
C12   C     C_R   0.600964 0.221758 0.440499 0.544854
C13   C     C_R   0.198655 0.666867 0.217328 -0.129640
C14   C     C_R   0.203483 0.667975 0.267388 -0.132057
C15   C     C_R   0.164922 0.742249 0.146669 -0.125706
C16   C     C_R   0.129518 0.813981 0.126235 -0.001528
C17   C     C_R   0.198604 0.939268 0.356461 -0.136750
C18   C     C_R   0.180587 0.932377 0.306213 0.012638
C19   C     C_R   0.183718 0.842160 0.276356 0.062199
C20   C     C_R   0.164209 0.016068 0.285058 -0.134425
C21   C     C_R   0.149331 0.009261 0.234704 -0.119632
C22   C     C_R   0.154166 0.920717 0.204924 0.029855
C23   C     C_R   0.269943 0.876239 0.425312 0.546615
C24   C     C_R   0.174571 0.838629 0.225895 0.064238
C25   C     C_R   0.131301 0.907708 0.154854 -0.117831
C26   C     C_R   0.215876 0.854820 0.376538 -0.003662
C27   C     C_R   0.753702 0.936061 0.357877 -0.128969
C28   C     C_R   0.759602 0.926275 0.307971 0.012852
C29   C     C_R   0.762279 0.915335 0.207282 0.013424
C30   C     C_R   0.853811 0.009605 0.235557 -0.127367
C31   C     C_R   0.853432 0.014145 0.285753 -0.126700
C32   C     C_R   0.766291 0.907509 0.157363 -0.124463
C33   C     C_R   0.685614 0.805292 0.129104 -0.003574
C34   C     C_R   0.627565 0.898288 0.564652 0.546935
C35   C     C_R   0.562959 0.758617 0.352268 -0.133668
C36   C     C_R   0.570295 0.744446 0.302106 0.015991
C37   C     C_R   0.666627 0.831293 0.279785 0.063172
C38   C     C_R   0.480231 0.648854 0.273589 -0.130649
C39   C     C_R   0.485511 0.639661 0.223149 -0.132611
C40   C     C_R   0.579397 0.727432 0.200667 0.016422
C41   C     C_R   0.669120 0.824723 0.229224 0.064001
C42   C     C_R   0.588943 0.717495 0.150433 -0.135230
C43   C     C_R   0.651652 0.857871 0.379716 -0.004850
C44   C     C_R   0.741803 0.301323 0.651362 -0.138983
C45   C     C_R   0.603247 0.227633 0.578343 0.545328
C46   C     C_R   0.755654 0.324573 0.701839 0.006592
C47   C     C_R   0.771009 0.352631 0.803723 0.005679
C48   C     C_R   0.861674 0.347865 0.777908 -0.140636
C49   C     C_R   0.853288 0.332378 0.727237 -0.140542
C50   C     C_R   0.779468 0.371443 0.854358 -0.138353
C51   C     C_R   0.688782 0.378721 0.879258 -0.005506
C52   C     C_R   0.560015 0.311980 0.652540 -0.135166
C53   C     C_R   0.569200 0.328982 0.702678 0.001442
C54   C     C_R   0.666226 0.333316 0.727605 0.057085
C55   C     C_R   0.478565 0.333875 0.728217 -0.143964
C56   C     C_R   0.271783 0.879480 0.563437 0.547114
C57   C     C_R   0.482391 0.340123 0.778486 -0.143115
C58   C     C_R   0.578625 0.345029 0.803606 0.001298
C59   C     C_R   0.672003 0.343506 0.778325 0.056276
C60   C     C_R   0.585404 0.357307 0.853766 -0.132975
C61   C     C_R   0.640492 0.288695 0.627043 -0.006817
C62   C     C_1   0.222150 0.863040 0.610171 -0.012727
C63   C     C_R   0.077224 0.746293 0.718058 -0.103669
C64   C     C_R   0.062233 0.736227 0.767674 -0.103674
C65   C     C_R   0.232696 0.928063 0.786017 -0.104588
C66   C     C_R   0.247636 0.938172 0.736369 -0.104486
C67   C     C_1   0.632355 0.267790 0.394518 -0.012490
C68   C     C_R   0.170283 0.847105 0.702287 0.036048
C69   C     C_R   0.140545 0.826600 0.801763 0.036387
C70   C     C_1   0.123689 0.814307 0.852658 -0.057841
C71   C     C_1   0.193318 0.854160 0.651573 -0.057562
C72   C     C_1   0.100328 0.797168 0.894256 -0.013418
C73   C     C_1   0.647407 0.860918 0.609015 -0.014548
C74   C     C_R   0.693292 0.905217 0.735016 -0.104120
C75   C     C_R   0.703738 0.888448 0.783369 -0.102036
C76   C     C_R   0.678718 0.697734 0.758183 -0.106435
C77   C     C_R   0.668044 0.714511 0.709598 -0.105286
C78   C     C_R   0.772332 0.384883 0.285228 -0.123894
C79   C     C_R   0.675434 0.818528 0.697997 0.036786
C80   C     C_R   0.696243 0.784753 0.795134 0.036468
C81   C     C_1   0.709950 0.770262 0.845127 -0.058202
C82   C     C_1   0.661220 0.837366 0.648670 -0.057780
C83   C     C_1   0.724911 0.761873 0.887175 -0.011080
C84   C     C_R   0.065798 0.773451 0.078928 0.549393
C85   C     C_R   0.716940 0.441420 0.067286 0.547326
C86   C     C_R   0.720590 0.782780 0.081087 0.558167
C87   C     C_R   0.056524 0.766229 0.941227 0.539982
C88   C     C_R   0.710250 0.434128 0.928942 0.538026
C89   C     C_R   0.782636 0.399348 0.235749 -0.160741
C90   C     C_R   0.748480 0.754409 0.936885 0.563226
Cr1   Cr    Cr6+3 0.416430 0.829200 0.492370 1.021225
Cr2   Cr    Cr6+3 0.674630 0.087020 0.504170 1.021109
Cr3   Cr    Cr6+3 0.408920 0.083740 0.503490 1.020883
Cr4   Cr    Cr6+3 0.914010 0.832750 0.013970 1.018805
Cr5   Cr    Cr6+3 0.922310 0.578600 0.003000 1.017349
Cr6   Cr    Cr6+3 0.656280 0.574630 0.003870 1.022694
H1    H     H_    0.850575 0.429260 0.309507 0.123106
H2    H     H_    0.133478 0.072743 0.219080 0.090270
H3    H     H_    0.161618 0.085849 0.307430 0.099150
H4    H     H_    0.205331 0.012865 0.379442 0.122107
H5    H     H_    0.840034 0.976854 0.141106 0.131560
H6    H     H_    0.823513 0.011660 0.379045 0.132243
H7    H     H_    0.926549 0.078779 0.218852 0.097426
H8    H     H_    0.924909 0.087654 0.307162 0.101509
H9    H     H_    0.525894 0.638953 0.128580 0.122921
H10   H     H_    0.416093 0.564391 0.201758 0.093937
H11   H     H_    0.405843 0.581441 0.290277 0.095625
H12   H     H_    0.868712 0.456102 0.222520 0.121967
H13   H     H_    0.484703 0.697150 0.369264 0.121146
H14   H     H_    0.859118 0.387199 0.873985 0.129285
H15   H     H_    0.805129 0.285170 0.631599 0.127422
H16   H     H_    0.938427 0.355168 0.796888 0.113793
H17   H     H_    0.922740 0.326024 0.707944 0.112961
H18   H     H_    0.514119 0.361107 0.872686 0.138147
H19   H     H_    0.410963 0.342672 0.797739 0.113860
H20   H     H_    0.403322 0.329827 0.709282 0.113183
H21   H     H_    0.482914 0.304965 0.633892 0.135760
H22   H     H_    0.017615 0.674931 0.692114 0.113612
H23   H     H_    0.990198 0.657555 0.779472 0.117544
H24   H     H_    0.293329 0.998673 0.811998 0.114894
H25   H     H_    0.320634 0.016148 0.724564 0.120122
H26   H     H_    0.698669 0.985764 0.726487 0.117422
H27   H     H_    0.717835 0.956449 0.811586 0.116833
H28   H     H_    0.673411 0.617360 0.766903 0.121637
H29   H     H_    0.653728 0.646658 0.681285 0.113348
H30   H     H_    0.475852 0.197663 0.284597 0.124281
H31   H     H_    0.166381 0.671482 0.124508 0.131911
H32   H     H_    0.217699 0.692391 0.361830 0.131116
H33   H     H_    0.204133 0.598631 0.194965 0.102745
H34   H     H_    0.214306 0.601526 0.283038 0.098293
H35   H     H_    0.105820 0.964535 0.138937 0.120686
O1    O     O_R   0.296680 0.802170 0.437540 -0.524820
O2    O     O_R   0.662610 0.183990 0.557860 -0.502059
O3    O     O_R   0.500730 0.201280 0.562180 -0.520125
O4    O     O_R   0.312500 0.978850 0.548170 -0.494644
O5    O     O_3   0.499990 0.999990 0.500010 -0.241936
O6    O     O_R   0.820790 0.857990 0.068830 -0.519880
O7    O     O_R   0.016700 0.827330 0.062850 -0.502190
O8    O     O_R   0.041970 0.673520 0.060040 -0.517390
O9    O     O_R   0.817980 0.483660 0.048840 -0.493876
O10   O     O_R   0.637200 0.461990 0.052510 -0.506427
O11   O     O_R   0.664790 0.681920 0.057970 -0.495571
O12   O     O_R   0.525380 0.838530 0.443500 -0.503475
O13   O     O_R   0.815840 0.852920 0.961840 -0.502994
O14   O     O_R   0.012100 0.822630 0.963670 -0.510799
O15   O     O_R   0.037010 0.668460 0.953040 -0.507687
O16   O     O_R   0.813390 0.478970 0.949660 -0.503369
O17   O     O_R   0.632250 0.456930 0.945520 -0.526989
O18   O     O_R   0.660200 0.677230 0.958780 -0.491154
O19   O     O_3   0.830870 0.661990 0.006950 -0.265701
O20   O     O_R   0.702130 0.995190 0.446810 -0.519834
O21   O     O_R   0.661770 0.181390 0.458760 -0.494291
O22   O     O_R   0.499820 0.198480 0.455280 -0.511190
O23   O     O_R   0.311660 0.976250 0.449080 -0.499953
O24   O     O_R   0.297580 0.804960 0.544440 -0.506988
O25   O     O_R   0.526220 0.841130 0.542590 -0.494366
O26   O     O_R   0.703030 0.997990 0.553710 -0.510599
O27   O     O_3   0.471741 0.213268 0.190009 -0.553235
C91   C     C_3   0.402193 0.267811 0.196285 -0.125002
H36   H     H_    0.453353 0.361240 0.189931 0.115972
H37   H     H_    0.365337 0.258540 0.232854 0.102681
H38   H     H_    0.326346 0.224759 0.169213 0.138262

loop_
_geom_bond_atom_site_label_1
_geom_bond_atom_site_label_2
_ccdc_geom_bond_type
C39   H10   S    
C66   C68   A    
C87   O15   A    
C12   O21   A    
C60   H18   S    
Cr2   O2    S    
C42   H9    S    
C50   H14   S    
C12   O22   A    
Cr3   O5    S    
C72   C87   S    
C3    H30   S    
C62   C71   T    
C57   H19   S    
C53   C54   A    
C4    C78   A    
C5    C6    S    
C46   C49   A    
Cr5   O9    S    
C64   H23   S    
C75   H27   S    
C33   C42   A    
Cr3   O23   S    
C8    C85   S    
C29   C32   A    
C52   C61   A    
C56   O24   A    
C91   H36   S    
C14   H34   S    
C38   C39   A    
C55   H20   S    
C58   C60   A    
C15   C16   A    
C11   C24   A    
C16   C84   S    
C18   C19   A    
C23   C26   S    
C45   C61   S    
C38   H11   S    
C86   O6    A    
Cr6   O10   S    
C11   C15   A    
C1    C43   S    
Cr1   O5    S    
C35   C36   A    
C84   O8    A    
C22   C25   A    
C30   H7    S    
Cr2   O21   S    
C91   H37   S    
C49   H17   S    
C35   C43   A    
C75   C80   A    
C1    O20   A    
C18   C20   A    
C35   H13   S    
C52   H21   S    
Cr4   O14   S    
C40   C42   A    
C84   O7    A    
C15   H31   S    
C21   C22   A    
Cr2   O5    S    
Cr5   O15   S    
C78   H1    S    
C90   O18   A    
C81   C83   T    
Cr6   O11   S    
C44   C46   A    
C9    C26   A    
C50   C51   A    
C47   C50   A    
Cr1   O12   S    
C54   C59   A    
C53   C55   A    
C78   C89   A    
Cr6   O17   S    
C12   C67   S    
C91   H38   S    
C9    H32   S    
C74   C75   A    
C76   H28   S    
Cr5   O16   S    
C76   C77   A    
Cr3   O3    S    
C10   C14   A    
C85   O10   A    
C39   C40   A    
C63   H22   S    
C6    C8    T    
Cr1   O1    S    
C4    C7    S    
C58   C59   A    
C47   C59   A    
C88   O16   A    
Cr2   O26   S    
C33   C86   S    
C44   H15   S    
Cr1   O24   S    
C29   C30   A    
C1    O12   A    
C47   C48   A    
C74   H26   S    
C10   C19   A    
C2    O27   S    
Cr6   O19   S    
C46   C54   A    
Cr2   O20   S    
C66   H25   S    
C17   C18   A    
C88   O17   A    
C77   C79   A    
Cr5   O19   S    
C45   O3    A    
C64   C69   A    
C85   O9    A    
C40   C41   A    
C48   H16   S    
C74   C79   A    
C55   C57   A    
O27   C91   S    
Cr4   O7    S    
C22   C24   A    
C2    C5    A    
C17   C26   A    
C3    C4    A    
C25   H35   S    
C73   C82   T    
C56   O4    A    
C77   H29   S    
C52   C53   A    
C86   O11   A    
C9    C10   A    
C16   C25   A    
C83   C90   S    
C63   C68   A    
C48   C49   A    
C87   O14   A    
C29   C41   A    
C45   O2    A    
C28   C31   A    
C76   C80   A    
C80   C81   S    
Cr3   O4    S    
C51   C88   S    
C79   C82   S    
C34   O25   A    
C44   C61   A    
Cr4   O19   S    
C27   H6    S    
Cr5   O8    S    
Cr4   O13   S    
C32   C33   A    
Cr3   O22   S    
C2    C3    A    
Cr1   O25   S    
C31   H8    S    
C21   H2    S    
C11   C13   A    
C57   C58   A    
C30   C31   A    
C20   H3    S    
C28   C37   A    
C68   C71   S    
C65   C69   A    
Cr6   O18   S    
C89   H12   S    
C36   C38   A    
C65   H24   S    
C23   O1    A    
C19   C24   A    
C56   C62   S    
C37   C41   A    
C69   C70   S    
C17   H4    S    
C90   O13   A    
C34   C73   S    
C7    C67   T    
C63   C64   A    
C34   O26   A    
C27   C43   A    
C20   C21   A    
C36   C37   A    
C65   C66   A    
C23   O23   A    
C27   C28   A    
Cr4   O6    S    
C13   H33   S    
C32   H5    S    
C70   C72   T    
C51   C60   A    
C13   C14   A    
C5    C89   A    
