data_mof_unit_50656.cif
_audit_creation_date              2012-12-10T17:32:56-0500
_audit_creation_method            fapswitch 2.2
_symmetry_space_group_name_H-M    P1
_symmetry_Int_Tables_number       1
_space_group_crystal_system       triclinic
_cell_length_a                    12.361072
_cell_length_b                    13.276333
_cell_length_c                    14.278306
_cell_angle_alpha                 93.36582
_cell_angle_beta                  107.710899
_cell_angle_gamma                 117.067163
_cell_volume                      1933.24756271

loop_
_atom_site_label
_atom_site_type_symbol
_atom_type_description
_atom_site_fract_x
_atom_site_fract_y
_atom_site_fract_z
_atom_type_partial_charge
C1    C     C_R   0.650999 0.714055 0.508918 0.779900
C2    C     C_R   0.881508 0.547147 0.924454 0.093485
C3    C     C_R   0.837868 0.572949 0.998848 0.170071
C4    C     C_R   0.997917 0.539726 0.954015 0.068321
C5    C     C_R   0.059238 0.542962 0.056816 0.064876
C6    C     C_R   0.014487 0.571321 0.129172 -0.226305
C7    C     C_R   0.906679 0.587292 0.100456 -0.235593
C8    C     C_R   0.056115 0.530999 0.884674 -0.232028
C9    C     C_R   0.165709 0.517570 0.913869 -0.237943
C10   C     C_R   0.219001 0.509182 0.012107 0.167799
C11   C     C_R   0.164883 0.519794 0.084063 0.088815
C12   C     C_R   0.619665 0.518465 0.686815 0.796630
C13   C     C_R   0.325991 0.490030 0.039282 -0.201294
C14   C     C_R   0.379178 0.480092 0.137078 -0.201168
C15   C     C_R   0.216156 0.503743 0.180379 -0.249500
C16   C     C_R   0.139454 0.966363 0.363639 -0.191812
C17   C     C_R   0.249646 0.162323 0.464122 -0.050694
C18   C     C_R   0.733124 0.920867 0.577288 -0.185467
C19   C     C_R   0.825088 0.037584 0.598069 -0.144265
C20   C     C_R   0.925812 0.072243 0.561807 -0.181521
C21   C     C_R   0.933804 0.990103 0.500141 0.079467
C22   C     C_R   0.830903 0.872997 0.469381 0.074740
C23   C     C_R   0.345424 0.285338 0.485204 0.804817
C24   C     C_R   0.039792 0.020511 0.467151 0.075832
C25   C     C_R   0.035464 0.937074 0.396938 0.167856
C26   C     C_R   0.926072 0.826356 0.358739 -0.241554
C27   C     C_R   0.824346 0.795216 0.393126 -0.195539
C28   C     C_R   0.150726 0.131446 0.502418 -0.254261
C29   C     C_R   0.245839 0.078970 0.396511 -0.194443
C30   C     C_R   0.736719 0.837343 0.515301 -0.110899
C31   C     C_R   0.257543 0.688009 0.661309 -0.313924
C32   C     C_R   0.654910 0.341576 0.364268 0.077668
C33   C     C_R   0.733085 0.307543 0.334682 -0.253193
C34   C     C_R   0.382643 0.484752 0.313490 0.792991
C35   C     C_R   0.868582 0.367914 0.385850 -0.180723
C36   C     C_R   0.928640 0.464165 0.467989 -0.009939
C37   C     C_R   0.844349 0.495899 0.495328 0.236611
C38   C     C_R   0.068285 0.529303 0.523855 -0.061011
C39   C     C_R   0.121036 0.625775 0.605636 0.105285
C40   C     C_R   0.037493 0.658740 0.630578 0.071550
C41   C     C_R   0.902102 0.591998 0.576316 -0.202389
C42   C     C_R   0.159056 0.502956 0.501994 0.029412
C43   C     C_R   0.339996 0.657200 0.636027 0.073686
C44   C     C_R   0.692071 0.535935 0.794490 -0.056278
C45   C     C_R   0.324200 0.486937 0.208061 -0.051673
C46   C     C_R   0.724977 0.583333 0.970682 -0.202736
C47   C     C_R   0.653048 0.565921 0.869049 -0.194795
C48   C     C_R   0.804351 0.525348 0.822568 -0.269828
Cu1   Cu    Cu3+1 0.416420 0.526630 0.522910 0.930206
Cu2   Cu    Cu3+1 0.583580 0.473370 0.477090 0.918441
H1    H     H_    0.875451 0.608753 0.158151 0.136943
H2    H     H_    0.368923 0.483385 0.985010 0.131264
H3    H     H_    0.321995 0.102001 0.365958 0.148370
H4    H     H_    0.918953 0.763438 0.301887 0.136962
H5    H     H_    0.136537 0.903141 0.309874 0.137845
H6    H     H_    0.162511 0.196814 0.559049 0.146769
H7    H     H_    0.660836 0.895730 0.612025 0.152288
H8    H     H_    0.993841 0.164305 0.581688 0.129245
H9    H     H_    0.820713 0.101432 0.645285 0.144158
H10   H     H_    0.739311 0.710235 0.356949 0.173349
H11   H     H_    0.444326 0.705786 0.679009 0.118646
H12   H     H_    0.171770 0.501713 0.234964 0.149890
H13   H     H_    0.302780 0.760753 0.724934 0.131788
H14   H     H_    0.127389 0.431977 0.441078 0.119342
H15   H     H_    0.549978 0.294089 0.324011 0.120509
H16   H     H_    0.923599 0.337259 0.359380 0.133660
H17   H     H_    0.688416 0.233898 0.271755 0.144642
H18   H     H_    0.842806 0.616820 0.599419 0.229118
H19   H     H_    0.463465 0.467807 0.157189 0.152104
H20   H     H_    0.207620 0.511744 0.858577 0.146495
H21   H     H_    0.692022 0.604386 0.027299 0.130377
H22   H     H_    0.566552 0.574902 0.848918 0.149841
H23   H     H_    0.828191 0.497165 0.763315 0.160693
H24   H     H_    0.063262 0.585516 0.209367 0.146575
H25   H     H_    0.021721 0.537901 0.807680 0.153671
N1    N     N_R   0.290690 0.566960 0.557640 -0.178349
N2    N     N_R   0.709100 0.433710 0.442970 -0.198836
O1    O     O_R   0.545970 0.684450 0.528810 -0.577406
O2    O     O_R   0.687130 0.639470 0.490120 -0.605856
O3    O     O_R   0.519670 0.535100 0.660030 -0.584913
O4    O     O_R   0.660830 0.490120 0.621340 -0.602165
O5    O     O_R   0.312870 0.360530 0.509880 -0.585714
O6    O     O_R   0.454030 0.315550 0.471190 -0.583798
O7    O     O_R   0.339170 0.509880 0.378660 -0.584866
O8    O     O_R   0.480330 0.464900 0.339970 -0.595372
C49   C     C_3   0.094965 0.765940 0.715437 -0.397745
C50   C     C_3   0.999729 0.801978 0.732305 -0.843683
H26   H     H_    0.948590 0.819722 0.662380 0.260499
H27   H     H_    0.927778 0.733873 0.757061 0.247947
H28   H     H_    0.055187 0.883027 0.792786 0.247383
H29   H     H_    0.144801 0.750928 0.787796 0.206314
H30   H     H_    0.169287 0.841746 0.698597 0.214335

loop_
_geom_bond_atom_site_label_1
_geom_bond_atom_site_label_2
_ccdc_geom_bond_type
C50   H26   S    
C23   O5    A    
C17   C29   A    
C35   C36   A    
C4    C8    A    
Cu2   O2    S    
C28   H6    S    
C43   H11   S    
C26   C27   A    
C17   C23   S    
C31   C43   A    
Cu1   O7    S    
C36   C37   A    
C5    C11   A    
C3    C7    A    
C27   H10   S    
C38   C39   A    
C16   C25   A    
Cu1   O1    S    
C18   C19   A    
C40   C49   S    
Cu2   O8    S    
C32   N2    A    
C11   C15   A    
C19   C20   A    
C8    C9    A    
C18   C30   A    
C41   H18   S    
C9    C10   A    
C44   C47   A    
C21   C22   A    
C1    O1    A    
C34   O7    A    
C26   H4    S    
Cu2   O6    S    
C6    H24   S    
C14   C45   A    
C31   H13   S    
C24   C25   A    
C39   C40   A    
C49   C50   S    
C35   H16   S    
C2    C48   A    
C25   C26   A    
C37   N2    A    
C8    H25   S    
C34   O8    A    
Cu1   O5    S    
C2    C4    A    
C13   H2    S    
C18   H7    S    
Cu1   N1    S    
C34   C45   S    
C9    H20   S    
C46   H21   S    
C23   O6    A    
C40   C41   A    
C22   C27   A    
C50   H27   S    
C1    O2    A    
C14   H19   S    
C50   H28   S    
C15   C45   A    
C20   H8    S    
Cu2   N2    S    
C42   H14   S    
C33   H17   S    
C43   N1    A    
C46   C47   A    
C22   C30   A    
C17   C28   A    
C48   H23   S    
C24   C28   A    
C4    C5    A    
C10   C13   A    
C38   C42   A    
C6    C7    A    
C3    C46   A    
C42   N1    A    
Cu1   O3    S    
C49   H29   S    
C19   H9    S    
C32   C33   A    
C36   C38   A    
C2    C3    A    
C16   C29   A    
C16   H5    S    
C7    H1    S    
C12   C44   S    
C49   H30   S    
C5    C6    A    
C29   H3    S    
C12   O3    A    
C1    C30   S    
C33   C35   A    
C15   H12   S    
C31   C39   A    
C12   O4    A    
C37   C41   A    
C47   H22   S    
C10   C11   A    
C20   C21   A    
Cu1   Cu2   S    
C21   C24   A    
C13   C14   A    
C44   C48   A    
Cu2   O4    S    
C32   H15   S    
