data_mof_unit_28672.cif
_audit_creation_date              2012-12-11T16:27:30-0500
_audit_creation_method            fapswitch 2.2
_symmetry_space_group_name_H-M    P1
_symmetry_Int_Tables_number       1
_space_group_crystal_system       triclinic
_cell_length_a                    21.624997
_cell_length_b                    7.001995
_cell_length_c                    14.791319
_cell_angle_alpha                 90.007563
_cell_angle_beta                  106.231631
_cell_angle_gamma                 90.002814
_cell_volume                      2150.39922668

loop_
_atom_site_label
_atom_site_type_symbol
_atom_type_description
_atom_site_fract_x
_atom_site_fract_y
_atom_site_fract_z
_atom_type_partial_charge
O1    O     O_R   0.835850 0.638310 0.002120 -0.537276
O2    O     O_R   0.164150 0.361690 0.997880 -0.538407
O3    O     O_R   0.664150 0.138310 0.997880 -0.537280
O4    O     O_R   0.335850 0.861690 0.002120 -0.538404
O5    O     O_R   0.717530 0.306070 0.861970 -0.538315
O6    O     O_R   0.282470 0.693930 0.138030 -0.538131
O7    O     O_R   0.782470 0.806070 0.138030 -0.538296
O8    O     O_R   0.217530 0.193930 0.861970 -0.538147
C1    C     C_R   0.705877 0.477475 0.824570 0.685164
C2    C     C_R   0.294755 0.523253 0.175284 0.686437
C3    C     C_R   0.794128 0.977507 0.175429 0.685183
C4    C     C_R   0.205242 0.023230 0.824713 0.686313
O9    O     O_R   0.838690 0.308440 0.993250 -0.540604
O10   O     O_R   0.161310 0.691560 0.006750 -0.539812
O11   O     O_R   0.661310 0.808440 0.006750 -0.540589
O12   O     O_R   0.338690 0.191560 0.993250 -0.539786
O13   O     O_R   0.786170 0.140510 0.130090 -0.538211
O14   O     O_R   0.213830 0.859490 0.869910 -0.537093
O15   O     O_R   0.713830 0.640510 0.869910 -0.538204
O16   O     O_R   0.286170 0.359490 0.130090 -0.537068
C5    C     C_R   0.865271 0.476826 0.998988 0.689456
C6    C     C_R   0.134727 0.522261 0.000987 0.689646
C7    C     C_R   0.634732 0.976822 0.001030 0.689439
C8    C     C_R   0.365272 0.022276 0.999017 0.689685
O17   O     O_3   0.732630 0.472520 0.044740 -0.368681
O18   O     O_3   0.267370 0.527480 0.955260 -0.369094
O19   O     O_3   0.767370 0.972520 0.955260 -0.368690
O20   O     O_3   0.232630 0.027480 0.044740 -0.369089
V1    V     V_3+5 0.753220 0.196740 0.991700 1.437272
V2    V     V_3+5 0.246780 0.803260 0.008300 1.438702
V3    V     V_3+5 0.746780 0.696740 0.008300 1.437313
V4    V     V_3+5 0.253220 0.303260 0.991700 1.438721
C9    C     C_R   0.531354 0.959006 0.827488 -0.370860
C10   C     C_R   0.467972 0.990664 0.172862 -0.375676
C11   C     C_R   0.968644 0.459900 0.172567 -0.370843
C12   C     C_R   0.032051 0.489200 0.827188 -0.375922
C13   C     C_R   0.482988 0.965493 0.742167 0.581228
C14   C     C_R   0.516426 0.994392 0.258134 0.590543
C15   C     C_R   0.017008 0.466684 0.257884 0.581505
C16   C     C_R   0.983599 0.492429 0.741904 0.590095
C17   C     C_R   0.418835 0.986137 0.741454 0.552573
C18   C     C_R   0.580887 0.001167 0.258622 0.545634
C19   C     C_R   0.081160 0.487355 0.258584 0.552299
C20   C     C_R   0.919139 0.499343 0.741394 0.546404
C21   C     C_R   0.402641 0.000534 0.826055 -0.366233
C22   C     C_R   0.597285 0.997760 0.173945 -0.365673
C23   C     C_R   0.097354 0.501426 0.173972 -0.366298
C24   C     C_R   0.902733 0.496575 0.826068 -0.365769
C25   C     C_R   0.450692 0.997148 0.913507 -0.008884
C26   C     C_R   0.549184 0.993581 0.086554 -0.006441
C27   C     C_R   0.049307 0.497624 0.086521 -0.008818
C28   C     C_R   0.950827 0.492932 0.913470 -0.006560
C29   C     C_R   0.516478 0.979521 0.914189 -0.015992
C30   C     C_R   0.483206 0.997395 0.085981 -0.014568
C31   C     C_R   0.983521 0.480013 0.085850 -0.015978
C32   C     C_R   0.016807 0.496650 0.914050 -0.014464
C33   C     C_R   0.434050 0.008697 0.999464 -0.058526
C34   C     C_R   0.565883 0.984653 0.000592 -0.057639
C35   C     C_R   0.065952 0.508629 0.000553 -0.058437
C36   C     C_R   0.934121 0.484653 0.999435 -0.057628
H1    H     H_    0.580548 0.943672 0.824545 0.159505
H2    H     H_    0.418558 0.988192 0.175920 0.160114
H3    H     H_    0.919452 0.444544 0.175517 0.159511
H4    H     H_    0.081466 0.486648 0.824142 0.160102
H5    H     H_    0.352206 0.015632 0.822267 0.144300
H6    H     H_    0.647952 0.999118 0.177628 0.145211
H7    H     H_    0.147788 0.516526 0.177749 0.144351
H8    H     H_    0.852065 0.498026 0.822375 0.145130
C37   C     C_R   0.177128 0.015086 0.722619 -0.096899
C38   C     C_R   0.820990 0.986273 0.277869 -0.098005
C39   C     C_R   0.322872 0.515165 0.277371 -0.096662
C40   C     C_R   0.679014 0.486129 0.722129 -0.098117
C41   C     C_R   0.183826 0.927893 0.568240 -0.067308
C42   C     C_R   0.814538 0.912450 0.434026 -0.066544
C43   C     C_R   0.316139 0.428307 0.431751 -0.067381
C44   C     C_R   0.685434 0.411957 0.565975 -0.066453
C45   C     C_R   0.211439 0.934413 0.665173 -0.129110
C46   C     C_R   0.787347 0.908047 0.336927 -0.122322
C47   C     C_R   0.288524 0.434779 0.334825 -0.128980
C48   C     C_R   0.712634 0.407704 0.663075 -0.122619
C49   C     C_R   0.114281 0.081092 0.682921 -0.148884
C50   C     C_R   0.882646 0.061914 0.316612 -0.150313
C51   C     C_R   0.385747 0.580979 0.317045 -0.149306
C52   C     C_R   0.617361 0.561733 0.683385 -0.150104
C53   C     C_R   0.081035 0.039388 0.588360 0.113779
C54   C     C_R   0.916142 0.028763 0.411859 0.107170
C55   C     C_R   0.418978 0.539469 0.411632 0.114210
C56   C     C_R   0.583859 0.528446 0.588151 0.106826
C57   C     C_R   0.119105 0.980797 0.529606 0.064712
C58   C     C_R   0.878595 0.972625 0.471697 0.064009
C59   C     C_R   0.380883 0.481026 0.470380 0.064883
C60   C     C_R   0.621389 0.472197 0.528306 0.063983
C61   C     C_R   0.012093 0.042677 0.550595 0.021194
C62   C     C_R   0.985000 0.037546 0.449385 0.023489
C63   C     C_R   0.487924 0.542721 0.449425 0.021178
C64   C     C_R   0.515008 0.537313 0.550631 0.023534
C65   C     C_R   0.028248 0.020218 0.391446 0.371512
C66   C     C_R   0.968860 0.029613 0.608734 0.364641
C67   C     C_R   0.471763 0.519899 0.608565 0.371938
C68   C     C_R   0.531176 0.529858 0.391308 0.364000
C69   C     C_R   0.092958 0.977923 0.432854 -0.148259
C70   C     C_R   0.904633 0.979656 0.568415 -0.146213
C71   C     C_R   0.407029 0.477991 0.567129 -0.148266
C72   C     C_R   0.595362 0.479416 0.431588 -0.146021
H9    H     H_    0.123854 0.948395 0.387962 0.143730
H10   H     H_    0.873948 0.952970 0.613918 0.143096
H11   H     H_    0.376123 0.448455 0.612005 0.143476
H12   H     H_    0.626052 0.452878 0.386074 0.143436
H13   H     H_    0.903458 0.143406 0.270910 0.184163
H14   H     H_    0.092803 0.163842 0.727392 0.183710
H15   H     H_    0.596539 0.643258 0.729074 0.184202
H16   H     H_    0.407218 0.663553 0.272525 0.183551
H17   H     H_    0.739436 0.850080 0.308145 0.150244
H18   H     H_    0.260132 0.883259 0.694871 0.155538
H19   H     H_    0.760534 0.349702 0.691861 0.150545
H20   H     H_    0.239806 0.383788 0.305137 0.155394
H21   H     H_    0.212421 0.876266 0.523678 0.154500
H22   H     H_    0.786350 0.862718 0.479531 0.153528
H23   H     H_    0.287526 0.376835 0.476314 0.154281
H24   H     H_    0.713610 0.362133 0.520469 0.153881
F1    F     F_    0.627763 0.007089 0.341580 -0.677252
F2    F     F_    0.372124 0.993144 0.658363 -0.676261
F3    F     F_    0.872270 0.504806 0.658422 -0.677130
F4    F     F_    0.127871 0.494668 0.341668 -0.676338
F5    F     F_    0.498719 0.955398 0.659678 -0.648281
F6    F     F_    0.500599 0.994689 0.340679 -0.645263
F7    F     F_    0.001279 0.456776 0.340379 -0.648026
F8    F     F_    0.999432 0.492193 0.659362 -0.645615
N1    N     N_2   0.009958 0.052542 0.292335 -0.520379
H25   H     H_    0.046005 0.113891 0.268993 0.257454
C73   C     C_3   0.981947 0.895678 0.231690 -0.563049
H26   H     H_    0.945565 0.951606 0.168623 0.196226
H27   H     H_    0.957701 0.793896 0.268067 0.240300
H28   H     H_    0.019829 0.825359 0.206447 0.193141
N2    N     N_2   0.986517 0.075574 0.706440 -0.521829
H29   H     H_    0.949750 0.140350 0.726602 0.259371
C74   C     C_3   0.013516 0.925473 0.772138 -0.569601
H30   H     H_    0.045306 0.989417 0.837350 0.199490
H31   H     H_    0.042830 0.826592 0.742527 0.237236
H32   H     H_    0.974232 0.849869 0.791896 0.193777
N3    N     N_2   0.490103 0.551535 0.707737 -0.520538
H33   H     H_    0.454093 0.612589 0.731271 0.257333
C75   C     C_3   0.518197 0.394385 0.768079 -0.562657
H34   H     H_    0.480410 0.324110 0.793540 0.193089
H35   H     H_    0.554758 0.449974 0.831042 0.196113
H36   H     H_    0.542227 0.292648 0.731370 0.240596
N4    N     N_2   0.513642 0.577211 0.293783 -0.521675
H37   H     H_    0.550473 0.642710 0.274098 0.259678
C76   C     C_3   0.486996 0.427685 0.227511 -0.570295
H38   H     H_    0.455780 0.492260 0.162041 0.199775
H39   H     H_    0.457157 0.328943 0.256222 0.236722
H40   H     H_    0.526514 0.351822 0.208493 0.193873

loop_
_geom_bond_atom_site_label_1
_geom_bond_atom_site_label_2
_ccdc_geom_bond_type
O17   V3    S    
C7    C34   S    
C51   C55   A    
C4    C37   S    
C56   C64   A    
O1    C5    A    
C61   C62   A    
C55   C59   A    
O19   V1    S    
O13   V1    S    
C37   C45   A    
O3    C7    A    
C63   C64   A    
C1    C40   S    
C10   H2    S    
C73   H28   S    
O15   V3    S    
C39   C47   A    
C3    C38   S    
O4    V2    S    
N2    H29   S    
O7    C3    A    
C74   H31   S    
C44   H24   S    
O9    V1    S    
N4    C76   S    
O7    V3    S    
C22   H6    S    
C76   H39   S    
O4    C8    A    
C38   C46   A    
C68   N4    S    
C75   H34   S    
C16   F8    S    
C64   C67   A    
C75   H35   S    
O1    V3    S    
C25   C33   A    
O2    V4    S    
C18   C22   A    
O3    V1    S    
C58   C70   A    
C28   C36   A    
N4    H37   S    
C28   C32   A    
C53   C61   A    
C1    O15   A    
C68   C72   A    
C56   C60   A    
C2    O16   A    
C8    C33   S    
C55   C63   A    
O2    C6    A    
O14   V2    S    
C21   C25   A    
C54   C62   A    
C16   C20   A    
C39   C51   A    
C43   C59   A    
C2    C39   S    
O11   C7    A    
O12   C8    A    
C31   C36   A    
O17   V1    S    
O10   V2    S    
C23   H7    S    
C14   F6    S    
O5    V1    S    
C9    C29   A    
C42   H22   S    
C74   H32   S    
C52   H15   S    
C41   H21   S    
C11   C31   A    
C26   C34   A    
C50   H13   S    
C44   C48   A    
O20   V4    S    
C43   H23   S    
C5    C36   S    
C67   C71   A    
C54   C58   A    
C76   H40   S    
C6    C35   S    
C53   C57   A    
C63   C68   A    
C15   C19   A    
C62   C65   A    
C66   C70   A    
O19   V3    S    
C66   N2    S    
C9    C13   A    
C15   F7    S    
O8    V4    S    
C17   F2    S    
C11   C15   A    
O5    C1    A    
C12   C32   A    
C48   H19   S    
C12   C16   A    
O8    C4    A    
O9    C5    A    
C26   C30   A    
C24   H8    S    
C40   C52   A    
C44   C60   A    
O6    V2    S    
O18   V2    S    
N3    H33   S    
C21   H5    S    
C46   H17   S    
C27   C35   A    
C75   H36   S    
C73   H26   S    
C13   F5    S    
C72   H12   S    
C71   H11   S    
N1    H25   S    
O16   V4    S    
N2    C74   S    
C3    O13   A    
C17   C21   A    
C57   C69   A    
C10   C14   A    
C67   N3    S    
C52   C56   A    
C59   C71   A    
C73   H27   S    
O6    C2    A    
C23   C27   A    
C29   C34   A    
O11   V3    S    
O18   V4    S    
O12   V4    S    
C74   H30   S    
C22   C26   A    
C20   F3    S    
C32   C35   A    
C42   C58   A    
N3    C75   S    
C41   C57   A    
C40   C48   A    
C50   C54   A    
C76   H38   S    
C47   H20   S    
C10   C30   A    
O10   C6    A    
C19   C23   A    
C25   C29   A    
C61   C66   A    
O20   V2    S    
C70   H10   S    
C27   C31   A    
C13   C17   A    
C38   C50   A    
C69   H9    S    
C65   C69   A    
C37   C49   A    
C60   C72   A    
C65   N1    S    
C14   C18   A    
C20   C24   A    
C24   C28   A    
C49   H14   S    
C9    H1    S    
C42   C46   A    
C4    O14   A    
C41   C45   A    
C51   H16   S    
C11   H3    S    
C12   H4    S    
C43   C47   A    
C19   F4    S    
C49   C53   A    
C45   H18   S    
C18   F1    S    
N1    C73   S    
C30   C33   A    
