data_mof_unit_18973.cif
_audit_creation_date              2012-12-11T15:13:43-0500
_audit_creation_method            fapswitch 2.2
_symmetry_space_group_name_H-M    P1
_symmetry_Int_Tables_number       1
_space_group_crystal_system       triclinic
_cell_length_a                    6.94403
_cell_length_b                    13.46953
_cell_length_c                    20.121162
_cell_angle_alpha                 104.130413
_cell_angle_beta                  89.977756
_cell_angle_gamma                 90.600628
_cell_volume                      1824.9400216

loop_
_atom_site_label
_atom_site_type_symbol
_atom_type_description
_atom_site_fract_x
_atom_site_fract_y
_atom_site_fract_z
_atom_type_partial_charge
O1    O     O_R   0.506780 0.600060 0.449950 -0.539057
O2    O     O_R   0.179840 0.597110 0.589410 -0.543829
O3    O     O_R   0.004570 0.399940 0.550050 -0.539537
C1    C     C_R   0.348556 0.618970 0.616918 0.675905
O4    O     O_R   0.177380 0.612160 0.452890 -0.540629
O5    O     O_R   0.002100 0.415100 0.412560 -0.541539
C2    C     C_R   0.346797 0.639489 0.436682 0.714122
O6    O     O_R   0.509250 0.584900 0.587440 -0.540811
O7    O     O_3   0.337570 0.435330 0.486930 -0.369817
V1    V     V_3+5 0.064650 0.512000 0.502430 1.410422
O8    O     O_R   0.672090 0.402890 0.410590 -0.542260
C3    C     C_R   0.840562 0.380824 0.383144 0.678062
O9    O     O_R   0.674540 0.387840 0.547110 -0.539675
C4    C     C_R   0.842753 0.360591 0.563336 0.696695
V2    V     V_3+5 0.564040 0.488000 0.497570 1.414975
O10   O     O_3   0.840990 0.564670 0.513070 -0.369772
C5    C     C_R   0.846091 0.105488 0.607281 -0.168617
H1    H     H_    0.836749 0.155190 0.513811 0.106475
H2    H     H_    0.852414 0.979218 0.689745 0.117317
H3    H     H_    0.842425 0.025249 0.580422 0.106819
C6    C     C_R   0.849112 0.282802 0.602627 -0.026549
C7    C     C_R   0.865732 0.319420 0.932432 -0.169214
C8    C     C_R   0.863707 0.396284 0.897352 -0.122241
C9    C     C_R   0.860317 0.371826 0.825964 -0.162734
C10   C     C_R   0.858798 0.268491 0.787448 0.078256
C11   C     C_R   0.859934 0.189958 0.823859 0.070757
C12   C     C_R   0.855854 0.240497 0.714188 0.072182
C13   C     C_R   0.852275 0.135024 0.679209 0.152306
C14   C     C_R   0.854277 0.059706 0.716099 -0.218684
C15   C     C_R   0.858375 0.086517 0.787209 -0.205183
C16   C     C_R   0.855758 0.313434 0.674159 -0.216270
C17   C     C_R   0.843302 0.179059 0.569245 -0.187149
C18   C     C_R   0.863478 0.216649 0.896482 -0.075464
H4    H     H_    0.859357 0.394680 0.696659 0.089689
H5    H     H_    0.869335 0.340115 0.987968 0.098695
H6    H     H_    0.858796 0.435843 0.802754 0.101937
H7    H     H_    0.865176 0.475724 0.925732 0.117401
H8    H     H_    0.859767 0.025046 0.813258 0.117046
C19   C     C_3   0.676992 0.220218 0.228716 -0.115732
C20   C     C_3   0.773815 0.199211 0.293229 -0.146091
H9    H     H_    0.705747 0.158490 0.329091 0.111012
H10   H     H_    0.528635 0.196082 0.210773 0.107127
C21   C     C_3   0.849501 0.310367 0.312610 -0.005997
C22   C     C_3   0.752778 0.332167 0.248912 -0.137672
C23   C     C_3   0.939237 0.299124 0.207373 -0.145612
C24   C     C_3   0.036030 0.278057 0.271856 -0.118065
C25   C     C_3   0.960245 0.166098 0.251623 -0.141288
C26   C     C_3   0.863521 0.188024 0.187927 -0.004226
H11   H     H_    0.666939 0.401003 0.248252 0.100324
H12   H     H_    0.007543 0.339919 0.171596 0.098317
H13   H     H_    0.184422 0.301994 0.289849 0.109811
H14   H     H_    0.046104 0.097268 0.252317 0.109180
C27   C     C_3   0.538215 0.725159 0.730441 -0.123157
C28   C     C_3   0.458261 0.835441 0.749825 -0.139860
H15   H     H_    0.541899 0.906269 0.750265 0.109871
H16   H     H_    0.688251 0.704280 0.714146 0.107393
C29   C     C_3   0.356911 0.811491 0.812292 -0.005007
C30   C     C_3   0.436899 0.702046 0.793720 -0.142103
C31   C     C_3   0.254349 0.665255 0.750008 -0.137031
C32   C     C_3   0.174448 0.775555 0.769384 -0.118581
C33   C     C_3   0.275748 0.798626 0.706087 -0.138479
C34   C     C_3   0.355783 0.689146 0.687531 -0.005657
H17   H     H_    0.502901 0.662589 0.830354 0.099725
H18   H     H_    0.170402 0.594493 0.749610 0.098894
H19   H     H_    0.024473 0.796631 0.785670 0.106005
H20   H     H_    0.209680 0.838154 0.669499 0.100927
C35   C     C_R   0.389252 0.895700 0.394055 0.302371
H21   H     H_    0.387278 0.842762 0.486844 0.105094
H22   H     H_    0.418525 0.020770 0.308437 0.159190
C36   C     C_R   0.357649 0.717754 0.397680 -0.069215
C37   C     C_R   0.330781 0.681567 0.068256 -0.171166
C38   C     C_R   0.315650 0.605437 0.103709 -0.125350
C39   C     C_R   0.324335 0.630101 0.175047 -0.161082
C40   C     C_R   0.349117 0.732947 0.213222 0.097666
C41   C     C_R   0.364965 0.810559 0.176367 0.075987
C42   C     C_R   0.358182 0.761217 0.286513 0.023560
C43   C     C_R   0.381023 0.866425 0.321454 0.108341
C44   C     C_R   0.397935 0.940544 0.283463 -0.199141
C45   C     C_R   0.389726 0.913302 0.212469 -0.227206
C46   C     C_R   0.346356 0.688267 0.326359 -0.225551
C47   C     C_R   0.379632 0.820639 0.431356 -0.246840
C48   C     C_R   0.355391 0.783738 0.103794 -0.075923
H23   H     H_    0.329865 0.607459 0.303839 0.100429
H24   H     H_    0.322719 0.660811 0.012777 0.099806
H25   H     H_    0.310371 0.566537 0.198396 0.101827
H26   H     H_    0.296316 0.526432 0.075670 0.117694
H27   H     H_    0.403222 0.974092 0.186050 0.119817
O11   O     O_R   0.203580 0.914920 0.912610 -0.540971
O12   O     O_R   0.535710 0.887810 0.047120 -0.540141
O13   O     O_R   0.710730 0.084950 0.087430 -0.541844
C49   C     C_R   0.366467 0.861290 0.064001 0.689873
O14   O     O_R   0.533010 0.902850 0.910600 -0.544148
O15   O     O_R   0.708010 0.100090 0.949930 -0.537916
C50   C     C_R   0.364297 0.881269 0.883011 0.680003
O16   O     O_R   0.206300 0.899780 0.050100 -0.537986
O17   O     O_3   0.375170 0.064580 0.013100 -0.369680
V3    V     V_3+5 0.648200 0.988020 0.997570 1.413251
O18   O     O_R   0.038030 0.112330 0.952840 -0.540181
C51   C     C_R   0.869870 0.138679 0.935969 0.688865
O19   O     O_R   0.040730 0.097300 0.089360 -0.543512
C52   C     C_R   0.872351 0.118490 0.117089 0.679649
V4    V     V_3+5 0.148780 0.012220 0.002360 1.414505
O20   O     O_3   0.871930 0.935430 0.986900 -0.369519
N1    N     N_2   0.409358 0.000424 0.429967 -0.538339
H28   H     H_    0.492504 0.011454 0.473719 0.257970
C53   C     C_3   0.228948 0.054513 0.442852 -0.570624
H29   H     H_    0.137425 0.021391 0.477537 0.198824
H30   H     H_    0.150170 0.050062 0.394140 0.200739
H31   H     H_    0.257728 0.136448 0.467644 0.206817

loop_
_geom_bond_atom_site_label_1
_geom_bond_atom_site_label_2
_ccdc_geom_bond_type
C22   H11   S    
C20   C25   S    
O17   V4    S    
C39   C40   A    
C35   C43   A    
C1    O6    A    
C2    C36   S    
N1    C53   S    
C27   C28   S    
C7    H5    S    
C6    C16   A    
C31   H18   S    
C9    H6    S    
C40   C42   A    
H21   C47   S    
C4    C6    S    
C13   C14   A    
C37   H24   S    
C3    C21   S    
O5    C3    A    
C27   H16   S    
C53   H29   S    
V2    O10   S    
C1    C34   S    
C5    H3    S    
C15   H8    S    
C36   C47   A    
C24   C25   S    
O8    V2    S    
C33   H20   S    
C20   C21   S    
O14   V3    S    
C8    C9    A    
O1    V2    S    
O12   C49   A    
O7    V1    S    
O15   C51   A    
O13   V3    S    
O16   V4    S    
C43   C44   A    
C37   C48   A    
C31   C32   S    
O9    C4    A    
H22   C44   S    
V4    O20   S    
C46   H23   S    
C45   H27   S    
N1    H28   S    
C35   N1    S    
C19   H10   S    
C6    C17   A    
O11   C50   A    
C40   C41   A    
C36   C46   A    
C42   C43   A    
C19   C20   S    
O4    C2    A    
C44   C45   A    
C29   C32   S    
C10   C11   A    
O18   V4    S    
C12   C16   A    
C24   H13   S    
C48   C49   S    
O12   V3    S    
C32   C33   S    
C18   C51   S    
C25   H14   S    
O2    C1    A    
C21   C22   S    
O13   C52   A    
C14   C15   A    
C8    H7    S    
C27   C34   S    
C11   C18   A    
O11   V4    S    
C25   C26   S    
C27   C30   S    
O17   V3    S    
O14   C50   A    
C16   H4    S    
C9    C10   A    
C39   H25   S    
V3    O20   S    
O3    C4    A    
C20   H9    S    
C32   H19   S    
C35   C47   A    
O6    V2    S    
C29   C50   S    
O9    V2    S    
H1    C17   S    
O2    V1    S    
O15   V3    S    
C22   C23   S    
O19   V4    S    
C23   C26   S    
C30   H17   S    
C7    C18   A    
C28   H15   S    
C31   C34   S    
O1    C2    A    
C5    C13   A    
C42   C46   A    
C38   C39   A    
O5    V1    S    
C38   H26   S    
O8    C3    A    
C41   C48   A    
C11   C15   A    
C19   C22   S    
C28   C33   S    
C10   C12   A    
C30   C31   S    
O4    V1    S    
O3    V1    S    
V1    O10   S    
C29   C30   S    
C53   H30   S    
C23   H12   S    
C26   C52   S    
O19   C52   A    
O7    V2    S    
C33   C34   S    
C21   C24   S    
C49   O16   A    
C23   C24   S    
C37   C38   A    
O18   C51   A    
C12   C13   A    
C5    C17   A    
C7    C8    A    
C41   C45   A    
C53   H31   S    
C19   C26   S    
C28   C29   S    
H2    C14   S    
