data_mof_unit_36736.cif
_audit_creation_date              2012-12-11T15:46:49-0500
_audit_creation_method            fapswitch 2.2
_symmetry_space_group_name_H-M    P1
_symmetry_Int_Tables_number       1
_space_group_crystal_system       triclinic
_cell_length_a                    11.497036
_cell_length_b                    11.566506
_cell_length_c                    19.495028
_cell_angle_alpha                 90.648332
_cell_angle_beta                  90.629839
_cell_angle_gamma                 59.809815
_cell_volume                      2240.63495685

loop_
_atom_site_label
_atom_site_type_symbol
_atom_type_description
_atom_site_fract_x
_atom_site_fract_y
_atom_site_fract_z
_atom_type_partial_charge
C1    C     C_R   0.615115 0.084861 0.606057 0.559494
C2    C     C_1   0.624846 0.113045 0.676995 0.000975
C3    C     C_R   0.661341 0.677060 0.190656 0.034683
C4    C     C_R   0.614585 0.743008 0.597888 0.541929
C5    C     C_R   0.535584 0.733117 0.221918 0.017814
C6    C     C_R   0.529149 0.735960 0.291683 0.036386
C7    C     C_R   0.766012 0.657549 0.302046 -0.179670
C8    C     C_R   0.774756 0.650794 0.230766 -0.157303
C9    C     C_3   0.421470 0.704967 0.215980 -0.272333
C10   C     C_3   0.422525 0.698705 0.293373 -0.266717
C11   C     C_R   0.643074 0.693509 0.332961 0.018765
C12   C     C_1   0.653357 0.682730 0.664040 0.001141
C13   C     C_R   0.167818 0.181994 0.186179 0.006119
C14   C     C_R   0.238446 0.240770 0.213878 0.009781
C15   C     C_R   0.284769 0.215314 0.280772 0.006824
C16   C     C_R   0.241197 0.145298 0.598138 0.549193
C17   C     C_R   0.209333 0.056151 0.291502 -0.152870
C18   C     C_R   0.163167 0.081059 0.223767 -0.166033
C19   C     C_3   0.199425 0.384647 0.218916 -0.267827
C20   C     C_3   0.245081 0.358566 0.292919 -0.261153
C21   C     C_R   0.264478 0.128571 0.321805 0.016350
C22   C     C_R   0.691971 0.198221 0.200489 0.020475
C23   C     C_1   0.126803 0.198572 0.859419 0.000989
C24   C     C_R   0.787239 0.079451 0.231468 0.025644
C25   C     C_R   0.778129 0.056751 0.299174 0.002595
C26   C     C_R   0.594847 0.282711 0.312779 -0.166497
C27   C     C_R   0.600599 0.303993 0.242477 -0.168258
C28   C     C_R   0.646378 0.113358 0.403623 0.549988
C29   C     C_3   0.833333 0.937883 0.210959 -0.130560
C30   C     C_3   0.815893 0.914231 0.285706 -0.255933
C31   C     C_R   0.676758 0.154308 0.339875 0.017983
C32   C     C_R   0.081755 0.231132 0.928693 0.537050
C33   C     C_R   0.709102 0.545557 0.922660 0.557712
C34   C     C_1   0.171702 0.170380 0.727696 -0.030918
C35   C     C_R   0.706186 0.205544 0.930998 0.543734
C36   C     C_R   0.085298 0.234808 0.124798 0.545226
C37   C     C_R   0.682551 0.613225 0.124929 0.567878
C38   C     C_R   0.712461 0.214661 0.129072 0.562690
C39   C     C_R   0.617587 0.736818 0.403062 0.539573
C40   C     C_R   0.300779 0.115241 0.394208 0.559890
C41   C     C_1   0.698397 0.580178 0.851755 -0.003252
C42   C     C_1   0.674414 0.643879 0.722292 -0.029587
C43   C     C_1   0.689456 0.607836 0.791906 -0.033704
C44   C     C_R   0.742255 0.923837 0.158551 0.042033
C45   C     C_1   0.150324 0.182159 0.799008 -0.031732
C46   C     C_R   0.602279 0.983374 0.168217 -0.093802
C47   C     C_R   0.520504 0.978678 0.115885 -0.119810
C48   C     C_R   0.576652 0.916039 0.053485 -0.100518
C49   C     C_R   0.715041 0.856880 0.043373 -0.077752
C50   C     C_R   0.797593 0.859733 0.095714 -0.065686
C51   C     C_1   0.195490 0.161096 0.667317 0.002962
C52   C     C_1   0.666605 0.181977 0.864802 -0.004204
C53   C     C_1   0.632546 0.135661 0.736833 -0.031281
C54   C     C_1   0.646161 0.161109 0.806501 -0.031896
Cr1   Cr    Cr6+3 0.404720 0.198220 0.499960 1.019555
Cr2   Cr    Cr6+3 0.698290 0.897110 0.500380 1.017231
Cr3   Cr    Cr6+3 0.396970 0.904720 0.499610 1.022141
Cr4   Cr    Cr6+3 0.926290 0.152010 0.028150 1.010819
Cr5   Cr    Cr6+3 0.921440 0.451830 0.027490 1.004075
Cr6   Cr    Cr6+3 0.626370 0.446880 0.028730 1.012194
H1    H     H_    0.853957 0.635634 0.332600 0.125148
H2    H     H_    0.871797 0.615507 0.207542 0.130931
H3    H     H_    0.445826 0.608780 0.191791 0.158807
H4    H     H_    0.328862 0.792012 0.195092 0.129703
H5    H     H_    0.327960 0.775230 0.317384 0.140443
H6    H     H_    0.461276 0.595860 0.313099 0.130121
H7    H     H_    0.189329 0.990659 0.321819 0.130800
H8    H     H_    0.111195 0.031376 0.203807 0.133036
H9    H     H_    0.089769 0.453883 0.213554 0.146168
H10   H     H_    0.556186 0.035013 0.215608 0.114720
H11   H     H_    0.413499 0.023632 0.123492 0.119745
H12   H     H_    0.263672 0.408154 0.186433 0.134883
H13   H     H_    0.512982 0.912997 0.013039 0.125918
H14   H     H_    0.758461 0.808939 0.994883 0.133811
H15   H     H_    0.904493 0.814588 0.086526 0.092103
H16   H     H_    0.331597 0.372571 0.303476 0.134809
H17   H     H_    0.160244 0.410701 0.329501 0.155595
H18   H     H_    0.520917 0.362669 0.344591 0.117405
H19   H     H_    0.531516 0.399906 0.220881 0.118894
H20   H     H_    0.941230 0.885278 0.195880 0.111813
H21   H     H_    0.730063 0.898683 0.295847 0.153641
H22   H     H_    0.912039 0.842260 0.311303 0.128194
O1    O     O_R   0.267750 0.231960 0.575440 -0.507083
O2    O     O_R   0.596230 0.579400 0.952760 -0.505495
O3    O     O_R   0.639160 0.321170 0.958690 -0.505863
O4    O     O_R   0.527290 0.186640 0.570530 -0.486919
O5    O     O_R   0.821370 0.124220 0.104400 -0.516848
O6    O     O_R   0.037020 0.167050 0.097880 -0.508250
O7    O     O_R   0.056310 0.349620 0.102920 -0.518323
O8    O     O_R   0.797790 0.564880 0.097980 -0.504843
O9    O     O_R   0.596000 0.584270 0.104310 -0.526747
O10   O     O_R   0.638950 0.325690 0.099180 -0.508492
O11   O     O_3   0.824700 0.350240 0.028120 -0.267608
O12   O     O_R   0.685950 0.784660 0.430010 -0.509226
O13   O     O_R   0.728110 0.003450 0.576380 -0.495742
O14   O     O_R   0.682980 0.789190 0.570500 -0.507889
O15   O     O_R   0.499300 0.771880 0.575540 -0.500584
O16   O     O_R   0.285350 0.030870 0.569740 -0.488027
O17   O     O_R   0.270960 0.227070 0.423890 -0.513661
O18   O     O_R   0.530270 0.182120 0.430040 -0.515009
O19   O     O_R   0.731320 0.998570 0.424830 -0.510996
O20   O     O_R   0.502510 0.767000 0.423980 -0.520897
O21   O     O_R   0.288320 0.026340 0.429250 -0.500766
O22   O     O_3   0.499990 0.000020 0.499980 -0.292347
O23   O     O_R   0.821590 0.119350 0.952850 -0.505093
O24   O     O_R   0.037230 0.162540 0.957390 -0.495843
O25   O     O_R   0.056530 0.344750 0.951370 -0.511656
O26   O     O_R   0.798000 0.560370 0.957490 -0.505074

loop_
_geom_bond_atom_site_label_1
_geom_bond_atom_site_label_2
_ccdc_geom_bond_type
C36   O7    A    
C25   C31   A    
Cr2   O13   S    
C23   C45   T    
C9    H4    S    
C35   O3    A    
C19   C20   S    
C16   C51   S    
Cr4   O5    S    
C40   O17   A    
C7    C8    A    
C53   C54   S    
C36   O6    A    
Cr2   O12   S    
Cr3   O20   S    
C29   H20   S    
C34   C51   T    
C26   H18   S    
C13   C18   A    
Cr4   O11   S    
Cr2   O19   S    
C27   H19   S    
C5    C6    A    
C10   H5    S    
C18   H8    S    
C22   C38   S    
C38   O10   A    
C25   C30   S    
C20   H16   S    
C1    C2    S    
Cr5   O7    S    
C24   C29   S    
C7    H1    S    
C12   C42   T    
C4    O14   A    
C28   O19   A    
C44   C46   A    
C32   O25   A    
Cr1   O18   S    
C4    C12   S    
C9    C10   S    
Cr6   O11   S    
C28   O18   A    
Cr6   O10   S    
C26   C31   A    
C49   H14   S    
C32   O24   A    
C4    O15   A    
C41   C43   T    
C19   H12   S    
C33   O26   A    
C14   C19   S    
C52   C54   T    
C10   H6    S    
C15   C20   S    
Cr3   O21   S    
C17   H7    S    
C37   O9    A    
C24   C25   A    
Cr2   O22   S    
C13   C36   S    
C3    C8    A    
C6    C11   A    
Cr1   O22   S    
C16   O1    A    
Cr5   O25   S    
Cr4   O24   S    
Cr5   O8    S    
C30   H22   S    
C7    C11   A    
C39   O12   A    
C5    C9    S    
C29   C30   S    
C35   O23   A    
C47   C48   A    
C1    O13   A    
Cr3   O15   S    
C17   C18   A    
C26   C27   A    
C34   C45   S    
C11   C39   S    
C47   H11   S    
C20   H17   S    
C48   C49   A    
C22   C27   A    
C29   C44   S    
C22   C24   A    
C19   H9    S    
C42   C43   S    
Cr1   O1    S    
C39   O20   A    
Cr6   O9    S    
C44   C50   A    
C1    O4    A    
Cr2   O14   S    
Cr3   O22   S    
C46   C47   A    
C37   O8    A    
C9    H3    S    
C48   H13   S    
C28   C31   S    
C3    C5    A    
C2    C53   T    
Cr4   O6    S    
C6    C10   S    
Cr6   O3    S    
Cr5   O26   S    
C38   O5    A    
Cr4   O23   S    
C33   C41   S    
C23   C32   S    
Cr1   O4    S    
C50   H15   S    
C40   O21   A    
Cr6   O2    S    
C16   O16   A    
C21   C40   S    
C30   H21   S    
Cr3   O16   S    
C33   O2    A    
C17   C21   A    
C46   H10   S    
C15   C21   A    
C3    C37   S    
C49   C50   A    
Cr1   O17   S    
C35   C52   S    
C14   C15   A    
Cr5   O11   S    
C13   C14   A    
C8    H2    S    
