data_mof_unit_59192.cif
_audit_creation_date              2012-12-10T19:10:24-0500
_audit_creation_method            fapswitch 2.2
_symmetry_space_group_name_H-M    P1
_symmetry_Int_Tables_number       1
_space_group_crystal_system       triclinic
_cell_length_a                    10.640281
_cell_length_b                    9.707557
_cell_length_c                    15.737962
_cell_angle_alpha                 90.380403
_cell_angle_beta                  90.020273
_cell_angle_gamma                 89.999267
_cell_volume                      1625.55601676

loop_
_atom_site_label
_atom_site_type_symbol
_atom_type_description
_atom_site_fract_x
_atom_site_fract_y
_atom_site_fract_z
_atom_type_partial_charge
C1    C     C_R   0.257715 0.500262 0.500150 0.855029
C2    C     C_3   0.634969 0.530464 0.951483 -0.358181
C3    C     C_3   0.634102 0.531555 0.049458 -0.343684
C4    C     C_1   0.500537 0.502365 0.825714 -0.099761
C5    C     C_1   0.501315 0.497056 0.174076 -0.088380
C6    C     C_1   0.500996 0.498080 0.249357 -0.159396
C7    C     C_3   0.073364 0.423203 0.579270 -0.442211
C8    C     C_3   0.073571 0.429814 0.417750 -0.436994
C9    C     C_3   0.928515 0.420422 0.578803 -0.189616
C10   C     C_3   0.928540 0.424736 0.417731 -0.169221
C11   C     C_3   0.071848 0.651304 0.503134 -0.400250
C12   C     C_3   0.121524 0.500910 0.500075 0.127359
C13   C     C_3   0.878753 0.500989 0.499439 0.001870
C14   C     C_R   0.500244 0.499499 0.338182 0.956369
C15   C     C_3   0.929424 0.651839 0.501157 -0.366233
C16   C     C_3   0.374712 0.080962 0.475083 -0.238259
C17   C     C_3   0.374662 0.918570 0.475219 -0.241374
C18   C     C_3   0.591868 0.080644 0.436477 -0.242359
C19   C     C_3   0.591758 0.918100 0.436397 -0.219182
C20   C     C_3   0.532916 0.081976 0.582863 -0.207482
C21   C     C_3   0.533107 0.919726 0.582822 -0.226564
C22   C     C_R   0.742366 0.500236 0.500074 0.899129
C23   C     C_R   0.499980 0.500501 0.661739 0.943249
C24   C     C_3   0.407260 0.608283 0.051067 -0.447355
C25   C     C_3   0.460561 0.354377 0.048266 -0.448603
C26   C     C_3   0.454945 0.357076 0.949735 -0.158447
C27   C     C_3   0.406815 0.611757 0.952535 -0.177132
C28   C     C_1   0.500168 0.501848 0.750479 -0.117035
C29   C     C_3   0.500768 0.497595 0.082696 0.295401
C30   C     C_3   0.500601 0.500901 0.917348 0.148238
H1    H     H_    0.893223 0.709964 0.557052 0.211514
H2    H     H_    0.897589 0.710033 0.444565 0.206570
H3    H     H_    0.302505 0.119103 0.520591 0.153414
H4    H     H_    0.302647 0.881717 0.520948 0.154449
H5    H     H_    0.570127 0.118206 0.371512 0.162751
H6    H     H_    0.569772 0.879439 0.371408 0.168816
H7    H     H_    0.626856 0.121012 0.602688 0.173895
H8    H     H_    0.627237 0.881367 0.602415 0.159341
H9    H     H_    0.464870 0.119838 0.631305 0.183816
H10   H     H_    0.465392 0.882493 0.631355 0.181690
H11   H     H_    0.687809 0.118857 0.451873 0.149981
H12   H     H_    0.687693 0.880036 0.451605 0.155263
H13   H     H_    0.310905 0.584008 0.074194 0.167626
H14   H     H_    0.366326 0.326651 0.073741 0.168369
H15   H     H_    0.527417 0.274737 0.071416 0.208480
H16   H     H_    0.432613 0.710385 0.078872 0.202255
H17   H     H_    0.671035 0.630172 0.927499 0.216403
H18   H     H_    0.702654 0.452133 0.927937 0.211018
H19   H     H_    0.110801 0.473625 0.637827 0.188350
H20   H     H_    0.109979 0.486913 0.361689 0.172344
H21   H     H_    0.109267 0.315414 0.579036 0.168078
H22   H     H_    0.110932 0.322853 0.413021 0.174995
H23   H     H_    0.899682 0.310584 0.571371 0.138462
H24   H     H_    0.900261 0.314500 0.422194 0.115366
N1    N     N_3   0.499750 0.138610 0.498180 -0.048779
N2    N     N_3   0.499750 0.861390 0.498180 -0.048994
O1    O     O_R   0.314910 0.616040 0.499980 -0.641618
O2    O     O_R   0.314910 0.383960 0.499980 -0.639453
O3    O     O_R   0.500120 0.616090 0.377110 -0.609240
O4    O     O_R   0.500120 0.383910 0.377110 -0.629865
O5    O     O_R   0.685320 0.616040 0.499960 -0.612637
O6    O     O_R   0.685320 0.383960 0.499960 -0.643152
O7    O     O_R   0.500110 0.615990 0.622830 -0.624811
O8    O     O_R   0.500110 0.384010 0.622830 -0.606237
Zn1   Zn    Zn3+2 0.500150 0.654960 0.499960 0.932837
Zn2   Zn    Zn3+2 0.500150 0.345040 0.499960 0.926313
H25   H     H_    0.310523 0.582605 0.930874 0.133542
H26   H     H_    0.354343 0.345347 0.931051 0.135647
C31   C     C_2   0.874538 0.468281 0.663239 0.900291
O9    O     O_2   0.898941 0.582716 0.691691 -0.636219
O10   O     O_R   0.798162 0.378721 0.709451 -0.808505
H27   H     H_    0.769515 0.420142 0.765472 0.341613
C32   C     C_2   0.876705 0.473398 0.332928 0.890781
O11   O     O_2   0.807010 0.573173 0.328147 -0.660278
O12   O     O_R   0.908892 0.400445 0.259206 -0.805840
H28   H     H_    0.868906 0.440422 0.206328 0.339240
H29   H     H_    0.104735 0.704257 0.562104 0.199385
H30   H     H_    0.107735 0.710725 0.447868 0.171024
H31   H     H_    0.346279 0.118888 0.411350 0.151049
H32   H     H_    0.345923 0.879009 0.411614 0.148870
C33   C     C_2   0.524994 0.236329 0.910353 0.921543
O13   O     O_2   0.472612 0.164535 0.856904 -0.626934
O14   O     O_R   0.648555 0.206928 0.934531 -0.813993
H33   H     H_    0.685315 0.125872 0.902105 0.350289
C34   C     C_2   0.431701 0.755977 0.920008 0.943653
O15   O     O_2   0.359784 0.807290 0.868498 -0.604244
O16   O     O_R   0.535111 0.831055 0.949596 -0.817951
H34   H     H_    0.541665 0.924944 0.922435 0.367919
H35   H     H_    0.664257 0.634678 0.073189 0.199624
H36   H     H_    0.703040 0.454667 0.073311 0.182961

loop_
_geom_bond_atom_site_label_1
_geom_bond_atom_site_label_2
_ccdc_geom_bond_type
C19   N2    S    
O16   H34   S    
O7    Zn1   S    
C8    H20   S    
C32   O11   D    
C24   C27   S    
C33   O13   D    
C15   H2    S    
C34   O15   D    
C14   O3    A    
C3    H36   S    
C9    C31   S    
C19   H6    S    
C5    C6    T    
C10   C32   S    
C6    C14   S    
N2    Zn1   S    
C3    C29   S    
C18   C19   S    
C31   O10   S    
C9    C13   S    
C24   C29   S    
C11   H29   S    
C33   O14   S    
C11   C15   S    
O2    Zn2   S    
C21   H8    S    
C16   C17   S    
C18   H5    S    
C8    H22   S    
C19   H12   S    
C23   O7    A    
O4    Zn2   S    
C27   C30   S    
C32   O12   S    
C1    C12   S    
C20   N1    S    
C25   H14   S    
C4    C28   T    
C27   C34   S    
C5    C29   S    
C34   O16   S    
C25   C29   S    
C7    C12   S    
O6    Zn2   S    
C7    H19   S    
C18   H11   S    
C20   H9    S    
C2    H18   S    
C25   C26   S    
C17   H32   S    
O8    Zn2   S    
O12   H28   S    
C11   H30   S    
C1    O1    A    
C16   H3    S    
C22   O6    A    
O14   H33   S    
C8    C12   S    
C23   C28   S    
C17   N2    S    
C18   N1    S    
C23   O8    A    
C26   C30   S    
C26   C33   S    
C13   C15   S    
C9    H23   S    
C17   H4    S    
C25   H15   S    
N1    Zn2   S    
C7    C9    S    
O1    Zn1   S    
C10   C13   S    
C21   N2    S    
C11   C12   S    
C15   H1    S    
C2    H17   S    
C14   O4    A    
C2    C30   S    
C3    H35   S    
C16   H31   S    
C26   H26   S    
C2    C3    S    
C16   N1    S    
C7    H21   S    
O10   H27   S    
C1    O2    A    
O3    Zn1   S    
C22   O5    A    
C20   H7    S    
C21   H10   S    
C13   C22   S    
C31   O9    D    
C10   H24   S    
C27   H25   S    
O5    Zn1   S    
C20   C21   S    
C8    C10   S    
C24   H13   S    
C4    C30   S    
C24   H16   S    
