data_mof_unit_49659.cif
_audit_creation_date              2012-12-10T19:45:19-0500
_audit_creation_method            fapswitch 2.2
_symmetry_space_group_name_H-M    P1
_symmetry_Int_Tables_number       1
_space_group_crystal_system       triclinic
_cell_length_a                    14.990773
_cell_length_b                    14.147572
_cell_length_c                    10.677404
_cell_angle_alpha                 91.04649
_cell_angle_beta                  89.799335
_cell_angle_gamma                 89.388329
_cell_volume                      2263.97409654

loop_
_atom_site_label
_atom_site_type_symbol
_atom_type_description
_atom_site_fract_x
_atom_site_fract_y
_atom_site_fract_z
_atom_type_partial_charge
C1    C     C_R   0.327365 0.500567 0.499188 0.926291
C2    C     C_R   0.538667 0.896303 0.597657 -0.218095
C3    C     C_R   0.457589 0.893759 0.403356 -0.217124
C4    C     C_R   0.538547 0.796850 0.596012 -0.011510
C5    C     C_R   0.459431 0.794393 0.404938 -0.014027
C6    C     C_R   0.498023 0.946540 0.500217 0.206290
C7    C     C_R   0.504408 0.498801 0.262449 0.768694
C8    C     C_R   0.492312 0.501085 0.737277 0.778651
C9    C     C_2   0.469602 0.425674 0.932659 -0.300617
C10   C     C_2   0.466166 0.431343 0.067102 -0.264595
C11   C     C_2   0.466896 0.504929 0.866613 0.458807
C12   C     C_R   0.672045 0.499557 0.502965 0.952990
C13   C     C_2   0.516584 0.493734 0.129765 0.478504
C14   C     C_R   0.088240 0.574719 0.462634 -0.308845
C15   C     C_R   0.902949 0.554111 0.607860 -0.317516
C16   C     C_R   0.180207 0.574673 0.448025 0.117260
C17   C     C_R   0.810512 0.554084 0.605534 0.096779
C18   C     C_R   0.230711 0.501914 0.505682 -0.270547
C19   C     C_R   0.767614 0.498367 0.512775 -0.260147
C20   C     C_R   0.187786 0.429979 0.573455 0.386740
C21   C     C_R   0.816674 0.440540 0.428165 0.335043
C22   C     C_R   0.095333 0.429837 0.582479 0.509825
C23   C     C_R   0.046702 0.502415 0.526039 -0.036862
C24   C     C_R   0.909629 0.444967 0.428694 0.496350
C25   C     C_3   0.352345 0.608400 0.903249 -0.343789
C26   C     C_3   0.660664 0.550150 0.129055 -0.314443
C27   C     C_3   0.219712 0.649790 0.364613 -0.350995
C28   C     C_3   0.256493 0.607207 0.242103 -0.844436
C29   C     C_3   0.761222 0.610303 0.706889 -0.343145
C30   C     C_3   0.763890 0.716024 0.681304 -0.839146
C31   C     C_3   0.259289 0.379538 0.747597 -0.280861
C32   C     C_3   0.776983 0.291359 0.370590 -0.242808
C33   C     C_3   0.014012 0.380774 0.751877 -0.337428
C34   C     C_R   0.951278 0.499404 0.521569 -0.026916
C35   C     C_3   0.963072 0.442261 0.229257 -0.306184
C36   C     C_3   0.639758 0.075252 0.248155 -0.307959
C37   C     C_3   0.344918 0.060601 0.708732 -0.277840
C38   C     C_R   0.528387 0.102274 0.393618 0.402470
C39   C     C_R   0.468487 0.106769 0.604940 0.377706
C40   C     C_R   0.527389 0.202619 0.396154 -0.151140
C41   C     C_R   0.471273 0.206334 0.603175 -0.084716
C42   C     C_R   0.498080 0.053136 0.499484 -0.116666
H1    H     H_    0.479581 0.356388 0.888999 0.145506
H2    H     H_    0.424061 0.929080 0.327414 0.173113
H3    H     H_    0.311539 0.553123 0.948378 0.148173
H4    H     H_    0.335985 0.613099 0.801928 0.153636
H5    H     H_    0.334154 0.677291 0.948092 0.199042
H6    H     H_    0.683799 0.476696 0.147659 0.180633
H7    H     H_    0.658625 0.593164 0.217134 0.186062
H8    H     H_    0.710590 0.582348 0.066364 0.179811
H9    H     H_    0.311300 0.555957 0.259251 0.254673
H10   H     H_    0.202560 0.570738 0.189718 0.245207
H11   H     H_    0.283037 0.664465 0.183306 0.239880
H12   H     H_    0.423294 0.382068 0.115205 0.133578
H13   H     H_    0.167940 0.702864 0.339099 0.183976
H14   H     H_    0.271225 0.691298 0.414499 0.219314
H15   H     H_    0.833807 0.741198 0.680666 0.249088
H16   H     H_    0.732795 0.731081 0.589449 0.270229
H17   H     H_    0.726679 0.755487 0.755980 0.239239
H18   H     H_    0.690894 0.588101 0.716935 0.214309
H19   H     H_    0.792857 0.596912 0.799023 0.186474
H20   H     H_    0.199598 0.388280 0.808800 0.154910
H21   H     H_    0.300645 0.321375 0.785701 0.179433
H22   H     H_    0.299915 0.444643 0.751229 0.110559
H23   H     H_    0.569272 0.758985 0.671845 0.153720
H24   H     H_    0.846046 0.262402 0.363947 0.202520
H25   H     H_    0.749236 0.280115 0.465984 0.162028
H26   H     H_    0.735702 0.250761 0.303345 0.157072
H27   H     H_    0.940956 0.389422 0.739473 0.185830
H28   H     H_    0.041809 0.446516 0.795183 0.111577
H29   H     H_    0.024578 0.323074 0.819380 0.193157
H30   H     H_    0.990852 0.514362 0.242582 0.146554
H31   H     H_    0.896052 0.446603 0.185297 0.184670
H32   H     H_    0.007710 0.403024 0.163028 0.185348
H33   H     H_    0.686850 0.081365 0.328397 0.140287
H34   H     H_    0.427828 0.754688 0.330138 0.147245
H35   H     H_    0.638217 0.141197 0.193389 0.159684
H36   H     H_    0.665765 0.018124 0.185080 0.201727
H37   H     H_    0.320214 0.021910 0.624165 0.162296
H38   H     H_    0.315886 0.133330 0.713619 0.175356
H39   H     H_    0.321073 0.022466 0.792084 0.191287
H40   H     H_    0.047606 0.628564 0.418610 0.162320
H41   H     H_    0.937731 0.595649 0.678379 0.170975
H42   H     H_    0.547837 0.240943 0.314485 0.164094
H43   H     H_    0.449144 0.246723 0.684610 0.158126
H44   H     H_    0.571010 0.933650 0.674059 0.170832
N1    N     N_R   0.500000 0.252470 0.500000 -0.128662
N2    N     N_R   0.500000 0.747550 0.500000 -0.093353
O1    O     O_R   0.369060 0.579480 0.500010 -0.636942
O2    O     O_3   0.577101 0.551389 0.068529 -0.562161
O3    O     O_3   0.235346 0.355320 0.623643 -0.552026
O4    O     O_3   0.773238 0.387354 0.337483 -0.626387
O5    O     O_3   0.053903 0.353370 0.636431 -0.559209
O6    O     O_3   0.960284 0.392963 0.342835 -0.584501
O7    O     O_3   0.552977 0.051135 0.286616 -0.594695
O8    O     O_3   0.438895 0.062311 0.711219 -0.607475
O9    O     O_R   0.630940 0.579480 0.499990 -0.625561
O10   O     O_R   0.369050 0.420520 0.500010 -0.552106
O11   O     O_R   0.630950 0.420520 0.499990 -0.587578
O12   O     O_R   0.500000 0.579460 0.319080 -0.603741
O13   O     O_R   0.500000 0.579460 0.680920 -0.595415
O14   O     O_R   0.499990 0.420500 0.319080 -0.643516
O15   O     O_R   0.500010 0.420500 0.680920 -0.658430
O16   O     O_3   0.444211 0.591790 0.921352 -0.534687
Zn1   Zn    Zn3+2 0.500000 0.606140 0.500000 0.949430
Zn2   Zn    Zn3+2 0.500000 0.393860 0.500000 0.959419

loop_
_geom_bond_atom_site_label_1
_geom_bond_atom_site_label_2
_ccdc_geom_bond_type
C35   H32   S    
C13   O2    S    
C17   C29   S    
C40   H42   S    
C3    C6    A    
C39   C41   A    
C37   H37   S    
O12   Zn1   S    
C40   N1    A    
C19   C21   A    
C38   C42   A    
C36   H35   S    
C26   H8    S    
C4    H23   S    
C28   H9    S    
C27   H13   S    
C30   H15   S    
C12   O11   A    
C5    N2    A    
C7    O14   A    
C38   O7    S    
O14   Zn2   S    
C11   O16   S    
C9    C10   S    
C25   H5    S    
C15   C34   A    
C33   H27   S    
C32   H26   S    
O9    Zn1   S    
C16   C27   S    
C31   H20   S    
C37   H39   S    
C2    C6    A    
C37   H38   S    
C39   C42   A    
O13   Zn1   S    
C41   N1    A    
C20   O3    S    
C29   H19   S    
C3    H2    S    
C9    H1    S    
C7    O12   A    
C31   H21   S    
C26   H7    S    
C27   H14   S    
C15   H41   S    
C24   C34   A    
C37   O8    S    
C14   C23   A    
C2    C4    A    
C29   C30   S    
C36   H33   S    
C24   O6    S    
C29   H18   S    
C23   C34   S    
C30   H17   S    
C1    C18   S    
C9    C11   D    
C12   O9    A    
C33   H28   S    
C32   H25   S    
C20   C22   A    
C35   H30   S    
C31   O3    S    
C22   O5    S    
C14   C16   A    
C14   H40   S    
C25   H3    S    
C32   H24   S    
C8    O13   A    
C35   O6    S    
C15   C17   A    
O11   Zn2   S    
C35   H31   S    
C1    O1    A    
C31   H22   S    
C3    C5    A    
C10   C13   D    
C33   O5    S    
C1    O10   A    
C28   H11   S    
C25   O16   S    
C4    N2    A    
C26   H6    S    
C26   O2    S    
C41   H43   S    
O10   Zn2   S    
C5    H34   S    
C36   H36   S    
C38   C40   A    
N2    Zn1   S    
C28   H10   S    
C36   O7    S    
C32   O4    S    
N1    Zn2   S    
C8    C11   S    
C30   H16   S    
C12   C19   S    
C17   C19   A    
C2    H44   S    
O15   Zn2   S    
C18   C20   A    
C10   H12   S    
C8    O15   A    
C39   O8    S    
C33   H29   S    
C7    C13   S    
C16   C18   A    
C6    C42   S    
C21   C24   A    
O1    Zn1   S    
C27   C28   S    
C22   C23   A    
C25   H4    S    
C21   O4    S    
