data_mof_unit_51844.cif
_audit_creation_date              2012-12-10T17:18:15-0500
_audit_creation_method            fapswitch 2.2
_symmetry_space_group_name_H-M    P1
_symmetry_Int_Tables_number       1
_space_group_crystal_system       triclinic
_cell_length_a                    10.191224
_cell_length_b                    10.836761
_cell_length_c                    14.932521
_cell_angle_alpha                 89.888924
_cell_angle_beta                  80.561349
_cell_angle_gamma                 95.633135
_cell_volume                      1618.68949914

loop_
_atom_site_label
_atom_site_type_symbol
_atom_type_description
_atom_site_fract_x
_atom_site_fract_y
_atom_site_fract_z
_atom_type_partial_charge
Br1   Br    Br    0.627266 0.108840 0.601835 -0.628774
Br2   Br    Br    0.372303 0.891122 0.396783 -0.606222
C1    C     C_R   0.556513 0.732151 0.491264 0.938043
C2    C     C_2   0.079678 0.502414 0.482827 -0.066464
C3    C     C_R   0.499127 0.498753 0.672692 0.871350
C4    C     C_R   0.500557 0.500868 0.327399 0.877572
C5    C     C_R   0.452962 0.398495 0.193988 -0.308169
C6    C     C_R   0.538924 0.602598 0.807320 -0.318221
C7    C     C_R   0.502130 0.505849 0.232087 -0.063058
C8    C     C_R   0.495895 0.493808 0.768301 -0.066727
C9    C     C_R   0.550056 0.614502 0.180986 0.041773
C10   C     C_R   0.446374 0.385450 0.819468 0.043262
C11   C     C_R   0.543880 0.613073 0.087363 0.079953
C12   C     C_R   0.443444 0.267833 0.508380 0.948879
C13   C     C_R   0.446674 0.388017 0.913980 0.068905
C14   C     C_R   0.495657 0.501838 0.047578 0.011550
C15   C     C_R   0.493376 0.499344 0.953943 0.004926
C16   C     C_R   0.450910 0.392978 0.101378 0.083081
C17   C     C_R   0.537772 0.608235 0.900199 0.102987
C18   C     C_R   0.583936 0.720222 0.032889 -0.274073
C19   C     C_R   0.402736 0.281699 0.968893 -0.246700
C20   C     C_3   0.607491 0.729050 0.226732 -0.390304
C21   C     C_3   0.760910 0.742494 0.207367 -0.356943
C22   C     C_3   0.818465 0.858707 0.250626 -0.847460
C23   C     C_R   0.580392 0.719912 0.940357 0.104097
C24   C     C_3   0.393294 0.269987 0.772822 -0.389315
C25   C     C_3   0.239925 0.256473 0.787391 -0.357105
C26   C     C_3   0.185734 0.135860 0.748161 -0.862081
C27   C     C_3   0.623874 0.840661 0.887125 -0.417476
C28   C     C_3   0.768469 0.842696 0.837775 -0.372182
C29   C     C_3   0.805288 0.953378 0.772360 -0.821087
C30   C     C_3   0.361723 0.162830 0.120201 -0.407450
C31   C     C_3   0.321873 0.044398 0.070193 -0.394208
C32   C     C_3   0.286651 0.933091 0.135554 -0.810403
C33   C     C_3   0.104151 0.644361 0.600866 -0.237216
C34   C     C_R   0.405297 0.281218 0.062072 0.098393
C35   C     C_3   0.186152 0.674807 0.676543 -0.264335
C36   C     C_3   0.126188 0.773199 0.739051 -0.993579
C37   C     C_3   0.878893 0.337031 0.414816 -0.171906
C38   C     C_3   0.929414 0.365678 0.313597 -0.399907
C39   C     C_3   0.975017 0.250397 0.263993 -0.904706
C40   C     C_2   0.589709 0.863613 0.493259 -0.415647
C41   C     C_2   0.410201 0.136430 0.505551 -0.407699
C42   C     C_2   0.499361 0.939184 0.478174 0.255603
C43   C     C_2   0.500380 0.060691 0.520497 0.239968
C44   C     C_2   0.934087 0.526244 0.488430 -0.086980
H1    H     H_    0.417406 0.319103 0.238602 0.138477
H2    H     H_    0.787947 0.853604 0.325518 0.274509
H3    H     H_    0.929326 0.866527 0.234772 0.249556
H4    H     H_    0.798292 0.659960 0.235304 0.235592
H5    H     H_    0.797705 0.747767 0.133094 0.221513
H6    H     H_    0.566710 0.813788 0.205870 0.208261
H7    H     H_    0.575707 0.724585 0.301247 0.221517
H8    H     H_    0.222692 0.133137 0.674090 0.277662
H9    H     H_    0.216996 0.055105 0.782316 0.261474
H10   H     H_    0.074928 0.129586 0.759313 0.252845
H11   H     H_    0.198008 0.257786 0.860838 0.220631
H12   H     H_    0.573155 0.682579 0.763143 0.152026
H13   H     H_    0.204999 0.335746 0.753611 0.238232
H14   H     H_    0.429920 0.273547 0.698809 0.223714
H15   H     H_    0.432950 0.185897 0.796120 0.214277
H16   H     H_    0.741068 0.945920 0.719050 0.293975
H17   H     H_    0.792718 0.041538 0.809159 0.269677
H18   H     H_    0.910839 0.954055 0.738942 0.246729
H19   H     H_    0.837323 0.848022 0.888515 0.226014
H20   H     H_    0.782711 0.756601 0.798690 0.225931
H21   H     H_    0.553894 0.855520 0.839276 0.205630
H22   H     H_    0.617772 0.921135 0.933272 0.192686
H23   H     H_    0.619942 0.806181 0.061016 0.157121
H24   H     H_    0.373765 0.916059 0.168137 0.274167
H25   H     H_    0.200846 0.949576 0.188918 0.269567
H26   H     H_    0.258786 0.849116 0.097638 0.244950
H27   H     H_    0.233136 0.057385 0.037990 0.225292
H28   H     H_    0.406375 0.023549 0.017092 0.220172
H29   H     H_    0.446051 0.143181 0.155074 0.212218
H30   H     H_    0.275087 0.180738 0.172555 0.207119
H31   H     H_    0.122641 0.859528 0.699718 0.279861
H32   H     H_    0.023924 0.738699 0.772758 0.268325
H33   H     H_    0.188968 0.794863 0.792256 0.263134
H34   H     H_    0.366059 0.197940 0.939179 0.154579
H35   H     H_    0.186074 0.590001 0.718433 0.228949
H36   H     H_    0.289192 0.712365 0.648159 0.270227
H37   H     H_    0.097866 0.731078 0.562402 0.196791
H38   H     H_    0.002865 0.609380 0.636935 0.159077
H39   H     H_    0.058423 0.216056 0.293203 0.263330
H40   H     H_    0.890793 0.175988 0.269596 0.268595
H41   H     H_    0.010637 0.273622 0.191037 0.259302
H42   H     H_    0.847851 0.399724 0.282163 0.243722
H43   H     H_    0.014373 0.439476 0.304780 0.222398
H44   H     H_    0.952076 0.290052 0.446913 0.161980
H45   H     H_    0.323089 0.105749 0.475462 0.178096
H46   H     H_    0.789360 0.269196 0.420271 0.232279
H47   H     H_    0.676886 0.894589 0.523192 0.175840
H48   H     H_    0.122399 0.439111 0.432820 0.154995
H49   H     H_    0.900450 0.610501 0.519105 0.143116
H50   H     H_    0.783024 0.942739 0.223557 0.258014
N1    N     N_2   0.842700 0.448880 0.462930 -0.087876
N2    N     N_2   0.157300 0.551120 0.537070 -0.079063
O1    O     O_R   0.431060 0.692470 0.507460 -0.570402
O2    O     O_R   0.568940 0.307530 0.492540 -0.575991
O3    O     O_R   0.651120 0.659650 0.483670 -0.629423
O4    O     O_R   0.348880 0.340350 0.516330 -0.624311
O5    O     O_R   0.389960 0.516440 0.644050 -0.652571
O6    O     O_R   0.610040 0.483560 0.355950 -0.629582
O7    O     O_R   0.610030 0.483620 0.620260 -0.592360
O8    O     O_R   0.389970 0.516380 0.379740 -0.602858
Zn1   Zn    Zn3+2 0.353060 0.521920 0.515880 0.957003
Zn2   Zn    Zn3+2 0.646940 0.478080 0.484120 0.959345

loop_
_geom_bond_atom_site_label_1
_geom_bond_atom_site_label_2
_ccdc_geom_bond_type
C3    O5    A    
C1    C40   S    
C18   C23   A    
C2    N2    D    
C40   H47   S    
C30   H29   S    
C26   H10   S    
C19   C34   A    
C3    O7    A    
C39   H40   S    
C24   C25   S    
C35   C36   S    
C30   C34   S    
C33   C35   S    
C24   H15   S    
C22   H50   S    
C28   C29   S    
C37   N1    S    
O8    Zn1   S    
C5    C7    A    
C6    H12   S    
C27   H21   S    
N1    Zn2   S    
C44   H49   S    
Br2   C42   S    
C14   C15   A    
C21   C22   S    
C4    O6    A    
C38   H43   S    
C33   N2    S    
C32   H24   S    
C37   H44   S    
C1    O3    A    
O3    Zn2   S    
C29   H16   S    
C35   H35   S    
C40   C42   D    
C4    C7    S    
C26   H9    S    
C20   H7    S    
C23   C27   S    
C39   H41   S    
O7    Zn2   S    
O2    Zn2   S    
C6    C17   A    
C22   H2    S    
C29   H17   S    
C25   H11   S    
C37   C38   S    
C26   H8    S    
C21   H4    S    
C2    C44   S    
C36   H32   S    
C41   H45   S    
N2    Zn1   S    
C10   C24   S    
C5    H1    S    
C27   C28   S    
C27   H22   S    
C7    C9    A    
C21   H5    S    
C10   C13   A    
C5    C16   A    
C31   C32   S    
C4    O8    A    
O4    Zn1   S    
C14   C16   A    
C41   C43   D    
C28   H20   S    
C8    C10   A    
C2    H48   S    
C31   H27   S    
C38   C39   S    
C44   N1    D    
C35   H36   S    
C32   H26   S    
C37   H46   S    
O6    Zn2   S    
C39   H39   S    
C42   C43   S    
C20   H6    S    
C22   H3    S    
C13   C15   A    
C33   H37   S    
C11   C18   A    
C29   H18   S    
C30   H30   S    
C33   H38   S    
C12   O2    A    
C36   H31   S    
O1    Zn1   S    
C18   H23   S    
C9    C20   S    
C30   C31   S    
C38   H42   S    
C3    C8    S    
C25   H13   S    
C9    C11   A    
Br1   C43   S    
C24   H14   S    
C19   H34   S    
C15   C17   A    
C17   C23   A    
C28   H19   S    
C12   O4    A    
C1    O1    A    
C31   H28   S    
C13   C19   A    
C6    C8    A    
C36   H33   S    
C11   C14   A    
C25   C26   S    
C20   C21   S    
O5    Zn1   S    
C16   C34   A    
C32   H25   S    
C12   C41   S    
