data_mof_unit_12632.cif
_audit_creation_date              2012-12-10T18:57:13-0500
_audit_creation_method            fapswitch 2.2
_symmetry_space_group_name_H-M    P1
_symmetry_Int_Tables_number       1
_space_group_crystal_system       triclinic
_cell_length_a                    8.716273
_cell_length_b                    10.853324
_cell_length_c                    9.565128
_cell_angle_alpha                 90.379234
_cell_angle_beta                  97.963485
_cell_angle_gamma                 90.767659
_cell_volume                      896.026957158

loop_
_atom_site_label
_atom_site_type_symbol
_atom_type_description
_atom_site_fract_x
_atom_site_fract_y
_atom_site_fract_z
_atom_type_partial_charge
C1    C     C_R   0.497970 0.262451 0.499381 0.857406
C2    C     C_R   0.570136 0.593419 0.936754 0.238314
C3    C     C_3   0.736840 0.634900 0.958234 -0.290458
C4    C     C_R   0.203976 0.500145 0.463772 0.944885
C5    C     C_3   0.724529 0.646808 0.114947 -0.520818
C6    C     C_R   0.502364 0.737500 0.500843 0.786191
C7    C     C_R   0.796132 0.500677 0.536170 0.867475
C8    C     C_2   0.038077 0.496999 0.444029 -0.298477
C9    C     C_2   0.962166 0.503721 0.555753 -0.268353
C10   C     C_R   0.467786 0.063541 0.616483 -0.020289
C11   C     C_R   0.503258 0.129271 0.499928 -0.032868
C12   C     C_R   0.559827 0.935727 0.390457 -0.143061
C13   C     C_R   0.556725 0.064396 0.388964 -0.179441
C14   C     C_1   0.846390 0.537409 0.933631 0.345837
C15   C     C_1   0.215157 0.849693 0.642643 0.418096
C16   C     C_1   0.401452 0.886192 0.854515 0.217872
C17   C     C_R   0.512088 0.870735 0.504119 -0.059323
C18   C     C_R   0.477345 0.937022 0.621498 -0.029022
C19   C     C_3   0.347673 0.925412 0.709382 -0.178030
C20   C     C_3   0.333128 0.066436 0.699253 0.240269
C21   C     C_R   0.563548 0.596793 0.082610 0.281709
C22   C     C_R   0.420455 0.412610 0.063659 -0.059619
C23   C     C_R   0.419171 0.413371 0.914706 -0.051211
Cu1   Cu    Cu3+1 0.499990 0.499980 0.640670 0.993217
Cu2   Cu    Cu3+1 0.500010 0.500020 0.359330 0.975227
H1    H     H_    0.978668 0.486741 0.337220 0.155936
H2    H     H_    0.358685 0.340341 0.110867 0.159470
H3    H     H_    0.911236 0.097043 0.613210 0.371192
H4    H     H_    0.355540 0.342262 0.850608 0.175012
H5    H     H_    0.757207 0.723852 0.906448 0.175008
H6    H     H_    0.801842 0.585852 0.184182 0.212514
H7    H     H_    0.726393 0.744140 0.151904 0.200476
H8    H     H_    0.022575 0.512464 0.662611 0.193870
H9    H     H_    0.592025 0.112508 0.299553 0.166593
H10   H     H_    0.595221 0.887422 0.301127 0.164798
H11   H     H_    0.363789 0.116193 0.801588 0.078638
N1    N     N_R   0.500980 0.500930 0.148050 -0.197544
N2    N     N_R   0.500990 0.500890 0.852140 -0.206816
N3    N     N_1   0.932868 0.460594 0.916426 -0.274501
N4    N     N_1   0.111217 0.790446 0.590322 -0.290531
N5    N     N_1   0.442894 0.857349 0.969612 -0.302977
O1    O     O_R   0.500000 0.319640 0.618810 -0.577881
O2    O     O_2   0.142447 0.081215 0.449286 -0.292951
O3    O     O_3   0.003794 0.064832 0.672916 -0.524670
O4    O     O_R   0.500020 0.319680 0.381230 -0.594860
O5    O     O_R   0.274830 0.499980 0.591380 -0.557536
O6    O     O_R   0.274850 0.500020 0.353800 -0.586064
O7    O     O_R   0.499980 0.680320 0.618770 -0.595678
O8    O     O_R   0.500000 0.680360 0.381190 -0.581475
O9    O     O_R   0.725150 0.499980 0.646200 -0.579423
O10   O     O_R   0.725170 0.500020 0.408620 -0.590669
O11   O     O_2   0.154905 0.258906 0.610404 -0.321517
S1    S     S_3+6 0.155746 0.121087 0.601410 -0.013945

loop_
_geom_bond_atom_site_label_1
_geom_bond_atom_site_label_2
_ccdc_geom_bond_type
C12   C17   A    
C3    H5    S    
Cu1   N2    S    
Cu2   O10   S    
C23   N2    A    
Cu1   O1    S    
Cu2   O6    S    
C19   C20   S    
C1    C11   S    
C4    C8    S    
C5    H7    S    
Cu1   O5    S    
C16   N5    T    
C3    C5    S    
C2    C21   A    
O2    S1    D    
C2    C3    S    
C7    O10   A    
C13   H9    S    
C4    O5    A    
O11   S1    D    
C12   H10   S    
C15   C19   S    
C12   C13   A    
C11   C13   A    
C1    O4    A    
C3    C14   S    
C6    O7    A    
C9    H8    S    
C16   C19   S    
C23   H4    S    
C10   C18   A    
C17   C18   A    
C22   H2    S    
C6    O8    A    
Cu1   O9    S    
C8    H1    S    
Cu2   O8    S    
C15   N4    T    
C10   C11   A    
Cu1   O7    S    
Cu2   O4    S    
C1    O1    A    
C5    C21   S    
Cu1   Cu2   S    
C21   N1    A    
C18   C19   S    
C7    C9    S    
C6    C17   S    
C2    N2    A    
C22   C23   A    
C8    C9    D    
Cu2   N1    S    
C14   N3    T    
C22   N1    A    
O3    S1    S    
H3    O3    S    
C7    O9    A    
C10   C20   S    
C20   S1    S    
C5    H6    S    
C4    O6    A    
C20   H11   S    
