data_mof_unit_48273.cif
_audit_creation_date              2012-12-10T16:52:09-0500
_audit_creation_method            fapswitch 2.2
_symmetry_space_group_name_H-M    P1
_symmetry_Int_Tables_number       1
_space_group_crystal_system       triclinic
_cell_length_a                    7.775036
_cell_length_b                    8.558463
_cell_length_c                    14.89039
_cell_angle_alpha                 91.446546
_cell_angle_beta                  85.98495
_cell_angle_gamma                 93.68671
_cell_volume                      986.150239195

loop_
_atom_site_label
_atom_site_type_symbol
_atom_type_description
_atom_site_fract_x
_atom_site_fract_y
_atom_site_fract_z
_atom_type_partial_charge
C1    C     C_R   0.545681 0.794639 0.496950 0.981379
C2    C     C_R   0.548068 0.646422 0.814091 0.063914
C3    C     C_R   0.491434 0.494403 0.232280 -0.084803
C4    C     C_R   0.508566 0.505597 0.767720 -0.084803
C5    C     C_R   0.531761 0.634686 0.188630 -0.267967
C6    C     C_R   0.468239 0.365314 0.811370 -0.267967
C7    C     C_R   0.535095 0.637889 0.095964 0.130755
C8    C     C_R   0.464905 0.362111 0.904036 0.130755
C9    C     C_R   0.497408 0.498147 0.046959 0.039118
C10   C     C_R   0.502592 0.501853 0.953041 0.039119
C11   C     C_R   0.455014 0.354901 0.091810 0.088451
C12   C     C_R   0.454319 0.205360 0.503049 0.981379
C13   C     C_R   0.544985 0.645099 0.908190 0.088450
C14   C     C_R   0.576891 0.778686 0.051883 -0.200782
C15   C     C_R   0.423109 0.221314 0.948117 -0.200782
C16   C     C_R   0.581916 0.782487 0.958740 -0.186129
C17   C     C_R   0.418083 0.217513 0.041260 -0.186129
C18   C     C_2   0.569747 0.958169 0.495354 -0.325934
C19   C     C_2   0.430253 0.041831 0.504646 -0.325933
C20   C     C_R   0.502848 0.502729 0.672687 0.927766
C21   C     C_R   0.497151 0.497271 0.327313 0.927766
C22   C     C_R   0.451932 0.353578 0.185908 0.063914
H1    H     H_    0.561812 0.741082 0.227283 0.161753
H2    H     H_    0.986545 0.617728 0.568089 0.208236
H3    H     H_    0.438188 0.258918 0.772717 0.161753
H4    H     H_    0.606179 0.886055 0.089533 0.168826
H5    H     H_    0.393821 0.113945 0.910467 0.168826
H6    H     H_    0.615126 0.893919 0.927576 0.183762
H7    H     H_    0.384874 0.106081 0.072423 0.183762
H8    H     H_    0.701534 0.009147 0.486893 0.186874
H9    H     H_    0.298465 0.990853 0.513107 0.186874
H10   H     H_    0.013455 0.382271 0.431911 0.208236
I1    I     I_    0.392454 0.142481 0.259709 -0.433230
I2    I     I_    0.607546 0.857519 0.740291 -0.433230
N1    N     N_2   0.950330 0.457950 0.475660 -0.169370
N2    N     N_2   0.049670 0.542050 0.524340 -0.169370
O1    O     O_R   0.389250 0.738570 0.505970 -0.610912
O2    O     O_R   0.610750 0.261430 0.494030 -0.610912
O3    O     O_R   0.678390 0.711620 0.490370 -0.624986
O4    O     O_R   0.321610 0.288380 0.509630 -0.624986
O5    O     O_R   0.355420 0.513510 0.639950 -0.606853
O6    O     O_R   0.644580 0.486490 0.360050 -0.606853
O7    O     O_R   0.644560 0.486560 0.624350 -0.613292
O8    O     O_R   0.355440 0.513440 0.375650 -0.613293
Zn1   Zn    Zn3+2 0.306940 0.517990 0.510420 0.983424
Zn2   Zn    Zn3+2 0.693060 0.482010 0.489580 0.983424

loop_
_geom_bond_atom_site_label_1
_geom_bond_atom_site_label_2
_ccdc_geom_bond_type
C16   H6    S    
C2    C4    A    
C12   O4    A    
C18   H8    S    
C21   O8    A    
C17   H7    S    
C9    C10   A    
C11   C22   A    
C15   H5    S    
N1    N2    D    
C5    H1    S    
C1    O1    A    
C19   H9    S    
C2    I2    S    
C20   O5    A    
N2    Zn1   S    
C14   H4    S    
C9    C11   A    
C1    C18   S    
H2    N2    S    
C22   I1    S    
O3    Zn2   S    
C12   C19   S    
C8    C10   A    
C8    C15   A    
C5    C7    A    
C12   O2    A    
O4    Zn1   S    
O7    Zn2   S    
C14   C16   A    
O2    Zn2   S    
C6    H3    S    
C3    C21   S    
C1    O3    A    
O1    Zn1   S    
C21   O6    A    
C4    C20   S    
H10   N1    S    
C20   O7    A    
O8    Zn1   S    
C4    C6    A    
C18   C19   D    
O6    Zn2   S    
C13   C16   A    
C7    C9    A    
C2    C13   A    
O5    Zn1   S    
C11   C17   A    
C3    C22   A    
C6    C8    A    
C15   C17   A    
N1    Zn2   S    
C7    C14   A    
C3    C5    A    
C10   C13   A    
