data_mof_unit_15635.cif
_audit_creation_date              2013-03-05T15:44:56-0500
_audit_creation_method            fapswitch 2.2
_symmetry_space_group_name_H-M    P1
_symmetry_Int_Tables_number       1
_space_group_crystal_system       triclinic
_cell_length_a                    8.533842
_cell_length_b                    16.749917
_cell_length_c                    18.964392
_cell_angle_alpha                 95.501903
_cell_angle_beta                  94.899909
_cell_angle_gamma                 94.618262
_cell_volume                      2677.66662609

loop_
_atom_site_label
_atom_site_type_symbol
_atom_site_description
_atom_site_fract_x
_atom_site_fract_y
_atom_site_fract_z
_atom_type_partial_charge
P1    P     P_3+3 0.950430 0.683250 0.555020 0.487060
O1    O     O_2   0.121950 0.695970 0.534170 -0.365371
O2    O     O_3   0.871970 0.595810 0.535570 -0.347363
O3    O     O_3   0.356610 0.647930 0.408330 -0.264379
O4    O     O_2   0.282007 0.788914 0.472190 -0.366289
O5    O     O_3   0.953245 0.727955 0.643622 -0.609202
O6    O     O_3   0.330978 0.793040 0.340314 -0.558372
C1    C     C_3   0.457509 0.874183 0.261512 -0.900588
H1    H     H_    0.339085 0.887606 0.239688 0.259371
H2    H     H_    0.504989 0.923003 0.303509 0.224712
P2    P     P_3+3 0.353690 0.438260 0.341200 0.497822
P3    P     P_3+3 0.911247 0.594751 0.279654 0.543762
O7    O     O_2   0.180290 0.462550 0.330450 -0.383402
O8    O     O_3   0.940700 0.607800 0.373310 -0.363511
O9    O     O_2   0.046377 0.549122 0.250887 -0.368392
O10   O     O_3   0.329215 0.334792 0.316933 -0.597069
O11   O     O_3   0.936872 0.687326 0.244506 -0.487049
C2    C     C_3   0.952715 0.750741 0.299250 0.245433
H3    H     H_    0.046521 0.740391 0.340783 0.162326
H4    H     H_    0.839762 0.756115 0.323482 0.054574
C3    C     C_3   0.000270 0.829439 0.267636 0.308828
H5    H     H_    0.098990 0.818072 0.234649 0.098016
C4    C     C_3   0.828084 0.348303 0.308389 0.157122
H6    H     H_    0.703443 0.359451 0.295605 0.074234
H7    H     H_    0.895489 0.404963 0.332890 0.097905
C5    C     C_3   0.900264 0.317447 0.239448 0.215354
H8    H     H_    0.030568 0.326546 0.251973 0.103648
Ba1   Ba    Ba6+2 0.153080 0.539460 0.466290 1.642232
C6    C     C_3   0.011013 0.685723 0.699097 0.430868
H9    H     H_    0.029963 0.623723 0.678943 0.056879
C7    C     C_3   0.882926 0.684964 0.752054 -0.172397
H10   H     H_    0.865266 0.747665 0.772880 0.136422
H11   H     H_    0.770213 0.660200 0.723163 0.175188
C8    C     C_3   0.293907 0.292665 0.374143 0.260238
H12   H     H_    0.183221 0.312204 0.393764 0.078988
H13   H     H_    0.392134 0.302928 0.417260 0.131400
C9    C     C_3   0.269392 0.202648 0.347733 -0.499002
H14   H     H_    0.150679 0.189565 0.318201 0.242387
H15   H     H_    0.273146 0.166832 0.393886 0.184621
P4    P     P_3+3 0.859870 0.316740 0.444930 0.479243
O12   O     O_2   0.688350 0.303980 0.465810 -0.360202
O13   O     O_3   0.938330 0.404180 0.464370 -0.388915
O14   O     O_3   0.453690 0.352060 0.591610 -0.377727
O15   O     O_3   0.828404 0.286687 0.353138 -0.569677
P5    P     P_3+3 0.890732 0.398136 0.720350 0.518250
O16   O     O_3   0.374800 0.540170 0.583060 -0.366945
O17   O     O_3   0.869600 0.392190 0.626640 -0.388486
O18   O     O_2   0.737059 0.430097 0.744521 -0.298604
O19   O     O_3   0.906078 0.300079 0.755526 -0.533952
Ba2   Ba    Ba6+2 0.657090 0.460530 0.533660 1.590577
P6    P     P_3+3 0.394631 0.755017 0.419679 0.545271
C10   C     C_3   0.450066 0.793514 0.292953 0.809398
H16   H     H_    0.569976 0.787970 0.318503 -0.010271
H17   H     H_    0.534783 0.873380 0.217489 0.297823
O20   O     O_3   0.435500 0.459820 0.416880 -0.344188
C11   C     C_3   0.550268 0.704085 0.621340 0.438738
H18   H     H_    0.652617 0.671588 0.607142 0.118183
H19   H     H_    0.459090 0.696287 0.575175 0.122677
C12   C     C_3   0.603916 0.793676 0.639492 -1.083382
H20   H     H_    0.636396 0.808069 0.697564 0.287089
H21   H     H_    0.708947 0.810976 0.612767 0.249060
H22   H     H_    0.509790 0.831421 0.622148 0.255881
P7    P     P_3+3 0.458255 0.570101 0.670008 0.467035
O21   O     O_2   0.630010 0.537400 0.669530 -0.348295
O22   O     O_3   0.488106 0.675266 0.680994 -0.596898
C13   C     C_3   0.948641 0.233148 0.708597 0.437970
H23   H     H_    0.876679 0.232182 0.656841 0.066958
C14   C     C_3   0.927807 0.142071 0.736285 0.173244
P8    P     P_3+3 0.429140 0.246260 0.585217 0.430909
C15   C     C_3   0.533967 0.263775 0.725347 0.076747
H24   H     H_    0.536350 0.327385 0.716096 0.165002
O23   O     O_2   0.572402 0.213666 0.551149 -0.420642
O24   O     O_3   0.433255 0.213594 0.672386 -0.542938
H25   H     H_    0.652724 0.250306 0.716899 0.123591
C16   C     C_3   0.496451 0.254729 0.806273 0.538835
C17   C     C_R   0.707407 0.736195 0.466657 0.000778
C18   C     C_R   0.855087 0.758397 0.502968 0.174172
C19   C     C_R   0.908218 0.841854 0.515383 -0.207341
C20   C     C_R   0.808006 0.901320 0.494827 0.196142
C21   C     C_R   0.650608 0.875482 0.468317 -0.362720
C22   C     C_R   0.600423 0.793008 0.454580 0.088358
C23   C     C_R   0.926244 0.151687 0.473788 0.042561
C24   C     C_R   0.974892 0.236901 0.484982 0.253180
C25   C     C_R   0.031986 0.095010 0.498853 0.148214
N1    N     N_2   0.853520 0.986734 0.505019 -0.083565
N2    N     N_2   0.992742 0.008568 0.494226 -0.015021
C26   C     C_R   0.129319 0.261837 0.514889 -0.551816
H26   H     H_    0.568537 0.919533 0.456549 0.174807
C27   C     C_R   0.238045 0.206901 0.532902 0.282162
C28   C     C_R   0.187865 0.124230 0.525372 -0.371866
H27   H     H_    0.022937 0.860229 0.543654 0.170880
H28   H     H_    0.268952 0.082329 0.543480 0.178781
H29   H     H_    0.167557 0.325488 0.522311 0.177310
C29   C     C_R   0.625378 0.507563 0.292800 -0.388190
C30   C     C_R   0.465034 0.486351 0.275336 0.344411
C31   C     C_R   0.398845 0.491684 0.205703 -0.215663
C32   C     C_R   0.491979 0.523288 0.154827 0.060631
C33   C     C_R   0.651261 0.551073 0.176256 -0.195783
C34   C     C_R   0.716679 0.543991 0.245455 0.257905
C35   C     C_R   0.470874 0.589647 0.040260 -0.066151
C36   C     C_R   0.412519 0.590030 0.968925 -0.127759
C37   C     C_R   0.307066 0.526511 0.934595 0.159212
C38   C     C_R   0.259311 0.463448 0.974381 -0.043344
C39   C     C_R   0.317103 0.463232 0.045695 -0.179541
C40   C     C_R   0.424650 0.526009 0.079662 0.134934
C41   C     C_R   0.103500 0.486210 0.829684 -0.096676
C42   C     C_R   0.058193 0.475499 0.756348 0.290048
C43   C     C_R   0.320516 0.535484 0.734785 0.261472
C44   C     C_R   0.361155 0.548720 0.808458 -0.172142
C45   C     C_R   0.254153 0.523409 0.856879 0.094147
C46   C     C_R   0.166009 0.503500 0.709728 -0.551798
H30   H     H_    0.478982 0.574822 0.827577 0.168973
H31   H     H_    0.450445 0.640212 0.940617 0.142663
H32   H     H_    0.552374 0.639505 0.064368 0.185990
H33   H     H_    0.275911 0.470861 0.191339 0.152869
H34   H     H_    0.181062 0.412454 0.949995 0.162893
H35   H     H_    0.281199 0.412286 0.073512 0.131347
H36   H     H_    0.022828 0.462327 0.865067 0.163728
H37   H     H_    0.724979 0.577827 0.139534 0.162723
H38   H     H_    0.133257 0.494582 0.652956 0.182941
H39   H     H_    0.677861 0.500326 0.345589 0.178174
N3    N     N_R   0.413317 0.727807 0.235999 0.228802
O25   O     O_R   0.511038 0.716392 0.187805 -0.406354
O26   O     O_R   0.287545 0.678158 0.234566 -0.338387
N4    N     N_R   0.858167 0.230994 0.219680 0.282779
O27   O     O_R   0.965606 0.184875 0.200121 -0.380957
O28   O     O_R   0.712924 0.200137 0.218476 -0.391435
C47   C     C_3   0.861706 0.364871 0.175254 -0.520916
C48   C     C_3   0.692673 0.347400 0.139864 -0.671006
H40   H     H_    0.673931 0.285069 0.113079 0.305185
H41   H     H_    0.604679 0.355991 0.179016 0.215110
H42   H     H_    0.672817 0.389001 0.098446 0.241360
H43   H     H_    0.884954 0.429851 0.191720 0.198759
H44   H     H_    0.943817 0.350090 0.134392 0.232527
C49   C     C_3   0.165120 0.732147 0.737460 -0.328231
C50   C     C_3   0.239903 0.796780 0.696327 -0.717688
H45   H     H_    0.264285 0.770576 0.643195 0.279016
H46   H     H_    0.159730 0.844840 0.690007 0.241293
H47   H     H_    0.351469 0.824355 0.726420 0.246219
H48   H     H_    0.143837 0.764520 0.789195 0.216706
H49   H     H_    0.251806 0.688963 0.750101 0.190858
N5    N     N_R   0.917281 0.638386 0.811915 0.231243
O29   O     O_R   0.812076 0.582678 0.825338 -0.367159
O30   O     O_R   0.030153 0.664640 0.861129 -0.417459
C51   C     C_3   0.395555 0.177069 0.298972 -0.152624
C52   C     C_3   0.373485 0.087319 0.274942 -0.754246
H50   H     H_    0.381698 0.052464 0.321852 0.262573
H51   H     H_    0.257205 0.072080 0.243636 0.310179
H52   H     H_    0.466780 0.070902 0.240258 0.266738
H53   H     H_    0.388330 0.209534 0.250511 0.252575
H54   H     H_    0.514664 0.192423 0.327444 0.214820
N6    N     N_R   0.869009 0.852479 0.221074 0.232106
O31   O     O_R   0.816247 0.805916 0.163677 -0.322202
O32   O     O_R   0.818231 0.923533 0.231074 -0.370227
C53   C     C_3   0.120990 0.245791 0.693543 -0.428470
C54   C     C_3   0.185095 0.329505 0.688665 -0.697615
H55   H     H_    0.126883 0.354992 0.643171 0.227024
H56   H     H_    0.186523 0.358747 0.742211 0.267286
H57   H     H_    0.306595 0.338040 0.682519 0.244398
H58   H     H_    0.197636 0.223178 0.734680 0.240167
H59   H     H_    0.131525 0.210316 0.643971 0.181345
C55   C     C_3   0.753099 0.106747 0.734994 -0.217117
C56   C     C_3   0.666886 0.082797 0.660310 -0.799436
H60   H     H_    0.697710 0.127492 0.623893 0.260300
H61   H     H_    0.699240 0.023914 0.636943 0.235763
H62   H     H_    0.537541 0.075780 0.662010 0.309140
H63   H     H_    0.745129 0.052220 0.763976 0.205453
H64   H     H_    0.690648 0.148089 0.767375 0.183776
C57   C     C_3   0.010201 0.079907 0.685776 -0.368082
C58   C     C_3   0.997844 0.990470 0.699265 -0.840122
H65   H     H_    0.074276 0.980775 0.747453 0.266838
H66   H     H_    0.876344 0.964515 0.703677 0.257024
H67   H     H_    0.041674 0.955657 0.653416 0.237912
H68   H     H_    0.963821 0.083772 0.630177 0.190049
H69   H     H_    0.139015 0.095474 0.688262 0.241328
C59   C     C_3   0.008987 0.137640 0.813297 -0.335481
C60   C     C_3   0.944556 0.185019 0.875082 -0.627756
H70   H     H_    0.948498 0.249906 0.868820 0.313535
H71   H     H_    0.824253 0.158683 0.881441 0.254252
H72   H     H_    0.018796 0.178620 0.924909 0.257636
H73   H     H_    0.999208 0.074371 0.826389 0.210438
H74   H     H_    0.135853 0.154025 0.816088 0.266638
N7    N     N_R   0.384293 0.312346 0.827012 0.201513
O33   O     O_R   0.426814 0.388509 0.827084 -0.427171
O34   O     O_R   0.264975 0.291649 0.861719 -0.418183
N8    N     N_R   0.639123 0.277041 0.856247 0.199666
O35   O     O_R   0.642551 0.252538 0.919433 -0.351125
O36   O     O_R   0.722640 0.344244 0.851595 -0.340571
N9    N     N_R   0.432400 0.171865 0.816839 0.202650
O37   O     O_R   0.400835 0.115320 0.764547 -0.461352
O38   O     O_R   0.402147 0.154142 0.879991 -0.317190
C61   C     C_3   0.771611 0.121039 0.429883 -0.408737
C62   C     C_3   0.800490 0.074847 0.359410 -0.628264
H75   H     H_    0.878399 0.112723 0.329475 0.287244
H76   H     H_    0.855123 0.018460 0.368077 0.283432
H77   H     H_    0.686746 0.058340 0.326677 0.235657
H78   H     H_    0.693786 0.083937 0.460199 0.196451
H79   H     H_    0.699992 0.169837 0.416524 0.242089
N10   N     N_R   0.670918 0.657071 0.433396 0.237087
O39   O     O_R   0.606389 0.602834 0.468873 -0.349963
O40   O     O_R   0.640661 0.650671 0.364902 -0.472033
N11   N     N_R   0.055504 0.895228 0.323171 0.221786
O41   O     O_R   0.066604 0.883817 0.390147 -0.422480
O42   O     O_R   0.107653 0.964666 0.305131 -0.398081

loop_
_geom_bond_atom_site_label_1
_geom_bond_atom_site_label_2
_geom_bond_distance
_ccdc_geom_bond_type
C24   C26   1.403965 A    
P7    O22   1.749147 S    
C36   C37   1.406614 A    
C8    C9    1.534433 S    
Ba2   O21   2.804289 S    
C57   C58   1.540593 S    
C13   C14   1.661448 S    
C56   H60   1.097766 S    
C16   N7    1.463713 S    
C47   C48   1.531620 S    
C32   C33   1.413118 A    
C14   C59   1.573115 S    
C33   H37   1.082058 S    
C18   C19   1.425376 A    
C11   H18   1.104671 S    
C59   H74   1.090792 S    
Ba1   O16   2.785624 S    
C35   C40   1.409103 A    
C9    H14   1.109863 S    
N11   O42   1.298778 A    
P2    Ba1   3.438282 S    
C54   H55   1.097720 S    
C56   H61   1.107385 S    
C25   N2    1.452176 S    
O6    C10   1.412656 S    
C8    H12   1.106470 S    
N7    O34   1.300629 A    
C13   C53   1.524060 S    
C3    N6    1.466089 S    
C41   C42   1.401809 A    
C11   O22   1.400093 S    
C2    C3    1.539075 S    
P1    C18   1.867288 S    
C43   C44   1.402470 A    
P1    O1    1.552107 D    
C14   C57   1.593042 S    
C4    C5    1.554084 S    
Ba1   O13   2.792564 S    
N9    O38   1.302975 A    
P3    C34   1.839412 S    
O10   C8    1.390766 S    
C10   N3    1.461111 S    
Ba1   O20   3.021593 S    
C30   C31   1.405059 A    
C1    H1    1.107324 S    
C60   H71   1.105240 S    
P3    O11   1.750731 S    
C15   H25   1.077635 S    
P1    Ba1   3.466081 S    
C4    H6    1.105282 S    
C7    H11   1.095259 S    
O7    Ba1   2.804258 S    
P8    O24   1.788846 S    
C15   H24   1.095151 S    
C61   H79   1.095224 S    
P6    C22   1.862240 S    
P4    O15   1.756741 S    
C2    H4    1.109124 S    
C51   H53   1.111607 S    
C62   H75   1.110147 S    
C48   H42   1.110156 S    
C32   C40   1.496954 S    
C60   H72   1.110811 S    
P4    O13   1.557463 S    
C13   H23   1.110492 S    
N10   O39   1.296586 A    
O14   P8    1.758903 S    
C3    H5    1.109221 S    
C41   H36   1.081802 S    
C6    C7    1.546395 S    
C23   C61   1.522970 S    
P4    C24   1.899362 S    
C49   H48   1.110805 S    
C25   C28   1.412694 A    
C50   H47   1.109637 S    
P8    C27   1.871744 S    
C39   C40   1.405942 A    
O3    Ba1   2.779729 S    
O2    Ba2   2.793241 S    
C51   C52   1.520350 S    
O17   Ba2   2.807758 S    
C52   H51   1.109887 S    
P5    O17   1.763267 S    
C59   H73   1.109707 S    
C12   H21   1.099164 S    
O19   C13   1.452687 S    
C52   H50   1.110272 S    
O3    P6    1.785859 S    
C37   C38   1.409685 A    
C49   C50   1.524300 S    
C56   H62   1.104161 S    
C35   H32   1.081256 S    
C17   C18   1.388503 A    
C50   H46   1.106202 S    
N11   O41   1.299135 A    
C44   H30   1.081760 S    
C1    H17   1.106967 S    
Ba1   Ba2   4.652157 S    
C19   C20   1.424827 A    
C50   H45   1.103163 S    
C62   H76   1.106345 S    
N1    N2    1.254249 D    
C23   C24   1.444339 A    
C53   H59   1.077448 S    
C4    O15   1.397629 S    
C55   H63   1.110634 S    
C46   H38   1.081955 S    
P1    O2    1.557486 S    
C5    N4    1.468227 S    
P8    O23   1.544333 D    
N7    O33   1.297766 A    
C6    H9    1.100996 S    
C47   H44   1.112072 S    
C52   H52   1.110035 S    
P2    O10   1.741075 S    
C28   H28   1.083127 S    
C7    H10   1.112578 S    
P3    O9    1.543049 D    
P5    O19   1.841098 S    
C57   H68   1.103862 S    
C62   H77   1.106772 S    
C31   C32   1.415641 A    
C15   O24   1.424179 S    
O11   C2    1.402067 S    
C57   H69   1.105106 S    
P7    C43   1.870962 S    
C31   H33   1.081898 S    
C5    C47   1.542865 S    
C61   H78   1.106854 S    
C51   H54   1.108327 S    
O13   Ba2   3.007253 S    
C55   H64   1.083712 S    
C1    H2    1.110770 S    
P4    O12   1.552363 D    
C6    C49   1.557856 S    
P3    O8    1.762390 S    
C60   H70   1.102742 S    
C23   C25   1.446612 A    
C26   C27   1.402833 A    
C5    H8    1.112126 S    
N4    O27   1.300831 A    
N5    O30   1.300686 A    
C20   C21   1.411942 A    
C37   C45   1.498871 S    
C16   N8    1.477142 S    
N8    O36   1.297469 A    
O12   Ba2   2.850798 S    
C20   N1    1.442128 S    
P2    O20   1.538358 S    
C10   H16   1.108943 S    
N4    O28   1.301422 A    
C48   H40   1.109574 S    
C41   C45   1.415357 A    
P5    O18   1.544414 D    
P2    C30   1.839657 S    
N9    O37   1.298552 A    
C1    C10   1.527237 S    
C39   H35   1.082671 S    
O2    Ba1   3.006210 S    
C12   H22   1.108889 S    
P1    O5    1.770195 S    
C16   N9    1.488364 S    
C53   H58   1.090539 S    
C42   C46   1.413217 A    
C3    N11   1.467884 S    
C54   H57   1.053127 S    
N6    O32   1.301539 A    
C21   C22   1.405806 A    
C17   N10   1.411037 S    
C17   C22   1.391962 A    
C43   C46   1.407759 A    
O14   Ba2   2.778961 S    
N3    O25   1.299894 A    
C14   C55   1.556428 S    
C19   H27   1.082021 S    
C55   C56   1.540698 S    
O16   Ba2   3.020579 S    
Ba2   O20   2.785084 S    
C11   C12   1.530825 S    
O16   P7    1.749525 S    
C9    C51   1.538273 S    
C61   C62   1.527803 S    
C7    N5    1.460544 S    
C59   C60   1.518900 S    
C38   H34   1.081199 S    
C27   C28   1.406195 A    
O6    P6    1.750970 S    
C9    H15   1.107246 S    
C47   H43   1.100439 S    
P2    O7    1.567842 D    
C58   H66   1.104660 S    
C29   C34   1.390529 A    
P4    Ba2   3.466741 S    
C26   H29   1.081812 S    
C54   H56   1.082948 S    
C35   C36   1.401874 A    
C49   H49   1.103199 S    
C11   H19   1.110989 S    
C8    H13   1.110662 S    
C4    H7    1.108745 S    
C29   C30   1.389252 A    
C36   H31   1.082542 S    
P7    O21   1.605950 D    
C29   H39   1.083019 S    
C12   H20   1.110843 S    
O5    C6    1.400169 S    
N6    O31   1.301072 A    
C15   C16   1.612928 S    
C21   H26   1.082987 S    
C33   C34   1.401172 A    
C58   H65   1.109345 S    
C44   C45   1.418566 A    
C38   C39   1.399852 A    
N10   O40   1.294977 A    
C2    H3    1.110001 S    
N5    O29   1.300478 A    
O4    P6    1.542962 D    
O1    Ba1   2.850191 S    
O8    Ba1   2.807066 S    
N8    O35   1.302086 A    
C53   C54   1.477832 S    
N3    O26   1.300494 A    
P5    C42   1.884936 S    
C48   H41   1.108185 S    
C58   H67   1.108794 S    
