data_mof_unit_45486.cif
_audit_creation_date              2012-12-10T20:45:35-0500
_audit_creation_method            fapswitch 2.2
_symmetry_space_group_name_H-M    P1
_symmetry_Int_Tables_number       1
_space_group_crystal_system       triclinic
_cell_length_a                    10.749627
_cell_length_b                    10.718715
_cell_length_c                    9.841387
_cell_angle_alpha                 90.0571
_cell_angle_beta                  90.537377
_cell_angle_gamma                 89.699776
_cell_volume                      1133.88019564

loop_
_atom_site_label
_atom_site_type_symbol
_atom_type_description
_atom_site_fract_x
_atom_site_fract_y
_atom_site_fract_z
_atom_type_partial_charge
C1    C     C_R   0.498820 0.259992 0.499912 0.881599
C2    C     C_R   0.212038 0.729556 0.031818 -0.108153
C3    C     C_R   0.931650 0.548494 0.389037 -0.256082
C4    C     C_R   0.872637 0.501944 0.504082 -0.082101
C5    C     C_R   0.941246 0.462767 0.619334 -0.013015
C6    C     C_R   0.068474 0.465861 0.613714 -0.258756
C7    C     C_R   0.127695 0.510580 0.498175 -0.080766
C8    C     C_R   0.059444 0.555636 0.385166 -0.004704
C9    C     C_R   0.861751 0.502580 0.852913 -0.122824
C10   C     C_R   0.817299 0.459678 0.977333 -0.154092
C11   C     C_R   0.797482 0.332346 0.997362 -0.117564
C12   C     C_R   0.260122 0.505013 0.499106 0.866223
C13   C     C_R   0.822678 0.247580 0.893053 -0.159123
C14   C     C_R   0.866864 0.290101 0.768158 -0.161740
C15   C     C_R   0.886125 0.417935 0.747387 0.159687
C16   C     C_R   0.485622 0.064146 0.622329 0.064133
C17   C     C_R   0.486195 0.128434 0.499653 -0.079462
C18   C     C_R   0.470777 0.064191 0.376615 -0.236306
C19   C     C_R   0.471133 0.935526 0.376686 -0.261285
C20   C     C_R   0.485789 0.871504 0.499850 -0.086961
C21   C     C_R   0.485987 0.936617 0.622333 0.089760
C22   C     C_3   0.572323 0.931002 0.743096 0.027573
C23   C     C_R   0.498547 0.739946 0.499987 0.901396
C24   C     C_3   0.573171 0.072955 0.741111 -0.502369
C25   C     C_R   0.469323 0.394477 0.070891 0.211369
C26   C     C_R   0.540480 0.600551 0.072549 -0.140046
C27   C     C_R   0.541161 0.600166 0.928580 -0.134456
C28   C     C_R   0.467887 0.395105 0.928102 0.246187
C29   C     C_3   0.345289 0.330847 0.922172 -0.521444
C30   C     C_3   0.348488 0.327262 0.076240 -0.510741
C31   C     C_R   0.740102 0.498922 0.501194 0.880377
C32   C     C_R   0.229275 0.783949 0.159652 -0.139108
C33   C     C_R   0.182222 0.726238 0.275726 -0.097856
C34   C     C_R   0.115926 0.614067 0.263960 0.140860
C35   C     C_R   0.096876 0.561380 0.134710 -0.191571
C36   C     C_R   0.145677 0.618446 0.019332 -0.136837
H1    H     H_    0.249185 0.774072 0.942341 0.121732
H2    H     H_    0.763317 0.299370 0.093932 0.132527
H3    H     H_    0.808686 0.148824 0.909335 0.133150
H4    H     H_    0.887407 0.223725 0.688361 0.113284
H5    H     H_    0.466526 0.112267 0.280151 0.161700
H6    H     H_    0.468401 0.887063 0.280238 0.164999
H7    H     H_    0.525041 0.892462 0.833771 0.098350
H8    H     H_    0.528518 0.114406 0.831882 0.172913
H9    H     H_    0.662199 0.117181 0.713198 0.216207
H10   H     H_    0.571948 0.682265 0.127121 0.140781
H11   H     H_    0.277707 0.871726 0.168227 0.118567
H12   H     H_    0.574177 0.680792 0.874791 0.143695
H13   H     H_    0.270153 0.391546 0.880619 0.210166
H14   H     H_    0.351055 0.236986 0.874882 0.196985
H15   H     H_    0.274030 0.383084 0.124611 0.233731
H16   H     H_    0.359094 0.231259 0.116894 0.186325
H17   H     H_    0.195777 0.769645 0.374166 0.104066
H18   H     H_    0.045714 0.475182 0.123803 0.143971
H19   H     H_    0.131463 0.576946 0.920182 0.132778
H20   H     H_    0.877948 0.583185 0.303007 0.158722
H21   H     H_    0.121331 0.431360 0.700316 0.156163
H22   H     H_    0.878097 0.601361 0.839001 0.120052
H23   H     H_    0.799378 0.525074 0.058707 0.133797
N1    N     N_R   0.499160 0.499140 0.142800 -0.099732
N2    N     N_R   0.499160 0.499180 0.857150 -0.101016
O1    O     O_R   0.500020 0.316790 0.614690 -0.613406
O2    O     O_R   0.500000 0.316760 0.385350 -0.628800
O3    O     O_R   0.316770 0.500030 0.614670 -0.631899
O4    O     O_R   0.316750 0.499990 0.385330 -0.609052
O5    O     O_R   0.500000 0.683240 0.614650 -0.619715
O6    O     O_R   0.499980 0.683210 0.385310 -0.634415
O7    O     O_R   0.683250 0.500010 0.614670 -0.604153
O8    O     O_R   0.683230 0.499970 0.385330 -0.631625
Zn1   Zn    Zn3+2 0.500010 0.500020 0.653130 0.953902
Zn2   Zn    Zn3+2 0.499990 0.499980 0.346870 0.942563
N3    N     N_2   0.691873 0.870026 0.717617 -0.275350
H24   H     H_    0.738031 0.843318 0.805267 0.212197
C37   C     C_3   0.774907 0.916467 0.614045 -0.770638
H25   H     H_    0.839006 0.840224 0.583064 0.233059
H26   H     H_    0.831698 0.994189 0.655329 0.216990
H27   H     H_    0.723375 0.948643 0.522449 0.254624

loop_
_geom_bond_atom_site_label_1
_geom_bond_atom_site_label_2
_ccdc_geom_bond_type
N2    Zn1   S    
C27   H12   S    
C30   H15   S    
C16   C21   A    
C35   C36   A    
C1    O1    A    
C7    C8    A    
C29   H13   S    
C25   C28   A    
C26   C27   A    
C37   H26   S    
C24   H9    S    
C23   O5    A    
C28   C29   S    
C18   C19   A    
C5    C6    A    
C12   O3    A    
O1    Zn1   S    
C2    C32   A    
C34   C35   A    
C23   O6    A    
O8    Zn2   S    
C27   N2    A    
C19   C20   A    
C16   C17   A    
C37   H27   S    
C25   N1    A    
O3    Zn1   S    
C9    C10   A    
C19   H6    S    
C28   N2    A    
C16   C24   S    
C21   C22   S    
C35   H18   S    
C6    H21   S    
C31   O7    A    
C1    O2    A    
C22   N3    S    
C17   C18   A    
C29   H14   S    
C33   H17   S    
C7    C12   S    
C5    C15   S    
C37   H25   S    
N3    C37   S    
C3    C8    A    
C18   H5    S    
N3    H24   S    
N1    Zn2   S    
O4    Zn2   S    
C11   H2    S    
C29   C30   S    
C3    H20   S    
C22   H7    S    
C20   C23   S    
C33   C34   A    
C8    C34   S    
O2    Zn2   S    
C24   H8    S    
C32   H11   S    
C22   C24   S    
C3    C4    A    
C2    C36   A    
C25   C30   S    
C30   H16   S    
C9    H22   S    
C4    C5    A    
C6    C7    A    
C12   O4    A    
C1    C17   S    
C32   C33   A    
C10   H23   S    
C9    C15   A    
C36   H19   S    
C11   C13   A    
C2    H1    S    
O5    Zn1   S    
O6    Zn2   S    
C13   H3    S    
C4    C31   S    
C10   C11   A    
C26   H10   S    
C14   H4    S    
C31   O8    A    
C20   C21   A    
O7    Zn1   S    
C14   C15   A    
C13   C14   A    
C26   N1    A    
