data_mof_unit_42056.cif
_audit_creation_date              2012-10-26T20:25:38-0400
_audit_creation_method            fapswitch 2.2
_symmetry_space_group_name_H-M    P1
_symmetry_Int_Tables_number       1
_space_group_crystal_system       triclinic
_cell_length_a                    23.503092
_cell_length_b                    10.637078
_cell_length_c                    9.412447
_cell_angle_alpha                 90.021155
_cell_angle_beta                  90.131735
_cell_angle_gamma                 89.895877
_cell_volume                      2353.14123503

loop_
_atom_site_label
_atom_site_type_symbol
_atom_type_description
_atom_site_fract_x
_atom_site_fract_y
_atom_site_fract_z
_atom_type_partial_charge
C1    C     C_R   0.499521 0.259768 0.500137 0.612236
C2    C     C_R   0.701531 0.508318 0.630355 -0.146228
C3    C     C_R   0.238903 0.505312 0.633111 0.091132
C4    C     C_R   0.761261 0.509737 0.633727 0.091307
C5    C     C_R   0.208909 0.503561 0.502244 0.217029
C6    C     C_R   0.791088 0.504845 0.503046 0.215632
C7    C     C_3   0.489436 0.043095 0.636607 -0.174045
C8    C     C_3   0.506025 0.958480 0.364351 -0.188550
C9    C     C_3   0.539160 0.958819 0.584740 0.232178
C10   C     C_3   0.456597 0.042258 0.417337 0.270763
C11   C     C_3   0.497256 0.876595 0.499412 -0.028539
C12   C     C_R   0.498756 0.740268 0.499959 0.577040
C13   C     C_3   0.498479 0.123549 0.501462 0.010608
C14   C     C_3   0.447884 0.960537 0.549792 0.243928
C15   C     C_3   0.547797 0.039596 0.451974 0.229053
C16   C     C_R   0.390972 0.500209 0.499993 0.555836
C17   C     C_R   0.609027 0.500615 0.500158 0.566176
C18   C     C_3   0.535384 0.579754 0.049394 0.377856
C19   C     C_3   0.464632 0.420145 0.950539 0.371446
C20   C     C_3   0.485924 0.610224 0.949149 -0.044780
C21   C     C_3   0.514101 0.389715 0.050892 -0.043530
C22   C     C_3   0.550163 0.471014 0.949731 -0.035865
C23   C     C_R   0.238659 0.500697 0.373607 -0.073628
C24   C     C_3   0.449826 0.528900 0.050230 -0.040459
C25   C     C_R   0.880331 0.616695 0.489864 0.436446
C26   C     C_R   0.119630 0.391344 0.500537 0.436688
C27   C     C_R   0.880403 0.392141 0.501285 0.436704
C28   C     C_R   0.119595 0.615893 0.489010 0.436623
C29   C     C_R   0.940053 0.389483 0.498913 0.039847
C30   C     C_R   0.059929 0.618396 0.486790 0.040222
C31   C     C_R   0.969968 0.504032 0.492630 -0.021534
C32   C     C_R   0.030004 0.503829 0.492406 -0.021476
C33   C     C_R   0.939992 0.618803 0.487264 0.040290
C34   C     C_R   0.761175 0.499391 0.374426 -0.082026
C35   C     C_R   0.059973 0.389080 0.498506 0.039161
C36   C     C_R   0.970357 0.275594 0.503705 -0.112963
C37   C     C_R   0.029617 0.732216 0.480278 -0.111959
C38   C     C_R   0.029715 0.275394 0.503510 -0.112456
C39   C     C_R   0.970251 0.732418 0.480520 -0.112630
C40   C     C_3   0.598379 0.740492 0.007038 -0.125428
C41   C     C_3   0.402357 0.257687 0.991554 -0.111656
C42   C     C_2   0.209766 0.508420 0.773842 0.608457
C43   C     C_2   0.790572 0.516317 0.774419 0.605665
C44   C     C_3   0.608713 0.999837 0.750643 -0.116217
C45   C     C_R   0.297815 0.499475 0.372445 -0.134537
C46   C     C_3   0.387967 0.003420 0.248161 -0.093257
C47   C     C_3   0.393528 0.857340 0.718679 -0.100328
C48   C     C_3   0.633414 0.996430 0.344691 -0.086054
C49   C     C_R   0.702025 0.498229 0.373102 -0.132884
C50   C     C_R   0.328315 0.501145 0.500532 -0.010455
C51   C     C_R   0.671684 0.502271 0.501024 -0.015324
C52   C     C_R   0.298623 0.504049 0.629908 -0.136806
Cu1   Cu    Cu3+1 0.500010 0.499990 0.643150 1.001277
Cu2   Cu    Cu3+1 0.499990 0.500010 0.356850 1.019041
H1    H     H_    0.948340 0.186324 0.508330 0.170912
H2    H     H_    0.784111 0.495767 0.274842 0.132199
H3    H     H_    0.319587 0.497078 0.271191 0.135222
H4    H     H_    0.680125 0.493833 0.271840 0.164833
H5    H     H_    0.322256 0.505641 0.728815 0.186143
H6    H     H_    0.678017 0.512027 0.729070 0.164366
H7    H     H_    0.482744 0.080425 0.745491 0.129895
H8    H     H_    0.512420 0.922423 0.254829 0.124157
H9    H     H_    0.566056 0.806036 0.962555 0.126884
H10   H     H_    0.618329 0.684022 0.920850 0.147763
H11   H     H_    0.632425 0.798118 0.056120 0.132345
H12   H     H_    0.051636 0.821485 0.475706 0.171686
H13   H     H_    0.381377 0.312957 0.077196 0.138631
H14   H     H_    0.435272 0.194038 0.036846 0.118188
H15   H     H_    0.369363 0.197825 0.941306 0.156124
H16   H     H_    0.217648 0.506356 0.987659 0.340875
H17   H     H_    0.782865 0.526883 0.987889 0.342089
H18   H     H_    0.579069 0.034949 0.833580 0.096712
H19   H     H_    0.624326 0.078986 0.684161 0.172379
H20   H     H_    0.646099 0.958682 0.805828 0.141628
H21   H     H_    0.373750 0.920299 0.310320 0.172737
H22   H     H_    0.417946 0.974122 0.163149 0.078462
H23   H     H_    0.474536 0.702413 0.901950 0.086099
H24   H     H_    0.349864 0.044030 0.195579 0.144879
H25   H     H_    0.422690 0.899157 0.798990 0.089616
H26   H     H_    0.404229 0.757343 0.699597 0.146379
H27   H     H_    0.350164 0.859456 0.764849 0.155340
H28   H     H_    0.614870 0.965638 0.241757 0.110412
H29   H     H_    0.639155 0.914662 0.417088 0.171047
H30   H     H_    0.676212 0.035420 0.322475 0.158109
H31   H     H_    0.525955 0.297836 0.098486 0.115850
H32   H     H_    0.592180 0.447748 0.902908 0.110331
H33   H     H_    0.407789 0.552069 0.096997 0.103534
H34   H     H_    0.051770 0.185978 0.508000 0.172058
H35   H     H_    0.948195 0.821835 0.476118 0.170558
H36   H     H_    0.215593 0.499163 0.273890 0.131015
N1    N     N_R   0.852023 0.504608 0.498345 -0.379055
N2    N     N_R   0.147965 0.503625 0.497413 -0.380836
N3    N     N_3   0.500040 0.499970 0.858290 -0.245074
N4    N     N_3   0.499960 0.500030 0.141710 -0.245027
O1    O     O_R   0.500030 0.316850 0.620870 -0.480921
O2    O     O_2   0.149174 0.282577 0.506619 -0.468720
O3    O     O_2   0.850911 0.283561 0.507521 -0.478810
O4    O     O_2   0.149106 0.724496 0.484036 -0.473229
O5    O     O_3   0.574262 0.663763 0.112756 -0.549788
O6    O     O_3   0.425871 0.336157 0.886676 -0.537563
O7    O     O_2   0.157957 0.515504 0.781788 -0.481071
O8    O     O_R   0.242005 0.503508 0.898938 -0.721666
O9    O     O_2   0.842482 0.516282 0.782637 -0.481385
O10   O     O_R   0.758390 0.522688 0.899163 -0.726128
O11   O     O_3   0.582886 0.905271 0.668107 -0.567373
O12   O     O_R   0.499970 0.683150 0.379130 -0.481701
O13   O     O_3   0.412556 0.096334 0.335407 -0.541388
O14   O     O_3   0.392408 0.923764 0.589295 -0.541237
O15   O     O_3   0.599869 0.091490 0.406585 -0.570703
O16   O     O_R   0.500000 0.316860 0.379090 -0.481207
O17   O     O_R   0.500000 0.683140 0.620910 -0.503767
O18   O     O_R   0.417890 0.499960 0.620920 -0.481032
O19   O     O_R   0.582110 0.500040 0.379080 -0.462140
O20   O     O_R   0.417870 0.499970 0.379140 -0.518260
O21   O     O_R   0.582130 0.500030 0.620860 -0.519657
O22   O     O_2   0.850770 0.725485 0.485043 -0.480750

loop_
_geom_bond_atom_site_label_1
_geom_bond_atom_site_label_2
_ccdc_geom_bond_type
C12   O12   A    
H17   O10   S    
C3    C42   S    
C34   H2    S    
C23   C45   A    
Cu1   O1    S    
C15   O15   S    
C47   H25   S    
C20   N3    S    
C17   C51   S    
C40   O5    S    
C46   H22   S    
C17   O19   A    
C41   H13   S    
Cu1   Cu2   S    
C29   C36   A    
C45   H3    S    
C33   C39   A    
C40   H9    S    
C20   H23   S    
C19   C21   S    
C16   C50   S    
C11   C14   S    
C2    H6    S    
C27   C29   A    
C21   N4    S    
C26   N2    A    
C6    N1    S    
Cu2   O19   S    
Cu2   O16   S    
C43   O10   S    
C7    H7    S    
C7    C14   S    
C20   C24   S    
C49   C51   A    
C5    C23   A    
C50   C52   A    
C31   C33   A    
C27   N1    A    
C19   N3    S    
Cu1   O17   S    
C14   O14   S    
C48   O15   S    
C21   C22   S    
C37   H12   S    
C10   O13   S    
C47   H26   S    
C42   O8    S    
C46   H21   S    
C41   H14   S    
C26   O2    S    
C21   H31   S    
C25   N1    A    
Cu2   O12   S    
Cu1   N3    S    
C32   C35   A    
C35   C38   A    
C4    C6    A    
C10   C14   S    
C25   O22   S    
C46   H24   S    
C47   H27   S    
C44   O11   S    
C49   H4    S    
C48   H30   S    
C30   C37   A    
C38   H34   S    
C2    C4    A    
C52   H5    S    
C24   N4    S    
C1    O16   A    
C31   C32   A    
C23   H36   S    
C16   O18   A    
C1    O1    A    
C46   O13   S    
C41   O6    S    
C28   N2    A    
C44   H20   S    
C9    C11   S    
Cu1   O18   S    
C8    C10   S    
C8    C15   S    
C40   H11   S    
C13   C15   S    
C18   N4    S    
C22   N3    S    
C1    C13   S    
C18   O5    S    
C42   O7    D    
C17   O21   A    
C41   H15   S    
C28   O4    S    
C7    C9    S    
C27   O3    S    
C34   C49   A    
C18   C22   S    
C3    C5    A    
C10   C13   S    
C16   O20   A    
C3    C52   A    
H16   O8    S    
C4    C43   S    
C40   H10   S    
C48   H29   S    
C36   C38   A    
C19   C24   S    
C9    C15   S    
C29   C31   A    
C36   H1    S    
C19   O6    S    
C30   C32   A    
C45   C50   A    
C8    C11   S    
Cu2   O20   S    
C28   C30   A    
C48   H28   S    
C44   H18   S    
C18   C20   S    
C22   H32   S    
C44   H19   S    
C24   H33   S    
C43   O9    D    
Cu2   N4    S    
C5    N2    S    
C2    C51   A    
C6    C34   A    
C26   C35   A    
C7    C13   S    
C37   C39   A    
C47   O14   S    
C8    H8    S    
C9    O11   S    
C39   H35   S    
C12   O17   A    
Cu1   O21   S    
C11   C12   S    
C25   C33   A    
