data_mof_unit_47173.cif
_audit_creation_date              2012-12-11T14:29:39-0500
_audit_creation_method            fapswitch 2.2
_symmetry_space_group_name_H-M    P1
_symmetry_Int_Tables_number       1
_space_group_crystal_system       triclinic
_cell_length_a                    6.936879
_cell_length_b                    14.757049
_cell_length_c                    16.218804
_cell_angle_alpha                 90.499674
_cell_angle_beta                  90.250846
_cell_angle_gamma                 90.111767
_cell_volume                      1660.20197963

loop_
_atom_site_label
_atom_site_type_symbol
_atom_type_description
_atom_site_fract_x
_atom_site_fract_y
_atom_site_fract_z
_atom_type_partial_charge
O1    O     O_R   0.494400 0.416610 0.413880 -0.541765
O2    O     O_R   0.823920 0.406790 0.585520 -0.540660
O3    O     O_R   0.994250 0.583390 0.586120 -0.535302
C1    C     C_R   0.654491 0.382443 0.611245 0.662636
O4    O     O_R   0.824110 0.405730 0.414490 -0.540510
O5    O     O_R   0.994440 0.582310 0.413870 -0.539467
C2    C     C_R   0.654174 0.383231 0.386802 0.769533
O6    O     O_R   0.494210 0.417690 0.586130 -0.551257
O7    O     O_3   0.660810 0.557940 0.500000 -0.365714
V1    V     V_3+5 0.935650 0.489250 0.500000 1.440182
O8    O     O_R   0.324160 0.593210 0.414480 -0.541800
C3    C     C_R   0.155313 0.614946 0.386300 0.742613
O9    O     O_R   0.323970 0.594270 0.585510 -0.538022
C4    C     C_R   0.155412 0.615794 0.614208 0.688809
V2    V     V_3+5 0.435660 0.510750 0.500000 1.444381
O10   O     O_3   0.160630 0.442060 0.500000 -0.378062
C5    C     C_R   0.082808 0.561940 0.782501 -0.206443
C6    C     C_R   0.046684 0.533586 0.862722 -0.145016
C7    C     C_R   0.034933 0.596725 0.926714 0.332349
C8    C     C_R   0.058818 0.688751 0.910760 -0.172227
C9    C     C_R   0.094345 0.719629 0.829893 0.022398
C10   C     C_R   0.107073 0.654883 0.764375 0.076482
C11   C     C_R   0.118750 0.813245 0.813906 -0.149407
C12   C     C_R   0.154087 0.842030 0.732064 0.062754
C13   C     C_R   0.167625 0.777340 0.666594 0.028441
C14   C     C_R   0.145154 0.683592 0.682736 -0.153898
C15   C     C_R   0.172810 0.935056 0.713660 -0.122006
C16   C     C_R   0.203369 0.963774 0.633168 -0.167199
C17   C     C_R   0.217678 0.900995 0.568650 0.018353
C18   C     C_R   0.199997 0.808318 0.585471 -0.123041
H1    H     H_    0.092018 0.510135 0.735051 0.112724
H2    H     H_    0.028408 0.462108 0.875101 0.144638
H3    H     H_    0.049481 0.735412 0.962408 0.122400
H4    H     H_    0.161884 0.986824 0.761082 0.111315
H5    H     H_    0.214639 0.035648 0.621159 0.154181
H6    H     H_    0.210025 0.760808 0.534481 0.132822
C19   C     C_2   0.985264 0.709295 0.282418 -0.080247
C20   C     C_2   0.150116 0.682620 0.319416 -0.238377
H7    H     H_    0.849244 0.680932 0.302909 0.135725
H8    H     H_    0.287755 0.710336 0.300953 0.142773
C21   C     C_2   0.973182 0.776734 0.214418 -0.070203
C22   C     C_2   0.126513 0.814611 0.177206 -0.252910
H9    H     H_    0.829192 0.795160 0.194135 0.136339
H10   H     H_    0.271672 0.796823 0.195616 0.133386
C23   C     C_2   0.776347 0.210825 0.783263 -0.074623
C24   C     C_2   0.614759 0.186113 0.822954 -0.230971
H11   H     H_    0.913250 0.180165 0.799726 0.123789
H12   H     H_    0.480388 0.221154 0.810501 0.131352
C25   C     C_2   0.780188 0.285346 0.721967 -0.149633
C26   C     C_2   0.639760 0.302726 0.665792 -0.139501
H13   H     H_    0.906664 0.328882 0.724082 0.109665
C27   C     C_2   0.778709 0.196011 0.227256 0.292211
C28   C     C_2   0.621555 0.181206 0.178292 -0.317260
H14   H     H_    0.494640 0.223179 0.185286 0.133649
C29   C     C_2   0.789628 0.270090 0.289949 -0.138785
C30   C     C_2   0.636216 0.312973 0.321918 -0.340362
H15   H     H_    0.932312 0.287204 0.313242 0.171158
H16   H     H_    0.491335 0.294695 0.302704 0.150339
O11   O     O_R   0.770210 0.079270 0.910680 -0.545802
O12   O     O_R   0.440150 0.091160 0.082270 -0.530062
O13   O     O_R   0.269970 0.914530 0.082860 -0.539238
C31   C     C_R   0.609981 0.111701 0.111903 0.796021
O14   O     O_R   0.440480 0.090100 0.911240 -0.550060
O15   O     O_R   0.270310 0.913460 0.910610 -0.539684
C32   C     C_R   0.609302 0.113447 0.884747 0.725002
O16   O     O_R   0.769870 0.080340 0.082930 -0.512627
O17   O     O_3   0.603660 0.938980 0.996790 -0.377249
V3    V     V_3+5 0.328750 0.007610 0.996740 1.493137
O18   O     O_R   0.940600 0.902510 0.911180 -0.542580
C33   C     C_R   0.109102 0.880959 0.882540 0.674575
O19   O     O_R   0.940270 0.903570 0.082200 -0.538452
C34   C     C_R   0.109680 0.881884 0.110377 0.778004
V4    V     V_3+5 0.828770 0.986010 0.996670 1.495742
O20   O     O_3   0.103730 0.054750 0.996710 -0.361040
C35   C     C_2   0.249854 0.933510 0.483763 0.399244
H17   H     H_    0.263008 0.005623 0.472258 0.069111
O21   O     O_2   0.262018 0.880552 0.425739 -0.530217
C36   C     C_2   0.476483 0.239531 0.648756 0.345364
H18   H     H_    0.340366 0.265583 0.625879 0.051521
O22   O     O_2   0.495886 0.157669 0.655065 -0.533513
Br1   Br    Br    0.008457 0.122668 0.222357 -0.549538
Br2   Br    Br    0.986776 0.557384 0.036694 -0.560388

loop_
_geom_bond_atom_site_label_1
_geom_bond_atom_site_label_2
_ccdc_geom_bond_type
C29   C30   D    
O14   C32   A    
C21   C22   D    
C7    C8    A    
C12   C15   A    
C1    O6    A    
C28   H14   S    
C17   C18   A    
O15   V3    S    
C16   C17   A    
O5    C3    A    
C36   O22   D    
V3    O20   S    
V2    O10   S    
O12   C31   A    
C6    C7    A    
V4    O20   S    
O8    V2    S    
C16   H5    S    
C25   H13   S    
C11   C12   A    
O18   V4    S    
O17   V4    S    
O15   C33   A    
C7    Br2   S    
O7    V1    S    
O11   V4    S    
C27   C29   S    
C9    C10   A    
C19   C21   S    
C21   H9    S    
C11   C33   S    
O18   C33   A    
C22   H10   S    
C2    C30   S    
C26   C36   S    
C23   H11   S    
C15   H4    S    
C24   H12   S    
C31   O16   A    
O17   V3    S    
C12   C13   A    
C24   C32   S    
O19   V4    S    
C36   H18   S    
C13   C14   A    
C23   C24   D    
O16   V4    S    
C1    C26   S    
O2    C1    A    
C35   H17   S    
C19   C20   D    
C28   C31   S    
C23   C25   S    
C22   C34   S    
C5    C6    A    
C29   H15   S    
C4    C14   S    
C35   O21   D    
O3    C4    A    
O1    V2    S    
C8    H3    S    
O13   C34   A    
O6    V2    S    
O9    V2    S    
C5    H1    S    
C6    H2    S    
O2    V1    S    
C27   C28   D    
O4    C2    A    
C13   C18   A    
O14   V3    S    
O1    C2    A    
O5    V1    S    
O8    C3    A    
C17   C35   S    
C5    C10   A    
C18   H6    S    
C9    C11   A    
O7    V2    S    
O4    V1    S    
C19   H7    S    
O3    V1    S    
V1    O10   S    
O11   C32   A    
C20   H8    S    
O13   V3    S    
C30   H16   S    
C3    C20   S    
C27   Br1   S    
O19   C34   A    
C8    C9    A    
O12   V3    S    
C25   C26   D    
C10   C14   A    
C15   C16   A    
O9    C4    A    
