data_mof_unit_17151.cif
_audit_creation_date              2012-12-11T14:29:49-0500
_audit_creation_method            fapswitch 2.2
_symmetry_space_group_name_H-M    P1
_symmetry_Int_Tables_number       1
_space_group_crystal_system       triclinic
_cell_length_a                    6.929801
_cell_length_b                    14.765093
_cell_length_c                    16.286778
_cell_angle_alpha                 90.215878
_cell_angle_beta                  90.700521
_cell_angle_gamma                 90.210102
_cell_volume                      1666.30151388

loop_
_atom_site_label
_atom_site_type_symbol
_atom_type_description
_atom_site_fract_x
_atom_site_fract_y
_atom_site_fract_z
_atom_type_partial_charge
O1    O     O_R   0.494400 0.416610 0.413880 -0.551294
O2    O     O_R   0.823920 0.406790 0.585520 -0.500254
O3    O     O_R   0.994250 0.583390 0.586120 -0.530140
C1    C     C_R   0.655586 0.382299 0.611400 0.880929
O4    O     O_R   0.824110 0.405730 0.414490 -0.547941
O5    O     O_R   0.994440 0.582310 0.413870 -0.548998
C2    C     C_R   0.653671 0.383427 0.386557 0.723240
O6    O     O_R   0.494210 0.417690 0.586130 -0.504135
O7    O     O_3   0.660810 0.557940 0.500000 -0.383518
V1    V     V_3+5 0.935650 0.489250 0.500000 1.574926
O8    O     O_R   0.324160 0.593210 0.414480 -0.552646
C3    C     C_R   0.154965 0.615204 0.386502 0.708738
O9    O     O_R   0.323970 0.594270 0.585510 -0.530155
C4    C     C_R   0.155752 0.616384 0.613909 0.785798
V2    V     V_3+5 0.435660 0.510750 0.500000 1.544660
O10   O     O_3   0.160630 0.442060 0.500000 -0.347100
C5    C     C_R   0.365117 0.588925 0.771409 0.316143
C6    C     C_R   0.504155 0.588862 0.834725 -0.055043
C7    C     C_R   0.479841 0.647281 0.900652 -0.231751
C8    C     C_R   0.324473 0.707097 0.901453 -0.079867
C9    C     C_R   0.228241 0.729011 0.826158 -0.054559
C10   C     C_R   0.246335 0.666572 0.759231 0.004245
C11   C     C_R   0.115726 0.809428 0.816561 -0.174238
C12   C     C_R   0.020473 0.826028 0.740247 0.093411
C13   C     C_R   0.034679 0.762840 0.674314 0.043413
C14   C     C_R   0.145194 0.682373 0.683746 -0.155248
C15   C     C_R   0.915831 0.907047 0.726918 -0.169673
C16   C     C_R   0.823863 0.924500 0.652290 -0.145899
C17   C     C_R   0.836644 0.863179 0.587174 0.020370
C18   C     C_R   0.943772 0.783799 0.598155 -0.200150
H1    H     H_    0.568985 0.638838 0.955257 0.194647
H2    H     H_    0.905100 0.959208 0.773236 0.122752
H3    H     H_    0.744563 0.987163 0.645334 0.163947
H4    H     H_    0.958312 0.739725 0.545589 0.141084
C19   C     C_2   0.984159 0.711829 0.284058 -0.096412
C20   C     C_2   0.149499 0.683031 0.319779 -0.270820
H5    H     H_    0.847647 0.684758 0.305212 0.147023
H6    H     H_    0.287836 0.708634 0.300015 0.130075
C21   C     C_2   0.972554 0.778839 0.215674 -0.106535
C22   C     C_2   0.126022 0.819358 0.181099 -0.234906
H7    H     H_    0.828760 0.794695 0.192820 0.154617
H8    H     H_    0.270995 0.805148 0.202746 0.140789
C23   C     C_2   0.775849 0.197244 0.775006 -0.163458
C24   C     C_2   0.612399 0.177568 0.815264 -0.342486
H9    H     H_    0.907802 0.162769 0.793191 0.175650
H10   H     H_    0.476424 0.208821 0.798782 0.169523
C25   C     C_2   0.793727 0.263269 0.706477 0.386403
C26   C     C_2   0.643410 0.312617 0.676614 -0.310395
H11   H     H_    0.500578 0.302884 0.701112 0.179112
C27   C     C_2   0.771253 0.190072 0.232921 0.010889
C28   C     C_2   0.621756 0.181030 0.178294 -0.328481
H12   H     H_    0.505309 0.229894 0.178755 0.149892
C29   C     C_2   0.786851 0.268212 0.291519 -0.161413
C30   C     C_2   0.634519 0.312871 0.321956 -0.299126
H13   H     H_    0.929726 0.284722 0.315540 0.170112
H14   H     H_    0.489288 0.294401 0.302493 0.159228
O11   O     O_R   0.770210 0.079270 0.910680 -0.549195
O12   O     O_R   0.440150 0.091160 0.082270 -0.537948
O13   O     O_R   0.269970 0.914530 0.082860 -0.531610
C31   C     C_R   0.610008 0.111220 0.112220 0.780684
O14   O     O_R   0.440480 0.090100 0.911240 -0.544594
O15   O     O_R   0.270310 0.913460 0.910610 -0.540054
C32   C     C_R   0.608356 0.111109 0.882692 0.751510
O16   O     O_R   0.769870 0.080340 0.082930 -0.537053
O17   O     O_3   0.603660 0.938980 0.996790 -0.364006
V3    V     V_3+5 0.328750 0.007610 0.996740 1.505142
O18   O     O_R   0.940600 0.902510 0.911180 -0.541292
C33   C     C_R   0.108687 0.879732 0.883257 0.692263
O19   O     O_R   0.940270 0.903570 0.082200 -0.527114
C34   C     C_R   0.109502 0.884542 0.112443 0.821951
V4    V     V_3+5 0.828770 0.986010 0.996670 1.502885
O20   O     O_3   0.103730 0.054750 0.996710 -0.379207
C35   C     C_2   0.740837 0.882340 0.507019 0.770438
O21   O     O_2   0.650159 0.952490 0.497203 -0.543223
O22   O     O_R   0.753558 0.820081 0.442349 -0.676392
H15   H     H_    0.682601 0.840837 0.390995 0.296409
Cl1   Cl    Cl    0.028924 0.271859 0.666262 -0.613460
C36   C     C_2   0.925030 0.120731 0.240125 0.797193
O23   O     O_2   0.093379 0.144051 0.249689 -0.571620
O24   O     O_R   0.875941 0.028834 0.240680 -0.660396
H16   H     H_    0.991739 0.988725 0.251430 0.279655
Cl2   Cl    Cl    0.296000 0.481320 0.733360 -0.623325
C37   C     C_2   0.665146 0.523146 0.836224 0.825437
O25   O     O_2   0.732716 0.496825 0.901616 -0.546512
O26   O     O_R   0.746031 0.494593 0.762526 -0.652981
H17   H     H_    0.860085 0.452832 0.771443 0.335273
C38   C     C_2   0.246877 0.728464 0.983524 0.795824
O27   O     O_2   0.358444 0.739824 0.041275 -0.544288
O28   O     O_R   0.048307 0.726689 0.998202 -0.650198
H18   H     H_    0.968335 0.706634 0.948886 0.264828

loop_
_geom_bond_atom_site_label_1
_geom_bond_atom_site_label_2
_ccdc_geom_bond_type
C38   O27   D    
O22   H15   S    
C35   O21   D    
O2    C1    A    
C7    C8    A    
C12   C15   A    
C1    O6    A    
C7    H1    S    
C21   H7    S    
C29   C30   D    
C6    C37   S    
C22   C34   S    
C16   C17   A    
C19   H5    S    
C6    C7    A    
O13   V3    S    
O26   H17   S    
C36   O24   S    
C17   C35   S    
O12   C31   A    
V2    O10   S    
C8    C38   S    
O14   C32   A    
C5    Cl2   S    
O16   V4    S    
O19   V4    S    
O8    V2    S    
O14   V3    S    
O12   V3    S    
V3    O20   S    
C37   O25   D    
C11   C12   A    
O1    V2    S    
C3    C20   S    
O7    V1    S    
C22   H8    S    
O9    C4    A    
C35   O22   S    
C27   C36   S    
C24   H10   S    
O11   C32   A    
C29   H13   S    
C24   C32   S    
C30   H14   S    
C27   C29   S    
C18   H4    S    
C28   H12   S    
C12   C13   A    
C21   C22   D    
O4    C2    A    
O15   V3    S    
C36   O23   D    
C27   C28   D    
C13   C14   A    
O17   V4    S    
O11   V4    S    
O18   C33   A    
C19   C20   D    
C11   C33   S    
C19   C21   S    
C23   C24   D    
C17   C18   A    
C25   C26   D    
C5    C6    A    
C4    C14   S    
C23   H9    S    
O3    C4    A    
C26   H11   S    
C37   O26   S    
C16   H3    S    
O6    V2    S    
O9    V2    S    
C25   Cl1   S    
O2    V1    S    
C1    C26   S    
C13   C18   A    
C15   H2    S    
O1    C2    A    
O24   H16   S    
O5    V1    S    
O8    C3    A    
C5    C10   A    
O15   C33   A    
C31   O16   A    
C9    C11   A    
O7    V2    S    
O4    V1    S    
O3    V1    S    
V1    O10   S    
O5    C3    A    
C20   H6    S    
O18   V4    S    
O19   C34   A    
O13   C34   A    
V4    O20   S    
C8    C9    A    
O17   V3    S    
C10   C14   A    
C15   C16   A    
C38   O28   S    
C28   C31   S    
C2    C30   S    
O28   H18   S    
C9    C10   A    
C23   C25   S    
