data_mof_unit_39153.cif
_audit_creation_date              2013-03-05T15:45:24-0500
_audit_creation_method            fapswitch 2.2
_symmetry_space_group_name_H-M    P1
_symmetry_Int_Tables_number       1
_space_group_crystal_system       triclinic
_cell_length_a                    29.800359
_cell_length_b                    17.025354
_cell_length_c                    19.207062
_cell_angle_alpha                 90.30155
_cell_angle_beta                  140.312718
_cell_angle_gamma                 89.621878
_cell_volume                      6222.94546739

loop_
_atom_site_label
_atom_site_type_symbol
_atom_site_description
_atom_site_fract_x
_atom_site_fract_y
_atom_site_fract_z
_atom_type_partial_charge
C1    C     C_R   0.172195 0.422502 0.813904 -0.051057
C2    C     C_R   0.810323 0.603608 0.204152 -0.121829
C3    C     C_R   0.828157 0.422783 0.186207 -0.053049
C4    C     C_R   0.189574 0.603058 0.796160 -0.115802
C5    C     C_R   0.672202 0.922496 0.813905 -0.050893
C6    C     C_R   0.310324 0.103607 0.204148 -0.121731
C7    C     C_R   0.328159 0.922784 0.186208 -0.053105
C8    C     C_R   0.689574 0.103058 0.796159 -0.115982
H1    H     H_    0.217883 0.458393 0.877190 0.097260
H2    H     H_    0.760192 0.576420 0.154411 0.127578
H3    H     H_    0.782308 0.458784 0.122927 0.096856
H4    H     H_    0.239721 0.575467 0.845662 0.127325
H5    H     H_    0.717889 0.958390 0.877189 0.097269
H6    H     H_    0.260193 0.076421 0.154409 0.127616
H7    H     H_    0.282309 0.958783 0.122926 0.096828
H8    H     H_    0.739721 0.075469 0.845661 0.127323
N1    N     N_R   0.127770 0.430660 0.707120 -0.042090
N2    N     N_R   0.872230 0.569340 0.292880 -0.043190
N3    N     N_R   0.872230 0.430660 0.292880 -0.041701
N4    N     N_R   0.127770 0.569340 0.707120 -0.042418
N5    N     N_R   0.627770 0.930660 0.707120 -0.042082
N6    N     N_R   0.372230 0.069340 0.292880 -0.043201
N7    N     N_R   0.372230 0.930660 0.292880 -0.041687
N8    N     N_R   0.627770 0.069340 0.707120 -0.042425
C9    C     C_R   0.845675 0.599965 0.449853 0.505459
C10   C     C_R   0.166416 0.389172 0.587022 0.557094
C11   C     C_R   0.146951 0.591593 0.533461 0.502244
C12   C     C_R   0.835607 0.392357 0.420265 0.564509
C13   C     C_R   0.345597 0.100045 0.449654 0.505701
C14   C     C_R   0.666439 0.889152 0.587116 0.557451
C15   C     C_R   0.646980 0.091647 0.533521 0.502084
C16   C     C_R   0.335665 0.892425 0.420466 0.564309
N9    N     N_R   0.889730 0.573880 0.452970 -0.097846
N10   N     N_R   0.110270 0.426120 0.547030 -0.094602
N11   N     N_R   0.110270 0.573880 0.547030 -0.094088
N12   N     N_R   0.889730 0.426120 0.452970 -0.093328
N13   N     N_R   0.389730 0.073880 0.452970 -0.097886
N14   N     N_R   0.610270 0.926120 0.547030 -0.094503
N15   N     N_R   0.610270 0.073880 0.547030 -0.094101
N16   N     N_R   0.389730 0.926120 0.452970 -0.093396
C17   C     C_R   0.923334 0.307628 0.520908 -0.175645
C18   C     C_R   0.059448 0.677169 0.439847 -0.198324
C19   C     C_R   0.079010 0.305214 0.486341 -0.121688
C20   C     C_R   0.932624 0.685407 0.543845 -0.140255
C21   C     C_R   0.423387 0.807685 0.521081 -0.176410
C22   C     C_R   0.559551 0.177300 0.440064 -0.197988
C23   C     C_R   0.579031 0.805201 0.486400 -0.121690
C24   C     C_R   0.432581 0.185451 0.543740 -0.140022
H9    H     H_    0.950672 0.251966 0.551724 0.121809
H10   H     H_    0.026356 0.728520 0.395219 0.136878
H11   H     H_    0.051100 0.250184 0.455517 0.126180
H12   H     H_    0.963593 0.738405 0.583536 0.135250
H13   H     H_    0.450699 0.752009 0.551873 0.121874
H14   H     H_    0.526517 0.228706 0.395569 0.136865
H15   H     H_    0.551116 0.750173 0.455568 0.126185
H16   H     H_    0.463556 0.238445 0.583436 0.135222
N17   N     N_R   0.941150 0.372910 0.507880 -0.069620
N18   N     N_R   0.058850 0.627090 0.492120 -0.074528
N19   N     N_R   0.058850 0.372910 0.492120 -0.075894
N20   N     N_R   0.941150 0.627090 0.507880 -0.078438
N21   N     N_R   0.441150 0.872910 0.507880 -0.069600
N22   N     N_R   0.558850 0.127090 0.492120 -0.074567
N23   N     N_R   0.558850 0.872910 0.492120 -0.075869
N24   N     N_R   0.441150 0.127090 0.507880 -0.078456
C25   C     C_R   0.107607 0.697660 0.708591 -0.085793
C26   C     C_R   0.910990 0.327596 0.274966 -0.091806
C27   C     C_R   0.891985 0.697820 0.292018 -0.114147
C28   C     C_R   0.090108 0.327140 0.725476 -0.099442
C29   C     C_R   0.607606 0.197661 0.708590 -0.085819
C30   C     C_R   0.410997 0.827601 0.274969 -0.091768
C31   C     C_R   0.391988 0.197818 0.292008 -0.113889
C32   C     C_R   0.590127 0.827120 0.725484 -0.099630
H17   H     H_    0.081625 0.754117 0.677564 0.081415
H18   H     H_    0.941582 0.278070 0.294078 0.111157
H19   H     H_    0.917680 0.754203 0.323543 0.084638
H20   H     H_    0.060686 0.276944 0.706997 0.096589
H21   H     H_    0.581623 0.254117 0.677562 0.081410
H22   H     H_    0.441597 0.778082 0.294088 0.111152
H23   H     H_    0.417684 0.254199 0.323525 0.084597
H24   H     H_    0.560729 0.776902 0.707017 0.096535
N25   N     N_R   0.076340 0.631640 0.652210 -0.041816
N26   N     N_R   0.923660 0.368360 0.347790 -0.055073
N27   N     N_R   0.923660 0.631640 0.347790 -0.041108
N28   N     N_R   0.076340 0.368360 0.652210 -0.053471
N29   N     N_R   0.576340 0.131640 0.652210 -0.041827
N30   N     N_R   0.423660 0.868360 0.347790 -0.055031
N31   N     N_R   0.423660 0.131640 0.347790 -0.041107
N32   N     N_R   0.576340 0.868360 0.652210 -0.053434
C33   C     C_R   0.148360 0.360503 0.826923 0.029782
C34   C     C_R   0.821136 0.682712 0.201495 0.038670
C35   C     C_R   0.852598 0.360903 0.173373 0.033506
C36   C     C_R   0.178568 0.682185 0.799244 0.036285
C37   C     C_R   0.648377 0.860487 0.826928 0.029676
C38   C     C_R   0.321138 0.182709 0.201484 0.038646
C39   C     C_R   0.352604 0.860907 0.173375 0.033549
C40   C     C_R   0.678567 0.182186 0.799242 0.036246
C41   C     C_R   0.873189 0.668285 0.509749 -0.025885
C42   C     C_R   0.146683 0.314333 0.545935 -0.071638
C43   C     C_R   0.113689 0.654484 0.462295 0.003193
C44   C     C_R   0.858114 0.320713 0.469897 -0.042611
C45   C     C_R   0.373091 0.168382 0.509509 -0.026244
C46   C     C_R   0.646725 0.814301 0.546072 -0.071776
C47   C     C_R   0.613811 0.154645 0.462552 0.003306
C48   C     C_R   0.358232 0.820850 0.470288 -0.042253
Ni1   Ni    Ni4+2 0.119340 0.500000 0.625930 0.306508
Ni2   Ni    Ni4+2 0.880660 0.500000 0.374070 0.306383
Ni3   Ni    Ni4+2 0.619340 1.000000 0.625930 0.306467
Ni4   Ni    Ni4+2 0.380660 0.000000 0.374070 0.306431
Ni5   Ni    Ni4+2 0.000000 0.373980 0.500000 0.215381
Ni6   Ni    Ni4+2 0.000000 0.626020 0.500000 0.210594
Ni7   Ni    Ni4+2 0.500000 0.873980 0.500000 0.215415
Ni8   Ni    Ni4+2 0.500000 0.126020 0.500000 0.210580
C49   C     C_R   0.801384 0.216108 0.976060 -0.147366
C50   C     C_R   0.254576 0.861028 0.971357 -0.138256
C51   C     C_R   0.198570 0.217440 0.024191 -0.147807
C52   C     C_R   0.746182 0.860663 0.028959 -0.139751
C53   C     C_R   0.301386 0.716105 0.976065 -0.147252
C54   C     C_R   0.754571 0.361027 0.971355 -0.138290
C55   C     C_R   0.698571 0.717444 0.024201 -0.147824
C56   C     C_R   0.246169 0.360673 0.028955 -0.139720
H25   H     H_    0.820521 0.159619 0.981125 0.131134
H26   H     H_    0.234565 0.916298 0.967216 0.114941
H27   H     H_    0.179211 0.161547 0.019170 0.128994
H28   H     H_    0.766519 0.915219 0.033169 0.115219
H29   H     H_    0.320521 0.659614 0.981130 0.131142
H30   H     H_    0.734559 0.416295 0.967215 0.114934
H31   H     H_    0.679209 0.661555 0.019182 0.128966
H32   H     H_    0.266502 0.415234 0.033166 0.115231
C57   C     C_R   0.845097 0.261353 0.069631 -0.108946
C58   C     C_R   0.211201 0.816304 0.877449 -0.143201
C59   C     C_R   0.155350 0.262280 0.930437 -0.128796
C60   C     C_R   0.788960 0.816485 0.123079 -0.151666
C61   C     C_R   0.345100 0.761351 0.069634 -0.108977
C62   C     C_R   0.711198 0.316304 0.877446 -0.143256
C63   C     C_R   0.655358 0.762277 0.930442 -0.128971
C64   C     C_R   0.288955 0.316486 0.123070 -0.151653
H33   H     H_    0.896683 0.238209 0.142711 0.147423
H34   H     H_    0.159424 0.839246 0.804693 0.112788
H35   H     H_    0.103736 0.239590 0.857258 0.124169
H36   H     H_    0.840639 0.839176 0.196002 0.112595
H37   H     H_    0.396685 0.738206 0.142715 0.147399
H38   H     H_    0.659420 0.339246 0.804690 0.112788
H39   H     H_    0.603743 0.739589 0.857262 0.124081
H40   H     H_    0.340635 0.339177 0.195993 0.112611
C65   C     C_R   0.818879 0.329898 0.070293 0.131590
C66   C     C_R   0.231795 0.739992 0.882353 0.127084
C67   C     C_R   0.181998 0.329829 0.929919 0.137111
C68   C     C_R   0.768062 0.740802 0.118247 0.127129
C69   C     C_R   0.318884 0.829900 0.070296 0.131592
C70   C     C_R   0.731793 0.239994 0.882349 0.127033
C71   C     C_R   0.682012 0.829817 0.929924 0.137104
C72   C     C_R   0.268062 0.240799 0.118235 0.127115
C73   C     C_R   0.185805 0.264289 0.545919 -0.013717
C74   C     C_R   0.838087 0.716642 0.518809 -0.007454
C75   C     C_R   0.819041 0.273218 0.470734 0.007947
C76   C     C_R   0.143906 0.701076 0.444000 0.009919
C77   C     C_R   0.685872 0.764255 0.546104 -0.013694
C78   C     C_R   0.337991 0.216739 0.518564 -0.007454
C79   C     C_R   0.319134 0.773344 0.471067 0.008186
C80   C     C_R   0.644117 0.201275 0.444445 0.009701
C81   C     C_R   0.728118 0.781914 0.409541 -0.042883
C82   C     C_R   0.297065 0.200786 0.658103 -0.074445
C83   C     C_R   0.218071 0.811584 0.511309 -0.076138
C84   C     C_R   0.738328 0.167064 0.390210 -0.081658
C85   C     C_R   0.228019 0.281995 0.409312 -0.042718
C86   C     C_R   0.797140 0.700747 0.658326 -0.074596
C87   C     C_R   0.718857 0.311358 0.512605 -0.075922
C88   C     C_R   0.238913 0.666748 0.391189 -0.081644
C89   C     C_R   0.781700 0.761900 0.428184 -0.175132
C90   C     C_R   0.244859 0.224913 0.641530 -0.139687
C91   C     C_R   0.167742 0.775460 0.491073 -0.208390
C92   C     C_R   0.790380 0.202699 0.413492 -0.172686
C93   C     C_R   0.281598 0.261994 0.427942 -0.174977
C94   C     C_R   0.744927 0.724893 0.641733 -0.139659
C95   C     C_R   0.668464 0.275396 0.492339 -0.208237
C96   C     C_R   0.290942 0.702539 0.414531 -0.173227
C97   C     C_R   0.845164 0.696440 0.597634 0.333572
C98   C     C_R   0.176595 0.277450 0.463645 0.321185
C99   C     C_R   0.164413 0.664671 0.405925 0.325449
C100  C     C_R   0.797758 0.308769 0.507883 0.307723
C101  C     C_R   0.345076 0.196527 0.597396 0.333487
C102  C     C_R   0.676676 0.777393 0.463843 0.321099
C103  C     C_R   0.664234 0.164994 0.405719 0.325495
C104  C     C_R   0.297418 0.809026 0.507488 0.307984
C105  C     C_R   0.791859 0.718465 0.580809 -0.025193
C106  C     C_R   0.231536 0.259210 0.483491 -0.022982
C107  C     C_R   0.215095 0.701540 0.425073 -0.019459
C108  C     C_R   0.743913 0.274514 0.481932 -0.010856
C109  C     C_R   0.291775 0.218534 0.580583 -0.025202
C110  C     C_R   0.731624 0.759138 0.483708 -0.022993
C111  C     C_R   0.714955 0.201720 0.424856 -0.019515
C112  C     C_R   0.243576 0.774618 0.481426 -0.010832
H41   H     H_    0.252457 0.217300 0.706079 0.164751
H42   H     H_    0.775813 0.774963 0.366268 0.151959
H43   H     H_    0.805532 0.177710 0.381758 0.147376
H44   H     H_    0.152372 0.802346 0.521733 0.145963
H45   H     H_    0.752517 0.717299 0.706277 0.164749
H46   H     H_    0.275704 0.275060 0.366019 0.152005
H47   H     H_    0.306448 0.677412 0.383387 0.147229
H48   H     H_    0.653420 0.302147 0.523551 0.145996
H49   H     H_    0.183181 0.313342 0.335036 0.183267
H50   H     H_    0.843145 0.672320 0.734734 0.181274
H51   H     H_    0.739828 0.366399 0.556547 0.183477
H52   H     H_    0.216333 0.613285 0.343716 0.179284
H53   H     H_    0.683286 0.813269 0.335268 0.183266
H54   H     H_    0.343072 0.172347 0.734497 0.181280
H55   H     H_    0.238647 0.866860 0.554643 0.183508
H56   H     H_    0.715370 0.113850 0.342170 0.179331
Cl1   Cl    Cl    0.758471 0.571240 0.358306 -0.538652
Cl2   Cl    Cl    0.252704 0.407872 0.718037 -0.586746
Cl3   Cl    Cl    0.233758 0.563477 0.619369 -0.543932
Cl4   Cl    Cl    0.748053 0.404919 0.288814 -0.564390
Cl5   Cl    Cl    0.258310 0.071494 0.357746 -0.538537
Cl6   Cl    Cl    0.752696 0.907852 0.718198 -0.587075
Cl7   Cl    Cl    0.733652 0.063199 0.619023 -0.544194
Cl8   Cl    Cl    0.248070 0.904910 0.289071 -0.563980
N33   N     N_R   0.113190 0.314055 0.363442 0.225606
O1    O     O_R   0.113436 0.387419 0.345384 -0.311104
O2    O     O_R   0.053619 0.277426 0.297874 -0.402863
N34   N     N_R   0.903238 0.648141 0.688781 0.230940
O3    O     O_R   0.967104 0.667146 0.748033 -0.374682
O4    O     O_R   0.891751 0.579987 0.703118 -0.316032
N35   N     N_R   0.829840 0.380951 0.568950 0.224269
O5    O     O_R   0.793059 0.445519 0.527227 -0.325746
O6    O     O_R   0.897657 0.384439 0.657911 -0.356159
N36   N     N_R   0.137673 0.588223 0.356203 0.236612
O7    O     O_R   0.070623 0.574335 0.280331 -0.349339
O8    O     O_R   0.180828 0.529920 0.397082 -0.328947
N37   N     N_R   0.613285 0.814006 0.363636 0.225583
O9    O     O_R   0.613526 0.887403 0.345671 -0.311256
O10   O     O_R   0.553719 0.777348 0.297985 -0.402753
N38   N     N_R   0.403144 0.148211 0.688522 0.230884
O11   O     O_R   0.467016 0.167241 0.747826 -0.374731
O12   O     O_R   0.391647 0.080026 0.702784 -0.316007
N39   N     N_R   0.329109 0.881444 0.568022 0.224203
O13   O     O_R   0.292075 0.945835 0.525645 -0.325737
O14   O     O_R   0.396865 0.885293 0.657223 -0.355714
N40   N     N_R   0.637059 0.088775 0.355329 0.236628
O15   O     O_R   0.569956 0.075262 0.279608 -0.349696
O16   O     O_R   0.679902 0.030261 0.395459 -0.328726

loop_
_geom_bond_atom_site_label_1
_geom_bond_atom_site_label_2
_geom_bond_distance
_ccdc_geom_bond_type
N27   Ni6   1.869583 S    
C25   C36   1.379662 A    
C27   N27   1.323053 A    
C2    N2    1.343709 A    
C86   C105  1.405697 A    
N39   O14   1.301115 A    
C98   N33   1.436251 S    
C29   H21   1.079166 S    
N35   O5    1.301355 A    
C8    C40   1.396132 A    
C19   C42   1.360442 A    
C29   C40   1.379659 A    
C53   C61   1.384094 A    
C18   N18   1.331183 A    
N34   O4    1.301198 A    
C25   H17   1.079168 S    
C105  C110  1.422896 A    
C31   C38   1.378238 A    
C51   C59   1.384286 A    
N15   Ni3   1.826721 S    
C11   C43   1.383295 A    
C49   C57   1.384093 A    
C22   N22   1.331258 A    
C108  C111  1.423464 A    
C23   H15   1.080134 S    
C20   N20   1.336819 A    
N14   N23   1.342391 A    
C103  N40   1.439026 S    
C23   N23   1.339348 A    
C56   H32   1.080653 S    
C76   C99   1.403752 A    
N6    Ni4   1.816891 S    
C47   C80   1.436209 S    
C24   N24   1.336793 A    
C30   H22   1.074675 S    
N7    Ni4   1.808361 S    
C101  N38   1.438548 S    
C85   C93   1.381353 A    
C24   C45   1.367653 A    
C6    N6    1.343707 A    
C97   C105  1.404188 A    
C14   N14   1.341053 A    
C100  N35   1.440308 S    
C3    C35   1.401673 A    
C86   H50   1.081501 S    
N29   Ni8   1.869543 S    
C17   H9    1.079658 S    
N14   Ni3   1.818175 S    
C2    C34   1.397135 A    
C85   H49   1.081762 S    
N38   O11   1.301061 A    
C34   C68   1.462893 S    
C100  C108  1.393440 A    
N19   Ni5   1.872684 S    
C19   H11   1.080132 S    
C73   C98   1.399312 A    
N32   Ni7   1.869581 S    
C101  C109  1.404125 A    
C75   C92   1.390714 A    
C10   N10   1.341035 A    
N17   Ni5   1.872927 S    
C60   H36   1.079380 S    
C6    C38   1.397141 A    
N7    N30   1.445285 A    
C82   C90   1.386072 A    
C73   C90   1.393638 A    
N39   O13   1.301236 A    
C104  C112  1.393325 A    
C59   C67   1.406283 A    
C83   C112  1.401608 A    
C39   C69   1.463650 S    
C87   H51   1.081044 S    
C79   C104  1.401533 A    
C4    H4    1.080044 S    
C84   C111  1.407102 A    
C83   C91   1.375225 A    
N8    N29   1.445286 A    
C80   C103  1.403830 A    
C5    H5    1.077349 S    
C54   C62   1.383531 A    
C19   N19   1.339318 A    
C77   C94   1.393656 A    
N16   Ni4   1.826722 S    
C81   C89   1.381348 A    
C12   C44   1.365222 A    
C7    H7    1.077344 S    
N5    N32   1.451969 A    
C21   H13   1.079640 S    
C8    H8    1.080043 S    
C23   C46   1.360479 A    
N4    N25   1.445286 A    
C82   H54   1.081508 S    
C99   C107  1.401977 A    
N23   Ni7   1.872684 S    
C50   C58   1.383535 A    
C81   H53   1.081775 S    
C14   Cl6   1.757683 S    
C10   C42   1.370089 A    
C46   C77   1.439695 S    
C11   Cl3   1.751059 S    
N34   O3    1.301061 A    
C32   N32   1.326319 A    
C57   H33   1.079589 S    
C102  C110  1.398718 A    
C28   C33   1.388608 A    
C33   C67   1.463897 S    
C58   C66   1.405462 A    
N40   O16   1.301272 A    
C86   C94   1.386118 A    
C51   H27   1.080878 S    
N12   Ni2   1.826722 S    
C60   C68   1.406105 A    
N26   Ni5   1.869545 S    
C61   C69   1.405569 A    
N13   Ni4   1.818174 S    
N12   N17   1.336221 A    
C84   H56   1.080771 S    
C59   H35   1.079528 S    
C81   C110  1.402427 A    
N31   Ni8   1.869583 S    
C11   N11   1.340668 A    
N33   O1    1.299656 A    
C41   C74   1.438583 S    
C36   C66   1.462817 S    
C27   C34   1.378220 A    
C55   C63   1.384282 A    
C31   H23   1.079080 S    
C88   H52   1.080626 S    
C74   C89   1.393742 A    
C103  C111  1.402020 A    
C53   C66   1.399095 A    
C56   C64   1.383347 A    
C5    N5    1.341664 A    
C28   N28   1.326322 A    
C51   C72   1.398430 A    
N2    Ni2   1.816891 S    
C104  N39   1.440210 S    
N37   O9    1.299658 A    
N11   Ni1   1.826721 S    
C21   C48   1.361301 A    
N1    Ni1   1.816894 S    
C62   H38   1.079530 S    
C20   C41   1.367702 A    
C78   C93   1.393730 A    
C13   Cl5   1.749028 S    
C52   C60   1.383338 A    
C102  N37   1.436229 S    
C40   C70   1.462810 S    
C43   C76   1.436280 S    
C22   H14   1.080336 S    
C9    N9    1.340151 A    
C16   C48   1.365267 A    
N2    N27   1.451968 A    
C17   C44   1.361207 A    
C1    H1    1.077350 S    
C10   Cl2   1.757621 S    
N8    Ni3   1.808361 S    
N6    N31   1.451968 A    
C9    Cl1   1.749069 S    
C107  C112  1.423282 A    
N5    Ni3   1.816894 S    
C26   C35   1.389180 A    
C14   C46   1.370072 A    
C13   C45   1.376742 A    
C30   N30   1.327068 A    
C31   N31   1.323056 A    
C32   C37   1.388598 A    
C44   C75   1.432213 S    
C9    C41   1.376767 A    
C18   H10   1.080320 S    
C45   C78   1.438522 S    
C55   H31   1.080879 S    
N9    N20   1.342392 A    
N36   O8    1.301125 A    
C79   C96   1.390560 A    
N11   N18   1.336219 A    
C58   H34   1.079530 S    
N10   N19   1.342391 A    
N37   O10   1.300710 A    
C80   C95   1.392023 A    
C37   C71   1.463881 S    
C27   H19   1.079083 S    
C77   C102  1.399301 A    
C96   H47   1.083726 S    
C2    H2    1.080093 S    
C35   C65   1.463643 S    
N13   N24   1.342392 A    
C29   N29   1.323762 A    
C75   C100  1.401655 A    
N20   Ni6   1.872687 S    
C87   C95   1.375330 A    
N4    Ni1   1.808361 S    
C24   H16   1.080720 S    
C84   C92   1.384247 A    
N40   O15   1.301296 A    
C94   H45   1.083718 S    
C1    C33   1.402591 A    
C52   H28   1.080651 S    
N3    N26   1.445285 A    
C93   H46   1.084280 S    
N18   Ni6   1.872924 S    
N10   Ni1   1.818175 S    
C61   H37   1.079589 S    
C49   C70   1.399093 A    
C54   C65   1.398881 A    
N9    Ni2   1.818174 S    
N28   Ni5   1.869581 S    
C91   H44   1.084267 S    
N38   O12   1.301196 A    
C90   H41   1.083723 S    
C5    C37   1.402577 A    
N35   O6    1.301233 A    
C88   C107  1.406977 A    
C89   H42   1.084279 S    
C83   H55   1.080884 S    
C54   H30   1.080642 S    
C12   Cl4   1.757127 S    
C49   H25   1.080742 S    
C7    C39   1.401679 A    
C22   C47   1.366933 A    
C76   C91   1.391848 A    
C1    N1    1.341671 A    
C85   C106  1.402448 A    
C50   C69   1.398884 A    
C16   Cl8   1.757117 S    
N1    N28   1.451969 A    
C99   N36   1.438910 S    
C30   C39   1.389183 A    
C55   C68   1.398425 A    
C17   N17   1.339777 A    
C6    H6    1.080092 S    
C64   H40   1.079381 S    
C18   C43   1.367011 A    
C28   H20   1.073677 S    
C20   H12   1.080719 S    
C7    N7    1.341144 A    
C53   H29   1.080741 S    
C106  C109  1.422896 A    
N21   Ni7   1.872927 S    
C63   C71   1.406283 A    
C87   C108  1.401807 A    
C50   H26   1.080641 S    
C21   N21   1.339760 A    
C63   H39   1.079530 S    
C8    N8    1.342486 A    
C15   N15   1.340771 A    
N30   Ni7   1.869545 S    
C57   C65   1.405569 A    
C16   N16   1.332296 A    
C4    N4    1.342486 A    
C3    N3    1.341140 A    
N33   O2    1.300708 A    
C82   C109  1.405685 A    
C78   C101  1.402877 A    
C95   H48   1.084392 S    
C42   C73   1.439632 S    
N24   Ni8   1.872687 S    
C3    H3    1.077342 S    
N16   N21   1.336221 A    
C98   C106  1.398720 A    
N3    Ni2   1.808361 S    
C15   Cl7   1.751064 S    
N22   Ni8   1.872924 S    
N25   Ni6   1.869543 S    
C12   N12   1.332475 A    
C97   N34   1.438555 S    
C32   H24   1.073661 S    
N36   O7    1.301208 A    
C74   C97   1.402894 A    
C13   N13   1.340091 A    
N15   N22   1.336219 A    
C25   N25   1.323768 A    
C92   H43   1.083859 S    
C48   C79   1.432241 S    
C88   C96   1.384219 A    
C64   C72   1.406104 A    
C62   C70   1.405462 A    
C38   C72   1.462907 S    
C52   C71   1.398294 A    
C56   C67   1.398300 A    
C26   N26   1.327070 A    
C15   C47   1.383185 A    
C4    C36   1.396127 A    
C26   H18   1.074666 S    
