data_mof_unit_42834.cif
_audit_creation_date              2012-10-26T21:23:35-0400
_audit_creation_method            fapswitch 2.2
_symmetry_space_group_name_H-M    P1
_symmetry_Int_Tables_number       1
_space_group_crystal_system       triclinic
_cell_length_a                    27.789489
_cell_length_b                    10.896902
_cell_length_c                    9.681678
_cell_angle_alpha                 89.893334
_cell_angle_beta                  90.587069
_cell_angle_gamma                 90.129616
_cell_volume                      2931.63297037

loop_
_atom_site_label
_atom_site_type_symbol
_atom_type_description
_atom_site_fract_x
_atom_site_fract_y
_atom_site_fract_z
_atom_type_partial_charge
C1    C     C_R   0.497056 0.265367 0.500033 0.524237
C2    C     C_R   0.974312 0.385829 0.507713 0.028127
C3    C     C_R   0.975231 0.610818 0.473721 0.036805
C4    C     C_R   0.407422 0.499750 0.499180 0.562358
C5    C     C_R   0.949544 0.499176 0.492732 -0.004554
C6    C     C_R   0.947643 0.282405 0.551735 -0.117979
C7    C     C_R   0.897753 0.284081 0.555640 -0.118202
C8    C     C_R   0.872677 0.391862 0.526143 0.037757
C9    C     C_R   0.898503 0.500866 0.500737 -0.035858
C10   C     C_R   0.873171 0.611617 0.485326 0.006050
C11   C     C_R   0.822634 0.610459 0.487264 0.435389
C12   C     C_R   0.279562 0.502809 0.364282 -0.044524
C13   C     C_R   0.822199 0.394583 0.527585 0.440722
C14   C     C_R   0.721700 0.495227 0.383325 -0.084241
C15   C     C_R   0.671600 0.494249 0.380150 -0.144158
C16   C     C_R   0.501474 0.734695 0.499931 0.570716
C17   C     C_R   0.670753 0.509907 0.629764 -0.171424
C18   C     C_R   0.721175 0.511776 0.634471 0.060124
C19   C     C_R   0.746766 0.503666 0.509163 0.256333
C20   C     C_R   0.024997 0.380676 0.487362 0.026059
C21   C     C_R   0.050764 0.491908 0.470364 -0.007273
C22   C     C_R   0.025986 0.605474 0.454534 0.024318
C23   C     C_R   0.253448 0.495032 0.486708 0.241756
C24   C     C_R   0.050521 0.267817 0.473131 0.092084
C25   C     C_R   0.102663 0.707065 0.410834 -0.121227
C26   C     C_R   0.948894 0.723459 0.481386 0.120810
C27   C     C_R   0.898611 0.721724 0.477157 -0.094187
C28   C     C_R   0.592592 0.500219 0.500769 0.556904
C29   C     C_R   0.052827 0.708544 0.411025 -0.127286
C30   C     C_2   0.496420 0.933174 0.387561 -0.108464
C31   C     C_2   0.505648 0.866687 0.500829 -0.062305
C32   C     C_2   0.499757 0.066847 0.391487 -0.132098
C33   C     C_2   0.485673 0.135162 0.499873 -0.000877
C34   C     C_R   0.101825 0.489895 0.465925 -0.054008
C35   C     C_2   0.472356 0.428814 0.921399 -0.012981
C36   C     C_2   0.471682 0.430515 0.077200 -0.014096
C37   C     C_R   0.177996 0.384846 0.499663 0.423596
C38   C     C_R   0.177894 0.599136 0.450214 0.401260
C39   C     C_R   0.277731 0.488950 0.614028 -0.048234
C40   C     C_R   0.327982 0.490895 0.618784 -0.128601
C41   C     C_R   0.329652 0.504460 0.368656 -0.129112
C42   C     C_3   0.987036 0.852970 0.652235 -0.302248
C43   C     C_2   0.745134 0.522932 0.771795 0.266891
C44   C     C_2   0.453972 0.089638 0.612452 0.217981
C45   C     C_R   0.127275 0.378758 0.482953 0.003830
C46   C     C_2   0.126359 0.147286 0.459345 0.297825
C47   C     C_3   0.014340 0.150768 0.286834 -0.287826
C48   C     C_R   0.101422 0.266493 0.477621 0.017980
C49   C     C_R   0.127566 0.599788 0.443840 0.030825
C50   C     C_R   0.354396 0.498598 0.495943 0.011241
C51   C     C_R   0.645659 0.501282 0.503339 -0.002019
Cu1   Cu    Cu3+1 0.500010 0.500020 0.638630 0.955935
Cu2   Cu    Cu3+1 0.499990 0.499980 0.361370 0.951727
H1    H     H_    0.348935 0.510387 0.272225 0.136149
H2    H     H_    0.260927 0.507277 0.265620 0.135056
H3    H     H_    0.448263 0.365131 0.869279 0.133687
H4    H     H_    0.521796 0.560963 0.894451 0.204939
H5    H     H_    0.446349 0.370037 0.128106 0.141895
H6    H     H_    0.524226 0.554604 0.106656 0.204868
H7    H     H_    0.653231 0.487530 0.281256 0.135820
H8    H     H_    0.741288 0.489092 0.287458 0.130239
H9    H     H_    0.878974 0.200953 0.585068 0.165132
H10   H     H_    0.964636 0.199644 0.588803 0.153934
H11   H     H_    0.346080 0.486007 0.718229 0.134001
H12   H     H_    0.257642 0.482982 0.709052 0.132943
H13   H     H_    0.953257 0.913742 0.473148 0.252162
H14   H     H_    0.006331 0.941689 0.664120 0.134013
H15   H     H_    0.011947 0.778071 0.683443 0.172263
H16   H     H_    0.955340 0.852844 0.721330 0.158666
H17   H     H_    0.723488 0.523952 0.864512 0.088805
H18   H     H_    0.454571 0.134585 0.712395 0.112724
H19   H     H_    0.118085 0.070269 0.526261 0.093836
H20   H     H_    0.037940 0.077829 0.474335 0.239118
H21   H     H_    0.992260 0.067509 0.266787 0.142691
H22   H     H_    0.048065 0.144449 0.226602 0.168918
H23   H     H_    0.121589 0.790427 0.382967 0.175754
H24   H     H_    0.993451 0.232259 0.252292 0.169399
H25   H     H_    0.651003 0.516025 0.725458 0.116406
H26   H     H_    0.879440 0.808238 0.477485 0.164499
H27   H     H_    0.036242 0.791063 0.372239 0.163548
H28   H     H_    0.488964 0.889601 0.288790 0.149367
H29   H     H_    0.516055 0.910217 0.597499 0.115163
H30   H     H_    0.517197 0.109823 0.303780 0.133316
N1    N     N_R   0.201881 0.493309 0.480814 -0.405522
N2    N     N_R   0.798348 0.502804 0.507436 -0.367243
N3    N     N_2   0.499480 0.498660 0.846910 -0.344525
N4    N     N_2   0.499460 0.498630 0.153040 -0.347350
N5    N     N_2   0.971644 0.838079 0.510018 -0.548525
N6    N     N_2   0.025402 0.158877 0.432787 -0.549205
O1    O     O_R   0.500010 0.321960 0.617040 -0.511185
O2    O     O_R   0.569740 0.500000 0.617090 -0.498075
O3    O     O_R   0.569730 0.499960 0.382940 -0.499963
O4    O     O_2   0.203353 0.284475 0.536757 -0.438397
O5    O     O_2   0.788736 0.532119 0.784200 -0.476785
O6    O     O_2   0.425027 0.006881 0.592558 -0.476750
O7    O     O_2   0.154868 0.133136 0.365585 -0.441945
O8    O     O_2   0.797109 0.290270 0.549426 -0.482417
O9    O     O_2   0.202750 0.703847 0.428267 -0.469007
O10   O     O_2   0.797925 0.716006 0.470402 -0.482664
O11   O     O_R   0.499990 0.321920 0.382900 -0.494171
O12   O     O_R   0.430270 0.500040 0.617060 -0.493465
O13   O     O_R   0.430260 0.500000 0.382910 -0.496077
O14   O     O_R   0.500010 0.678080 0.617100 -0.485026
O15   O     O_R   0.499990 0.678040 0.382960 -0.496876

loop_
_geom_bond_atom_site_label_1
_geom_bond_atom_site_label_2
_ccdc_geom_bond_type
C10   C27   A    
Cu1   O14   S    
C8    C13   A    
C22   C29   A    
C47   N6    S    
C15   H7    S    
Cu1   O1    S    
C35   C36   S    
C38   O9    S    
C24   N6    S    
C17   C51   A    
C1    C33   S    
C7    C8    A    
C38   C49   A    
C16   C31   S    
C12   C23   A    
C26   C27   A    
C1    O1    A    
C31   H29   S    
C27   H26   S    
H13   N5    S    
C30   C31   D    
C28   C51   S    
C40   C50   A    
Cu2   O15   S    
C43   O5    D    
H4    N3    S    
C44   H18   S    
C11   O10   S    
C18   C19   A    
C16   O15   A    
C20   C24   A    
C8    C9    A    
C4    O13   A    
Cu1   O2    S    
C37   N1    A    
C15   C51   A    
C9    C10   A    
C46   H19   S    
C36   N4    D    
C21   C22   A    
C42   H15   S    
C39   H12   S    
C2    C6    A    
C1    O11   A    
H6    N4    S    
Cu2   O11   S    
C25   C29   A    
C46   C48   S    
Cu1   O12   S    
C23   N1    S    
C2    C20   A    
C24   C48   A    
C28   O3    A    
C39   C40   A    
C21   C34   A    
C19   N2    S    
C14   H8    S    
C42   H16   S    
C4    C50   S    
C6    H10   S    
C7    H9    S    
C5    C9    A    
C12   C41   A    
C16   O14   A    
Cu2   O13   S    
C4    O12   A    
Cu2   O3    S    
C17   C18   A    
C37   O4    S    
Cu2   N4    S    
C34   C45   A    
C43   H17   S    
C42   H14   S    
C2    C5    A    
C42   N5    S    
C47   H24   S    
C37   C45   A    
C41   C50   A    
Cu1   Cu2   S    
C45   C48   A    
C32   H30   S    
C34   C49   A    
C38   N1    A    
C35   H3    S    
C33   C44   S    
C14   C19   A    
C3    C26   A    
C47   H21   S    
C3    C5    A    
C6    C7    A    
C36   H5    S    
C40   H11   S    
C25   H23   S    
C32   C33   D    
C30   H28   S    
Cu1   N3    S    
H20   N6    S    
C44   O6    D    
C18   C43   S    
C30   C32   S    
C29   H27   S    
C11   N2    A    
C23   C39   A    
C17   H25   S    
C35   N3    D    
C28   O2    A    
C13   O8    S    
C25   C49   A    
C41   H1    S    
C12   H2    S    
C10   C11   A    
C47   H22   S    
C46   O7    D    
C20   C21   A    
C26   N5    S    
C13   N2    A    
C14   C15   A    
C3    C22   A    
