data_mof_unit_40637.cif
_audit_creation_date              2012-10-26T19:52:45-0400
_audit_creation_method            fapswitch 2.2
_symmetry_space_group_name_H-M    P1
_symmetry_Int_Tables_number       1
_space_group_crystal_system       triclinic
_cell_length_a                    14.989282
_cell_length_b                    10.863043
_cell_length_c                    9.603378
_cell_angle_alpha                 89.918879
_cell_angle_beta                  90.424944
_cell_angle_gamma                 90.831508
_cell_volume                      1563.50149223

loop_
_atom_site_label
_atom_site_type_symbol
_atom_type_description
_atom_site_fract_x
_atom_site_fract_y
_atom_site_fract_z
_atom_type_partial_charge
C1    C     C_R   0.497688 0.262883 0.499737 0.548280
C2    C     C_R   0.184891 0.423466 0.407991 -0.129272
C3    C     C_R   0.232252 0.499623 0.500409 -0.012450
C4    C     C_R   0.328943 0.500131 0.499802 0.541272
C5    C     C_R   0.187438 0.572891 0.596300 -0.147413
C6    C     C_R   0.501257 0.062041 0.619023 0.040960
C7    C     C_R   0.495386 0.130112 0.497571 -0.001349
C8    C     C_R   0.491312 0.064462 0.370990 -0.173873
C9    C     C_R   0.493036 0.935357 0.371303 -0.178296
C10   C     C_R   0.502592 0.870063 0.497788 -0.005076
C11   C     C_R   0.509401 0.938788 0.619281 0.040570
C12   C     C_R   0.907525 0.569825 0.600196 0.005576
C13   C     C_3   0.520943 0.932749 0.773863 0.181601
C14   C     C_3   0.503564 0.072820 0.772882 0.167789
C15   C     C_R   0.576336 0.475785 0.074557 0.160583
C16   C     C_R   0.501638 0.737196 0.499762 0.546792
C17   C     C_R   0.425284 0.530757 0.071709 0.325805
C18   C     C_R   0.425194 0.526385 0.923921 -0.032495
C19   C     C_R   0.575407 0.474089 0.926656 0.088036
C20   C     C_3   0.659039 0.546795 0.915055 -0.231558
C21   C     C_3   0.658905 0.556708 0.072150 0.135002
C22   C     C_R   0.670983 0.498189 0.500890 0.551631
C23   C     C_R   0.951230 0.331087 0.331375 -0.138359
C24   C     C_R   0.814625 0.570679 0.597368 -0.155611
C25   C     C_R   0.767475 0.493955 0.504881 -0.009256
C26   C     C_R   0.812249 0.411342 0.419533 -0.120289
C27   C     C_R   0.905260 0.409947 0.420170 0.003868
C28   C     C_R   0.953102 0.490761 0.509424 0.052579
C29   C     C_3   0.622628 0.876949 0.947991 -0.002949
C30   C     C_3   0.634587 0.992748 0.037641 -0.274252
C31   C     C_3   0.684219 0.964679 0.173283 -0.473860
C32   C     C_3   0.414934 0.182232 0.929556 0.016801
C33   C     C_3   0.345088 0.137853 0.033685 -0.281847
C34   C     C_R   0.044152 0.336186 0.326026 -0.139763
C35   C     C_3   0.323198 0.236577 0.139772 -0.469294
C36   C     C_3   0.333286 0.689944 0.121267 0.013887
C37   C     C_3   0.255466 0.727369 0.213373 -0.239015
C38   C     C_3   0.237377 0.864816 0.202570 -0.496497
C39   C     C_3   0.809346 0.580868 0.126030 0.007294
C40   C     C_3   0.884694 0.519794 0.045973 -0.256151
C41   C     C_3   0.973350 0.588560 0.066761 -0.477922
C42   C     C_R   0.092094 0.417383 0.412807 0.006040
C43   C     C_R   0.046567 0.493169 0.507175 0.056781
C44   C     C_R   0.094469 0.571855 0.598727 0.013475
C45   C     C_R   0.048627 0.647974 0.690763 -0.136959
C46   C     C_R   0.955581 0.647695 0.690664 -0.139317
Cu1   Cu    Cu3+1 0.500000 0.499980 0.640670 0.929451
Cu2   Cu    Cu3+1 0.500000 0.500020 0.359330 0.974738
H1    H     H_    0.778908 0.632791 0.664707 0.118448
H2    H     H_    0.078527 0.276548 0.254398 0.108300
H3    H     H_    0.220504 0.366761 0.335346 0.126019
H4    H     H_    0.225050 0.631989 0.667092 0.108888
H5    H     H_    0.084699 0.708475 0.761747 0.106630
H6    H     H_    0.921181 0.708351 0.761142 0.109548
H7    H     H_    0.486997 0.112004 0.272231 0.131701
H8    H     H_    0.685063 0.823626 0.955612 0.145118
H9    H     H_    0.568106 0.816705 0.989379 0.094544
H10   H     H_    0.673123 0.064105 0.979635 0.178572
H11   H     H_    0.567989 0.029569 0.062578 0.136128
H12   H     H_    0.487817 0.887686 0.272715 0.121395
H13   H     H_    0.652036 0.886157 0.228496 0.154655
H14   H     H_    0.683940 0.046871 0.241905 0.161141
H15   H     H_    0.754541 0.940961 0.151132 0.139416
H16   H     H_    0.395179 0.272587 0.885977 0.181248
H17   H     H_    0.479704 0.194373 0.985901 0.096547
H18   H     H_    0.282652 0.110693 0.977727 0.184848
H19   H     H_    0.370991 0.055504 0.088425 0.145866
H20   H     H_    0.384898 0.273273 0.189499 0.196306
H21   H     H_    0.279849 0.195583 0.221308 0.133543
H22   H     H_    0.287368 0.313238 0.088364 0.171700
H23   H     H_    0.469113 0.873448 0.824374 0.117713
H24   H     H_    0.315930 0.711631 0.011102 0.100125
H25   H     H_    0.393650 0.744499 0.152538 0.132434
H26   H     H_    0.194435 0.674654 0.182022 0.165994
H27   H     H_    0.271203 0.705298 0.323618 0.183014
H28   H     H_    0.295286 0.918402 0.244139 0.150109
H29   H     H_    0.177826 0.887249 0.265219 0.150187
H30   H     H_    0.224554 0.891451 0.092591 0.143491
H31   H     H_    0.364518 0.546967 0.867843 0.132615
H32   H     H_    0.831644 0.600492 0.234230 0.165308
H33   H     H_    0.796312 0.672205 0.076778 0.092209
H34   H     H_    0.559365 0.133848 0.809455 0.112690
H35   H     H_    0.891986 0.423170 0.081027 0.181331
H36   H     H_    0.867869 0.518180 0.933200 0.153554
H37   H     H_    0.967851 0.685236 0.030268 0.137250
H38   H     H_    0.026142 0.542733 0.006050 0.156111
H39   H     H_    0.993112 0.588157 0.178484 0.160282
H40   H     H_    0.713483 0.489823 0.872768 0.150665
H41   H     H_    0.649274 0.635326 0.859969 0.128864
H42   H     H_    0.774632 0.349884 0.351399 0.151988
H43   H     H_    0.645194 0.649904 0.114746 0.089815
H44   H     H_    0.915227 0.267486 0.263866 0.108171
N1    N     N_R   0.500570 0.500930 0.147930 -0.257371
N2    N     N_R   0.500570 0.500890 0.852020 -0.278496
O1    O     O_R   0.500000 0.319640 0.618810 -0.491368
O2    O     O_3   0.416354 0.096574 0.819576 -0.593431
O3    O     O_3   0.347588 0.562432 0.137824 -0.551181
O4    O     O_3   0.734125 0.499787 0.131657 -0.562846
O5    O     O_R   0.500010 0.319680 0.381230 -0.523393
O6    O     O_R   0.370250 0.499950 0.618800 -0.520621
O7    O     O_R   0.370260 0.499990 0.381220 -0.443208
O8    O     O_R   0.499990 0.680320 0.618770 -0.495157
O9    O     O_R   0.500000 0.680360 0.381190 -0.516736
O10   O     O_R   0.629740 0.500010 0.618780 -0.511330
O11   O     O_R   0.629750 0.500050 0.381200 -0.466570
O12   O     O_3   0.610968 0.906304 0.805646 -0.588464

loop_
_geom_bond_atom_site_label_1
_geom_bond_atom_site_label_2
_ccdc_geom_bond_type
C37   H26   S    
C31   H13   S    
C19   C20   S    
C34   C42   A    
C1    O5    A    
C38   H29   S    
C7    C8    A    
C38   H28   S    
C45   C46   A    
C15   C19   A    
C41   H38   S    
C26   C27   A    
C29   C30   S    
C12   C28   A    
C36   C37   S    
C30   C31   S    
C20   H40   S    
C22   O10   A    
C40   H36   S    
Cu1   Cu2   S    
C35   H22   S    
C8    C9    A    
C22   C25   S    
C5    H4    S    
C36   O3    S    
C23   C27   A    
C9    C10   A    
C37   H27   S    
C45   H5    S    
Cu1   O8    S    
C13   C14   S    
C4    O7    A    
C31   H14   S    
C40   H35   S    
C8    H7    S    
C14   O2    S    
C33   H18   S    
C41   H39   S    
C34   H2    S    
Cu2   N1    S    
C31   H15   S    
C24   C25   A    
C32   H16   S    
C12   C46   A    
C2    H3    S    
C39   C40   S    
C18   H31   S    
C39   O4    S    
C13   H23   S    
C25   C26   A    
Cu2   O9    S    
Cu1   O6    S    
C43   C44   A    
C37   C38   S    
C6    C14   S    
C16   O9    A    
Cu2   O11   S    
C1    O1    A    
C23   C34   A    
C30   H11   S    
C46   H6    S    
C17   C18   A    
C39   H33   S    
C19   N2    A    
C16   O8    A    
C40   C41   S    
C32   O2    S    
C5    C44   A    
C29   H9    S    
C4    O6    A    
C18   N2    A    
C29   O12   S    
C17   N1    A    
C42   C43   A    
C14   H34   S    
C3    C4    S    
C6    C11   A    
C44   C45   A    
C33   H19   S    
C21   H43   S    
C24   H1    S    
Cu2   O5    S    
Cu1   O10   S    
C1    C7    S    
C13   O12   S    
C3    C5    A    
C15   N1    A    
C6    C7    A    
C29   H8    S    
C26   H42   S    
C22   O11   A    
C41   H37   S    
C20   H41   S    
C12   C24   A    
C28   C43   A    
C38   H30   S    
C9    H12   S    
C32   C33   S    
C2    C3    A    
C10   C16   S    
C39   H32   S    
C21   O4    S    
C11   C13   S    
C35   H20   S    
C2    C42   A    
Cu2   O7    S    
C30   H10   S    
C33   C35   S    
Cu1   N2    S    
C10   C11   A    
C15   C21   S    
C20   C21   S    
C35   H21   S    
C27   C28   A    
Cu1   O1    S    
C23   H44   S    
C17   O3    S    
C36   H25   S    
C36   H24   S    
C32   H17   S    
