data_mof_unit_34980.cif
_audit_creation_date              2013-03-05T17:02:04-0500
_audit_creation_method            fapswitch 2.2
_symmetry_space_group_name_H-M    P1
_symmetry_Int_Tables_number       1
_space_group_crystal_system       triclinic
_cell_length_a                    10.695327
_cell_length_b                    16.271139
_cell_length_c                    16.83611
_cell_angle_alpha                 87.091744
_cell_angle_beta                  92.862253
_cell_angle_gamma                 92.589668
_cell_volume                      2919.80993124

loop_
_atom_site_label
_atom_site_type_symbol
_atom_site_description
_atom_site_fract_x
_atom_site_fract_y
_atom_site_fract_z
_atom_type_partial_charge
O1    O     O_R   0.494440 0.422540 0.612660 -0.621585
O2    O     O_R   0.505560 0.577460 0.387340 -0.623803
O3    O     O_R   0.504420 0.561850 0.618900 -0.546279
O4    O     O_R   0.495580 0.438150 0.381100 -0.549093
C1    C     C_R   0.495888 0.488818 0.652445 0.914511
C2    C     C_R   0.505653 0.511293 0.347653 0.917891
O5    O     O_R   0.681060 0.430360 0.496900 -0.532183
O6    O     O_R   0.318940 0.569640 0.503100 -0.531724
O7    O     O_R   0.691040 0.569670 0.503140 -0.620731
O8    O     O_R   0.308960 0.430330 0.496860 -0.612730
C3    C     C_R   0.742036 0.500443 0.498691 0.944532
C4    C     C_R   0.257761 0.499572 0.500293 0.945014
Zn1   Zn    Zn3+2 0.493340 0.406980 0.495830 1.106611
Zn2   Zn    Zn3+2 0.506660 0.593020 0.504170 1.101514
C5    C     C_3   0.951995 0.425899 0.517655 0.228934
C6    C     C_3   0.047222 0.573932 0.479455 0.226280
C7    C     C_3   0.041448 0.475522 0.573901 -0.187696
C8    C     C_3   0.957534 0.524107 0.423275 -0.186009
C9    C     C_3   0.123762 0.497480 0.502056 -0.301254
C10   C     C_3   0.875690 0.502184 0.495413 -0.308128
C11   C     C_3   0.033856 0.447145 0.446840 0.196103
C12   C     C_3   0.965606 0.552449 0.550303 0.188069
C13   C     C_R   0.491514 0.481263 0.738275 -0.162146
C14   C     C_R   0.519228 0.520139 0.262437 -0.168053
C15   C     C_R   0.415293 0.531114 0.780629 0.281731
C16   C     C_R   0.597373 0.469672 0.222395 0.295430
C17   C     C_R   0.425445 0.525172 0.863310 -0.231468
C18   C     C_R   0.600649 0.480273 0.140149 -0.223342
C19   C     C_R   0.511771 0.473575 0.903724 0.227007
C20   C     C_R   0.527930 0.539106 0.097672 0.196868
C21   C     C_R   0.585072 0.423039 0.861731 -0.001146
C22   C     C_R   0.457785 0.593001 0.138079 -0.003002
C23   C     C_R   0.573192 0.426883 0.778956 -0.266487
C24   C     C_R   0.452647 0.581814 0.220338 -0.266846
N1    N     N_2   0.524740 0.471550 0.987137 -0.161060
N2    N     N_2   0.517008 0.540847 0.014061 -0.185773
H1    H     H_    0.659477 0.441887 0.108552 0.193589
H2    H     H_    0.366140 0.561342 0.896998 0.196923
H3    H     H_    0.634051 0.391222 0.746096 0.225299
H4    H     H_    0.393913 0.620260 0.251609 0.238387
N3    N     N_R   0.515540 0.716920 0.509720 -0.209047
N4    N     N_R   0.484460 0.283080 0.490280 -0.208004
C25   C     C_R   0.475445 0.767023 0.445917 0.379778
C26   C     C_R   0.524463 0.233388 0.554294 0.392851
C27   C     C_R   0.478042 0.853547 0.450383 -0.293378
C28   C     C_R   0.521792 0.146824 0.550400 -0.298431
C29   C     C_R   0.521166 0.891425 0.520300 0.143307
C30   C     C_R   0.478461 0.108574 0.480697 0.145031
C31   C     C_R   0.564224 0.840459 0.584459 0.150736
C32   C     C_R   0.435455 0.159208 0.416216 0.148003
C33   C     C_R   0.559211 0.753576 0.578834 0.296609
C34   C     C_R   0.440897 0.246157 0.421308 0.298839
N5    N     N_2   0.526521 0.979319 0.528337 -0.067565
N6    N     N_2   0.473045 0.020651 0.473020 -0.067729
H5    H     H_    0.554956 0.110058 0.601953 0.242887
H6    H     H_    0.444761 0.890631 0.399081 0.247242
C35   C     C_R   0.070037 0.441291 0.657648 0.236066
C36   C     C_R   0.977287 0.440475 0.714017 -0.008093
C37   C     C_R   0.999788 0.406053 0.790791 -0.110161
C38   C     C_R   0.113604 0.370082 0.811629 -0.103274
C39   C     C_R   0.204363 0.367429 0.755141 -0.136750
C40   C     C_R   0.182265 0.402137 0.678305 -0.066311
H7    H     H_    0.886894 0.465764 0.698344 0.140735
H8    H     H_    0.928441 0.406713 0.833797 0.151914
H9    H     H_    0.130680 0.343260 0.871119 0.149211
H10   H     H_    0.291724 0.338149 0.770736 0.172064
H11   H     H_    0.252327 0.397360 0.635362 0.156440
C41   C     C_R   0.919709 0.558354 0.340620 0.231084
C42   C     C_R   0.992138 0.544858 0.275436 -0.012734
C43   C     C_R   0.955976 0.575471 0.198993 -0.153340
C44   C     C_R   0.851579 0.623898 0.187502 -0.127420
C45   C     C_R   0.783895 0.642360 0.252570 -0.123659
C46   C     C_R   0.817837 0.610013 0.328707 -0.085206
H12   H     H_    0.077385 0.511538 0.283480 0.152620
H13   H     H_    0.009529 0.562275 0.148670 0.132639
H14   H     H_    0.824168 0.648018 0.128406 0.144241
H15   H     H_    0.704620 0.681461 0.244011 0.181893
H16   H     H_    0.765562 0.626820 0.377964 0.170262
N7    N     N_R   0.614578 0.876739 0.656039 0.253470
O9    O     O_R   0.555189 0.933612 0.688345 -0.328247
O10   O     O_R   0.721515 0.854090 0.688386 -0.269802
N8    N     N_R   0.384771 0.122534 0.344873 0.256400
O11   O     O_R   0.442785 0.064448 0.313513 -0.315022
O12   O     O_R   0.279042 0.146160 0.311679 -0.263261
N9    N     N_R   0.592546 0.704918 0.649102 0.258876
O13   O     O_R   0.536215 0.714687 0.714493 -0.312857
O14   O     O_R   0.693528 0.663332 0.652564 -0.297274
N10   N     N_R   0.408662 0.294545 0.350622 0.258241
O15   O     O_R   0.465186 0.283782 0.285531 -0.299236
O16   O     O_R   0.307941 0.336422 0.346343 -0.302686
N11   N     N_R   0.901132 0.341835 0.533008 0.272673
O17   O     O_R   0.938311 0.298822 0.596293 -0.331425
O18   O     O_R   0.835103 0.305040 0.477197 -0.247022
N12   N     N_R   0.098149 0.657764 0.463506 0.272898
O19   O     O_R   0.065837 0.698821 0.397993 -0.332041
O20   O     O_R   0.162268 0.695685 0.519399 -0.252859
N13   N     N_R   0.065857 0.379592 0.398906 0.261506
O21   O     O_R   0.011454 0.371191 0.328847 -0.293092
O22   O     O_R   0.115137 0.315526 0.435318 -0.274612
N14   N     N_R   0.932859 0.618066 0.600304 0.267581
O23   O     O_R   0.972642 0.618095 0.674525 -0.296406
O24   O     O_R   0.891287 0.685685 0.566179 -0.275949
N15   N     N_R   0.674825 0.408802 0.262890 0.243097
O25   O     O_R   0.725744 0.420725 0.333218 -0.371899
O26   O     O_R   0.709232 0.346401 0.225058 -0.293175
N16   N     N_R   0.328157 0.587721 0.742313 0.244728
O27   O     O_R   0.277746 0.575737 0.671830 -0.377134
O28   O     O_R   0.289959 0.648403 0.781034 -0.307670
C47   C     C_R   0.680148 0.370081 0.903016 0.110010
C48   C     C_R   0.769324 0.403015 0.958415 -0.168910
C49   C     C_R   0.859440 0.353105 0.996422 -0.128830
C50   C     C_R   0.862352 0.270233 0.978925 -0.076134
C51   C     C_R   0.774957 0.237096 0.923538 -0.092226
C52   C     C_R   0.684221 0.286686 0.885705 -0.114949
H17   H     H_    0.770610 0.467600 0.971244 0.151592
H18   H     H_    0.927700 0.378908 0.038914 0.163274
H19   H     H_    0.932533 0.231754 0.008112 0.165426
H20   H     H_    0.777359 0.172885 0.909996 0.171783
H21   H     H_    0.616524 0.259896 0.843526 0.199100
C53   C     C_R   0.383228 0.657660 0.094878 0.134727
C54   C     C_R   0.436905 0.710390 0.035821 -0.122596
C55   C     C_R   0.365808 0.770409 0.994799 -0.070354
C56   C     C_R   0.241018 0.778859 0.012698 -0.061387
C57   C     C_R   0.187215 0.727515 0.071885 -0.106041
C58   C     C_R   0.257923 0.667372 0.112952 -0.118808
H22   H     H_    0.533957 0.705483 0.021861 0.151642
H23   H     H_    0.407616 0.810533 0.949241 0.179261
H24   H     H_    0.186146 0.825358 0.980880 0.163835
H25   H     H_    0.090616 0.734187 0.085895 0.152083
H26   H     H_    0.214697 0.627885 0.158354 0.134616
N17   N     N_R   0.573641 0.268161 0.625915 0.226947
O29   O     O_R   0.677675 0.312468 0.625019 -0.354485
O30   O     O_R   0.532424 0.240031 0.693871 -0.435654
N18   N     N_R   0.425922 0.732892 0.373977 0.223293
O31   O     O_R   0.324862 0.685641 0.375482 -0.342703
O32   O     O_R   0.461384 0.764891 0.305899 -0.409816

loop_
_geom_bond_atom_site_label_1
_geom_bond_atom_site_label_2
_geom_bond_distance
_ccdc_geom_bond_type
C17   C19   1.403412 A    
C8    C11   1.549679 S    
C49   C50   1.396791 A    
C33   N9    1.428943 S    
N13   O21   1.299669 A    
C35   C36   1.405867 A    
C56   C57   1.396922 A    
C29   C31   1.400173 A    
N17   O30   1.300697 A    
N5    N6    1.250916 D    
C26   N17   1.424702 S    
C30   N6    1.441259 S    
C37   H8    1.078601 S    
C23   H3    1.081257 S    
C40   H11   1.074869 S    
C24   H4    1.079384 S    
C9    C11   1.541560 S    
C14   C16   1.414840 A    
C42   C43   1.398824 A    
C50   H19   1.082268 S    
N16   O27   1.298837 A    
C17   H2    1.083468 S    
C8    C41   1.515303 S    
O4    Zn1   1.973073 S    
C55   H23   1.082371 S    
C48   C49   1.397956 A    
Zn1   N4    2.020621 S    
C58   H26   1.081411 S    
N1    N2    1.244075 D    
C27   H6    1.082866 S    
C41   C42   1.406208 A    
C31   C33   1.420068 A    
C28   H5    1.082937 S    
C32   C34   1.420078 A    
C46   H16   1.076215 S    
C21   C23   1.391540 A    
C49   H18   1.082448 S    
C52   H21   1.081708 S    
C29   N5    1.441655 S    
C27   C29   1.404254 A    
C37   C38   1.395831 A    
C19   C21   1.401147 A    
N3    C25   1.378080 A    
O2    C2    1.295650 A    
N4    C26   1.376627 A    
C22   C53   1.487273 S    
C39   H10   1.082571 S    
C50   C51   1.397279 A    
N13   O22   1.301084 A    
C26   C28   1.412285 A    
C15   N16   1.445776 S    
N9    O14   1.297492 A    
C5    C10   1.536476 S    
C28   C30   1.404635 A    
C3    C10   1.432242 S    
C12   N14   1.457966 S    
C34   N10   1.429517 S    
N7    O9    1.301650 A    
O4    C2    1.292891 A    
N11   O17   1.300129 A    
N7    O10   1.302314 A    
C53   C58   1.406559 A    
N18   O32   1.301404 A    
C13   C23   1.401325 A    
C36   C37   1.396429 A    
N9    O13   1.301136 A    
C14   C24   1.399463 A    
C31   N7    1.438571 S    
C6    C12   1.530046 S    
C38   C39   1.395971 A    
C22   C24   1.391153 A    
C25   N18   1.426026 S    
O5    C3    1.288755 A    
O7    Zn2   2.026139 S    
C45   H15   1.082437 S    
C16   N15   1.442629 S    
N11   O18   1.301041 A    
C11   N13   1.458830 S    
C1    C13   1.446951 S    
C5    C11   1.530542 S    
O6    C4    1.290404 A    
C2    C14   1.448496 S    
N14   O24   1.301092 A    
C21   C47   1.485756 S    
C42   H12   1.080943 S    
N15   O26   1.301854 A    
N12   O20   1.301057 A    
O7    C3    1.280636 A    
C54   C55   1.398266 A    
C43   C44   1.395525 A    
O3    Zn2   1.973074 S    
O8    C4    1.279866 A    
C47   C52   1.405302 A    
Zn2   N3    2.020621 S    
N10   O16   1.297509 A    
C38   H9    1.082387 S    
N12   O19   1.300113 A    
N8    O12   1.301226 A    
O1    C1    1.297175 A    
O1    Zn1   1.995278 S    
C35   C40   1.404465 A    
N17   O29   1.298502 A    
C43   H13   1.081687 S    
C53   C54   1.407200 A    
C32   N8    1.439153 S    
C51   C52   1.398358 A    
C36   H7    1.083081 S    
C5    C7    1.543152 S    
O6    Zn2   2.025850 S    
C16   C18   1.388676 A    
C10   C12   1.537735 S    
C45   C46   1.397953 A    
O3    C1    1.290973 A    
O8    Zn1   2.026139 S    
N18   O31   1.298345 A    
C15   C17   1.389637 A    
C19   N1    1.403136 S    
C6    N12   1.462777 S    
C7    C12   1.546498 S    
C20   N2    1.405642 S    
C18   C20   1.405338 A    
C41   C46   1.406310 A    
C54   H22   1.082968 S    
C25   C27   1.412611 A    
C47   C48   1.407995 A    
C20   C22   1.402011 A    
C56   H24   1.082306 S    
C44   H14   1.082379 S    
N16   O28   1.301980 A    
C18   H1    1.082410 S    
C6    C9    1.541179 S    
C4    C9    1.433779 S    
C30   C32   1.400899 A    
N14   O23   1.299805 A    
C7    C9    1.549167 S    
C57   H25   1.082554 S    
C8    C10   1.550017 S    
C13   C15   1.416858 A    
C39   C40   1.398438 A    
O2    Zn2   1.995278 S    
C5    N11   1.464445 S    
C51   H20   1.082311 S    
O5    Zn1   2.025853 S    
C44   C45   1.395213 A    
N10   O15   1.300877 A    
C6    C8    1.545627 S    
N8    O11   1.301283 A    
C7    C35   1.511410 S    
N15   O25   1.298293 A    
C55   C56   1.397153 A    
C48   H17   1.082878 S    
N3    C33   1.385224 A    
N4    C34   1.384896 A    
C57   C58   1.397711 A    
