data_mof_unit_52852.cif
_audit_creation_date              2012-12-10T16:52:02-0500
_audit_creation_method            fapswitch 2.2
_symmetry_space_group_name_H-M    P1
_symmetry_Int_Tables_number       1
_space_group_crystal_system       triclinic
_cell_length_a                    7.767897
_cell_length_b                    8.551484
_cell_length_c                    14.868338
_cell_angle_alpha                 91.188601
_cell_angle_beta                  86.011399
_cell_angle_gamma                 93.629242
_cell_volume                      983.159227526

loop_
_atom_site_label
_atom_site_type_symbol
_atom_type_description
_atom_site_fract_x
_atom_site_fract_y
_atom_site_fract_z
_atom_type_partial_charge
C1    C     C_R   0.545746 0.794701 0.497714 0.964818
C2    C     C_R   0.587554 0.625624 0.811439 -0.145325
C3    C     C_R   0.492871 0.501163 0.232208 -0.077582
C4    C     C_R   0.507154 0.498825 0.767779 -0.078244
C5    C     C_R   0.574192 0.627228 0.185899 -0.146569
C6    C     C_R   0.425639 0.372878 0.814095 -0.188573
C7    C     C_R   0.575685 0.628371 0.092981 0.070199
C8    C     C_R   0.424650 0.371507 0.906989 0.062363
C9    C     C_R   0.497979 0.499319 0.046855 0.008237
C10   C     C_R   0.502536 0.500468 0.953114 0.014012
C11   C     C_R   0.416725 0.369169 0.094708 -0.015410
C12   C     C_R   0.454259 0.205301 0.502355 0.959482
C13   C     C_R   0.584077 0.630460 0.905245 -0.000684
C14   C     C_R   0.654185 0.756794 0.046251 -0.225348
C15   C     C_R   0.346744 0.242820 0.953690 -0.187626
C16   C     C_R   0.658273 0.760495 0.952536 0.454102
C17   C     C_R   0.343157 0.238881 0.047338 0.453669
C18   C     C_2   0.569903 0.958202 0.496422 -0.351555
C19   C     C_2   0.430112 0.041806 0.503764 -0.344830
C20   C     C_R   0.502436 0.500281 0.672759 0.876366
C21   C     C_R   0.497565 0.499727 0.327237 0.881213
C22   C     C_R   0.413067 0.374066 0.188519 -0.159356
H1    H     H_    0.352074 0.279542 0.228843 0.200309
H2    H     H_    0.986378 0.617540 0.568070 0.203727
H3    H     H_    0.673292 0.094919 0.803288 0.379659
H4    H     H_    0.137911 0.841188 0.061402 0.385070
H5    H     H_    0.648855 0.719998 0.771102 0.201238
H6    H     H_    0.635096 0.724365 0.222621 0.153611
H7    H     H_    0.364504 0.275847 0.777385 0.156631
H8    H     H_    0.711834 0.854715 0.083391 0.217584
H9    H     H_    0.289339 0.144804 0.916560 0.236116
H10   H     H_    0.701954 0.009200 0.489409 0.185823
H11   H     H_    0.298062 0.990808 0.510791 0.186978
H12   H     H_    0.013621 0.382457 0.431931 0.204403
N1    N     N_2   0.950330 0.457950 0.475660 -0.167914
N2    N     N_2   0.049670 0.542050 0.524340 -0.167855
O1    O     O_R   0.389250 0.738570 0.505970 -0.609283
O2    O     O_2   0.910714 0.886004 0.839689 -0.299169
O3    O     O_3   0.611057 0.002662 0.832478 -0.584044
O4    O     O_2   0.377734 0.002290 0.158774 -0.331624
O5    O     O_2   0.092873 0.111105 0.160627 -0.298657
O6    O     O_3   0.187125 0.931476 0.025321 -0.507411
O7    O     O_R   0.610750 0.261430 0.494030 -0.611876
O8    O     O_R   0.678390 0.711620 0.490370 -0.630275
O9    O     O_R   0.321610 0.288380 0.509630 -0.630423
O10   O     O_R   0.355420 0.513510 0.639950 -0.600016
O11   O     O_R   0.644580 0.486490 0.360050 -0.603516
O12   O     O_R   0.644560 0.486560 0.624350 -0.625280
O13   O     O_R   0.355440 0.513440 0.375650 -0.618169
O14   O     O_2   0.808224 0.053613 0.965420 -0.256671
S1    S     S_3+6 0.754423 0.930109 0.897728 0.024119
S2    S     S_3+6 0.248446 0.068306 0.101609 0.027536
Zn1   Zn    Zn3+2 0.306940 0.517990 0.510420 0.980442
Zn2   Zn    Zn3+2 0.693060 0.482010 0.489580 0.975580

loop_
_geom_bond_atom_site_label_1
_geom_bond_atom_site_label_2
_ccdc_geom_bond_type
O3    S1    S    
C15   H9    S    
C2    H5    S    
O2    S1    D    
C8    C15   A    
C5    H6    S    
C5    C7    A    
C9    C10   A    
O7    Zn2   S    
C2    C4    A    
N1    N2    D    
C16   S1    S    
C1    O1    A    
C1    O8    A    
O1    Zn1   S    
C21   O13   A    
O14   S1    D    
O9    Zn1   S    
H2    N2    S    
H3    O3    S    
N1    Zn2   S    
O12   Zn2   S    
C9    C11   A    
C1    C18   S    
C20   O12   A    
C14   H8    S    
O11   Zn2   S    
O13   Zn1   S    
O10   Zn1   S    
C4    C6    A    
C12   C19   S    
C18   C19   D    
C12   O7    A    
C7    C9    A    
C17   S2    S    
C14   C16   A    
C3    C21   S    
C18   H10   S    
C4    C20   S    
O8    Zn2   S    
C6    H7    S    
H4    O6    S    
C11   C22   A    
C8    C10   A    
H12   N1    S    
C19   H11   S    
C13   C16   A    
C15   C17   A    
C2    C13   A    
C22   H1    S    
C11   C17   A    
C3    C22   A    
C6    C8    A    
N2    Zn1   S    
O5    S2    D    
C3    C5    A    
O4    S2    D    
C7    C14   A    
C20   O10   A    
O6    S2    S    
C12   O9    A    
C21   O11   A    
C10   C13   A    
