data_mof_unit_63839.cif
_audit_creation_date              2013-03-05T15:39:57-0500
_audit_creation_method            fapswitch 2.2
_symmetry_space_group_name_H-M    P1
_symmetry_Int_Tables_number       1
_space_group_crystal_system       triclinic
_cell_length_a                    19.085182
_cell_length_b                    18.990554
_cell_length_c                    18.879444
_cell_angle_alpha                 109.227445
_cell_angle_beta                  109.624606
_cell_angle_gamma                 109.566475
_cell_volume                      5267.08849983

loop_
_atom_site_label
_atom_site_type_symbol
_atom_site_description
_atom_site_fract_x
_atom_site_fract_y
_atom_site_fract_z
_atom_type_partial_charge
O1    O     O_R   0.411310 0.359450 0.448800 -0.568692
O2    O     O_R   0.410660 0.462490 0.551220 -0.605510
C1    C     C_R   0.382648 0.382262 0.499671 0.715980
O3    O     O_R   0.589930 0.448490 0.538390 -0.583960
O4    O     O_R   0.589280 0.551530 0.640800 -0.587933
C2    C     C_R   0.617932 0.500349 0.618335 0.785597
Cu1   Cu    Cu3+1 0.500390 0.438990 0.439360 0.964427
Cu2   Cu    Cu3+1 0.499610 0.561010 0.560640 0.952535
O5    O     O_R   0.589340 0.537510 0.448780 -0.582197
O6    O     O_R   0.588690 0.640550 0.551200 -0.586782
O7    O     O_R   0.410720 0.448470 0.359200 -0.590877
O8    O     O_R   0.410070 0.551510 0.461610 -0.574346
C3    C     C_R   0.615744 0.617353 0.497980 0.874861
C4    C     C_R   0.379783 0.497371 0.381177 0.841979
H1    H     H_    0.536442 0.203313 0.553515 0.145967
C5    C     C_R   0.772192 0.660111 0.759316 -0.141582
C6    C     C_R   0.839651 0.737773 0.832857 -0.138705
C7    C     C_R   0.893925 0.737673 0.903463 -0.138610
C8    C     C_R   0.883829 0.659921 0.898889 -0.141639
C9    C     C_R   0.818568 0.580058 0.822753 0.070019
C10   C     C_R   0.757656 0.580132 0.755134 0.070922
C11   C     C_R   0.812907 0.500652 0.812532 -0.185817
C12   C     C_R   0.743087 0.421339 0.739032 0.074088
C13   C     C_R   0.674695 0.421374 0.679479 0.068542
C14   C     C_R   0.684145 0.500740 0.685527 -0.187746
C15   C     C_R   0.739443 0.341428 0.723317 -0.141190
C16   C     C_R   0.665829 0.263717 0.656380 -0.138798
C17   C     C_R   0.594590 0.263729 0.603886 -0.130522
C18   C     C_R   0.598546 0.341463 0.615003 -0.141504
H2    H     H_    0.732579 0.664094 0.706055 0.150135
H3    H     H_    0.849061 0.798242 0.835468 0.140159
H4    H     H_    0.944844 0.798060 0.961582 0.140017
H5    H     H_    0.927372 0.663702 0.956028 0.150456
H6    H     H_    0.793229 0.337669 0.761676 0.140505
H7    H     H_    0.663679 0.203302 0.646089 0.144720
H8    H     H_    0.540991 0.337732 0.572924 0.147888
C19   C     C_2   0.262810 0.240303 0.568709 -0.124317
C20   C     C_2   0.179083 0.195632 0.509524 -0.238483
H9    H     H_    0.287516 0.224690 0.618678 0.161261
H10   H     H_    0.153551 0.217101 0.465509 0.182844
C21   C     C_2   0.322939 0.313552 0.568950 -0.260431
C22   C     C_2   0.314774 0.312736 0.495010 0.366529
H11   H     H_    0.378068 0.366755 0.631048 0.121794
C23   C     C_2   0.174208 0.490836 0.247695 -0.155803
C24   C     C_2   0.183796 0.507139 0.186627 -0.306966
H12   H     H_    0.113648 0.473542 0.247182 0.162891
H13   H     H_    0.246745 0.533432 0.192349 0.160562
C25   C     C_2   0.247279 0.503113 0.320929 -0.157957
C26   C     C_2   0.309130 0.489907 0.311447 -0.311297
H14   H     H_    0.247630 0.518735 0.381861 0.161838
H15   H     H_    0.303875 0.465011 0.248086 0.156022
C27   C     C_2   0.746805 0.825352 0.506166 0.375033
C28   C     C_2   0.819500 0.825489 0.512266 -0.437248
H16   H     H_    0.836776 0.782694 0.530738 0.133532
C29   C     C_2   0.687257 0.761039 0.516331 -0.205706
C30   C     C_2   0.676721 0.681701 0.490837 -0.384337
H17   H     H_    0.648618 0.778412 0.541821 0.197118
H18   H     H_    0.708958 0.660927 0.457873 0.159524
O9    O     O_R   0.945860 0.359480 0.908360 -0.583002
O10   O     O_R   0.048900 0.462510 0.908320 -0.583274
C31   C     C_R   0.996155 0.382797 0.878387 0.843568
O11   O     O_R   0.855710 0.448510 0.907250 -0.588043
O12   O     O_R   0.958760 0.551540 0.907200 -0.586571
C32   C     C_R   0.879098 0.500285 0.878959 0.786558
Cu3   Cu    Cu3+1 0.935830 0.439030 0.996840 0.955290
Cu4   Cu    Cu3+1 0.057850 0.561040 0.996790 0.959372
O13   O     O_R   0.944780 0.537560 0.085320 -0.585459
O14   O     O_R   0.047820 0.640590 0.085270 -0.586650
O15   O     O_R   0.034920 0.448530 0.086440 -0.579760
O16   O     O_R   0.137970 0.551560 0.086390 -0.584965
C33   C     C_R   0.997914 0.617287 0.115608 0.835659
C34   C     C_R   0.115127 0.501724 0.116706 0.844793
O17   O     O_R   0.051300 0.089020 0.640330 -0.596784
O18   O     O_R   0.947570 0.089010 0.536620 -0.563130
C35   C     C_R   0.997839 0.115448 0.617333 0.869150
O19   O     O_R   0.140880 0.089030 0.551840 -0.588219
O20   O     O_R   0.037150 0.089020 0.448130 -0.592602
C36   C     C_R   0.116770 0.120754 0.503170 0.817335
Cu5   Cu    Cu3+1 0.061410 0.000010 0.561410 0.961529
Cu6   Cu    Cu3+1 0.938590 0.999990 0.438590 1.007493
O21   O     O_R   0.052430 0.910990 0.463380 -0.581699
O22   O     O_R   0.948700 0.910980 0.359670 -0.588981
O23   O     O_R   0.962850 0.910980 0.551870 -0.594046
O24   O     O_R   0.859120 0.910970 0.448160 -0.538072
C37   C     C_R   0.001944 0.884452 0.382624 0.845948
C38   C     C_R   0.883041 0.885666 0.503496 0.904163
C39   C     C_2   0.925635 0.184517 0.673605 -0.099711
C40   C     C_2   0.995386 0.176522 0.686212 -0.315372
H19   H     H_    0.867331 0.144007 0.610659 0.205601
H20   H     H_    0.050598 0.210956 0.751007 0.151236
C41   C     C_2   0.924391 0.244523 0.745793 -0.164516
C42   C     C_2   0.995816 0.319101 0.809323 -0.316201
H21   H     H_    0.863309 0.229810 0.743590 0.162530
H22   H     H_    0.054587 0.338299 0.806151 0.154105
C43   C     C_2   0.072900 0.816218 0.322800 -0.147623
C44   C     C_2   0.002737 0.822380 0.313150 -0.310363
H23   H     H_    0.133010 0.859156 0.384089 0.167296
H24   H     H_    0.945504 0.786279 0.249557 0.154509
C45   C     C_2   0.071928 0.755747 0.248899 -0.151767
C46   C     C_2   0.999954 0.681009 0.186255 -0.317212
H25   H     H_    0.132023 0.770638 0.248774 0.167690
H26   H     H_    0.942281 0.661513 0.191362 0.155606
O25   O     O_3   0.255315 0.237345 0.415633 -0.559275
C47   C     C_3   0.212260 0.256306 0.353857 -0.325152
H27   H     H_    0.253459 0.283795 0.329341 0.185465
H28   H     H_    0.189672 0.300333 0.380077 0.133287
H29   H     H_    0.154598 0.195326 0.297688 0.194204
N1    N     N_R   0.728492 0.890629 0.497426 0.140206
O26   O     O_R   0.649040 0.872020 0.456923 -0.356219
O27   O     O_R   0.788938 0.971067 0.542931 -0.386716

loop_
_geom_bond_atom_site_label_1
_geom_bond_atom_site_label_2
_geom_bond_distance
_ccdc_geom_bond_type
Cu4   O14   1.963578 S    
C29   C30   1.340368 D    
C1    C22   1.459583 S    
C5    C10   1.419225 A    
C39   C41   1.474256 S    
O17   C35   1.292418 A    
C21   C22   1.345821 D    
C40   H20   1.086357 S    
C8    C9    1.419150 A    
O19   Cu5   1.964381 S    
Cu6   O24   1.964380 S    
C22   O25   1.392706 S    
C47   H28   1.114506 S    
Cu1   Cu2   2.676548 S    
C28   H16   1.086162 S    
C23   C24   1.340689 D    
Cu1   O7    1.974237 S    
C18   H8    1.080439 S    
C15   C16   1.392517 A    
C17   C18   1.392690 A    
C20   H10   1.085544 S    
O24   C38   1.299219 A    
O4    C2    1.289900 A    
C37   C44   1.455017 S    
C43   C45   1.476077 S    
C4    C26   1.458811 S    
Cu3   O13   1.963759 S    
C5    H2    1.079872 S    
N1    O26   1.301219 A    
C7    C8    1.392507 A    
C12   C15   1.419408 A    
O5    C3    1.289167 A    
C13   C18   1.419370 A    
O11   C32   1.289721 A    
C15   H6    1.080321 S    
C43   C44   1.339816 D    
C30   H18   1.086054 S    
C5    C6    1.392548 A    
C26   H15   1.086125 S    
C44   H24   1.086267 S    
C12   C13   1.408241 A    
C28   C38   1.461244 S    
C27   C29   1.480288 S    
C3    C30   1.458513 S    
C25   H14   1.086326 S    
O12   Cu4   1.972751 S    
O10   Cu4   1.963661 S    
O18   Cu6   1.960797 S    
C24   C34   1.459089 S    
C21   H11   1.086989 S    
O3    Cu1   1.968146 S    
C46   H26   1.086158 S    
C47   H27   1.110701 S    
C23   H12   1.086255 S    
C24   H13   1.086190 S    
O9    C31   1.297249 A    
O18   C35   1.298465 A    
C13   C14   1.417035 A    
Cu6   O22   1.966534 S    
C8    H5    1.079956 S    
C41   C42   1.338820 D    
Cu5   O21   1.960798 S    
C20   C36   1.452541 S    
C16   H7    1.082621 S    
O20   C36   1.290574 A    
Cu5   Cu6   2.686841 S    
O10   C31   1.287647 A    
O1    C1    1.283315 A    
O15   C34   1.298755 A    
C19   C20   1.337904 D    
C41   H21   1.086467 S    
C45   C46   1.340666 D    
Cu2   O8    1.968143 S    
C42   H22   1.086391 S    
C6    C7    1.387563 A    
O17   Cu5   1.966535 S    
O3    C2    1.288488 A    
C25   C26   1.341272 D    
C45   H25   1.086469 S    
C9    C11   1.417089 A    
C39   H19   1.085596 S    
C6    H3    1.082591 S    
C7    H4    1.082585 S    
O25   C47   1.412844 S    
C27   C28   1.352107 D    
O20   Cu6   1.967481 S    
Cu1   O5    1.965875 S    
C10   C14   1.417120 A    
O11   Cu3   1.969543 S    
O1    Cu1   1.965842 S    
O2    Cu2   1.965875 S    
O19   C36   1.298174 A    
O6    C3    1.295963 A    
O4    Cu2   1.974238 S    
C43   H23   1.086382 S    
O22   C37   1.290381 A    
C33   C46   1.454418 S    
C29   H17   1.086730 S    
O2    C1    1.297138 A    
O8    C4    1.296590 A    
C19   H9    1.085943 S    
O9    Cu3   1.963579 S    
Cu5   O23   1.967480 S    
H1    C17   1.082570 S    
Cu4   O16   1.969662 S    
O14   C33   1.296986 A    
Cu3   O15   1.972847 S    
O7    C4    1.288879 A    
C31   C42   1.453829 S    
N1    O27   1.300742 A    
O13   C33   1.288245 A    
C19   C21   1.474795 S    
C11   C32   1.454681 S    
O12   C32   1.290608 A    
C2    C14   1.454961 S    
C35   C40   1.456810 S    
O23   C38   1.292752 A    
C9    C10   1.409441 A    
C27   N1    1.439552 S    
C39   C40   1.340979 D    
Cu2   O6    1.965841 S    
Cu3   Cu4   2.679665 S    
C16   C17   1.387790 A    
C11   C12   1.416630 A    
O16   C34   1.288937 A    
C47   H29   1.109205 S    
O21   C37   1.299536 A    
C23   C25   1.478382 S    
