data_mof_unit_65385.cif
_audit_creation_date              2012-12-10T18:17:34-0500
_audit_creation_method            fapswitch 2.2
_symmetry_space_group_name_H-M    P1
_symmetry_Int_Tables_number       1
_space_group_crystal_system       triclinic
_cell_length_a                    29.176495
_cell_length_b                    29.176463
_cell_length_c                    47.271653
_cell_angle_alpha                 90.000584
_cell_angle_beta                  90.000557
_cell_angle_gamma                 89.999949
_cell_volume                      40240.7947718

loop_
_atom_site_label
_atom_site_type_symbol
_atom_type_description
_atom_site_fract_x
_atom_site_fract_y
_atom_site_fract_z
_atom_type_partial_charge
C1    C     C_R   0.086729 0.500000 0.000004 1.044488
C2    C     C_R   0.500001 1.000000 0.086947 -0.380773
C3    C     C_R   0.973926 0.468616 0.809623 0.529641
C4    C     C_R   0.531562 0.025856 0.190373 0.529650
C5    C     C_R   0.025831 0.468416 0.190372 0.529649
C6    C     C_R   0.468432 0.974141 0.190371 0.529646
C7    C     C_R   0.974163 0.531586 0.190372 0.529649
C8    C     C_R   0.970110 0.529760 0.279899 -0.067348
C9    C     C_R   0.470256 0.970091 0.279899 -0.067345
C10   C     C_R   0.029881 0.470237 0.279899 -0.067348
C11   C     C_R   0.529735 0.029903 0.279900 -0.067344
C12   C     C_R   0.969885 0.470473 0.720096 -0.067362
C13   C     C_R   0.999999 0.499999 0.913051 -0.380835
C14   C     C_R   0.470256 0.029903 0.720101 -0.067343
C15   C     C_R   0.030113 0.529531 0.720097 -0.067363
C16   C     C_R   0.529742 0.970098 0.720101 -0.067344
C17   C     C_R   0.470096 0.029743 0.779899 -0.067342
C18   C     C_R   0.970044 0.470314 0.779895 -0.067312
C19   C     C_R   0.529901 0.970257 0.779899 -0.067342
C20   C     C_R   0.029953 0.529690 0.779896 -0.067314
C21   C     C_R   0.470097 0.970251 0.220100 -0.067345
C22   C     C_R   0.970271 0.529921 0.220100 -0.067350
C23   C     C_R   0.529895 0.029745 0.220101 -0.067343
C24   C     C_R   0.499999 0.000000 0.913053 -0.380770
C25   C     C_R   0.029722 0.470079 0.220100 -0.067350
C26   C     C_R   0.999996 0.499999 0.264930 -0.089983
C27   C     C_R   0.499996 0.999997 0.264930 -0.089984
C28   C     C_R   0.999999 0.500002 0.735066 -0.090003
C29   C     C_R   0.499999 0.000000 0.735070 -0.089984
C30   C     C_R   0.499999 1.000000 0.764930 -0.089985
C31   C     C_R   0.999998 0.500002 0.764926 -0.089973
C32   C     C_R   0.499996 0.999998 0.235070 -0.089984
C33   C     C_R   0.999996 0.500000 0.235070 -0.089981
C34   C     C_R   0.942201 0.561349 0.264844 0.174362
C35   C     C_R   0.500000 0.000001 0.586947 -0.380778
C36   C     C_R   0.438688 0.942160 0.264843 0.174366
C37   C     C_R   0.057790 0.438649 0.264844 0.174363
C38   C     C_R   0.561303 0.057834 0.264846 0.174361
C39   C     C_R   0.941728 0.439108 0.735151 0.174334
C40   C     C_R   0.438685 0.057830 0.735155 0.174365
C41   C     C_R   0.058269 0.560898 0.735154 0.174338
C42   C     C_R   0.561314 0.942170 0.735155 0.174365
C43   C     C_R   0.442169 0.061314 0.764845 0.174360
C44   C     C_R   0.938269 0.442619 0.764841 0.174394
C45   C     C_R   0.557829 0.938685 0.764845 0.174361
C46   C     C_R   0.000001 0.500001 0.586945 -0.380707
C47   C     C_R   0.061727 0.557386 0.764843 0.174389
C48   C     C_R   0.442174 0.938676 0.235154 0.174362
C49   C     C_R   0.938715 0.557867 0.235155 0.174365
C50   C     C_R   0.557818 0.061320 0.235157 0.174364
C51   C     C_R   0.061277 0.442132 0.235155 0.174364
C52   C     C_R   0.039247 0.515281 0.131354 0.056067
C53   C     C_R   0.484689 0.039236 0.131354 0.056071
C54   C     C_R   0.960748 0.484722 0.131353 0.056071
C55   C     C_R   0.515310 0.960762 0.131354 0.056062
C56   C     C_R   0.039145 0.484466 0.868644 0.056152
C57   C     C_R   0.499998 1.000000 0.413053 -0.380777
C58   C     C_R   0.484691 0.960762 0.868646 0.056065
C59   C     C_R   0.960852 0.515533 0.868644 0.056151
C60   C     C_R   0.515306 0.039238 0.868646 0.056069
C61   C     C_R   0.539239 0.015307 0.631354 0.056067
C62   C     C_R   0.984914 0.539327 0.631352 0.055957
C63   C     C_R   0.460761 0.984694 0.631354 0.056072
C64   C     C_R   0.015088 0.460677 0.631352 0.055967
C65   C     C_R   0.539236 0.984694 0.368646 0.056077
C66   C     C_R   0.984665 0.460770 0.368646 0.056066
C67   C     C_R   0.460756 0.015300 0.368646 0.056064
C68   C     C_R   0.999999 0.500000 0.413053 -0.380793
C69   C     C_R   0.015329 0.539229 0.368646 0.056070
C70   C     C_R   0.040857 0.510779 0.101662 0.362406
C71   C     C_R   0.489191 0.040849 0.101663 0.362403
C72   C     C_R   0.959140 0.489222 0.101661 0.362407
C73   C     C_R   0.510812 0.959150 0.101662 0.362402
C74   C     C_R   0.040790 0.488976 0.898333 0.362385
C75   C     C_R   0.489192 0.959149 0.898337 0.362400
C76   C     C_R   0.959209 0.511022 0.898333 0.362380
C77   C     C_R   0.510807 0.040850 0.898338 0.362405
C78   C     C_R   0.540851 0.010807 0.601662 0.362405
C79   C     C_R   0.999998 0.500001 0.146032 0.207890
C80   C     C_R   0.989400 0.540908 0.601658 0.362423
C81   C     C_R   0.459149 0.989194 0.601662 0.362405
C82   C     C_R   0.010601 0.459094 0.601658 0.362418
C83   C     C_R   0.540849 0.989196 0.398338 0.362409
C84   C     C_R   0.989166 0.459155 0.398337 0.362393
C85   C     C_R   0.459145 0.010803 0.398338 0.362405
C86   C     C_R   0.010832 0.540844 0.398337 0.362395
C87   C     C_3   0.919705 0.601663 0.279726 -0.759560
C88   C     C_3   0.398389 0.919638 0.279724 -0.759572
C89   C     C_3   0.080285 0.398334 0.279725 -0.759557
C90   C     C_R   0.499999 0.999999 0.146033 0.207907
C91   C     C_3   0.601602 0.080358 0.279728 -0.759567
C92   C     C_3   0.918909 0.398976 0.720271 -0.759546
C93   C     C_3   0.398383 0.080348 0.720274 -0.759571
C94   C     C_3   0.081086 0.601031 0.720275 -0.759548
C95   C     C_3   0.601615 0.919653 0.720274 -0.759574
C96   C     C_3   0.419650 0.101615 0.779726 -0.759566
C97   C     C_3   0.897802 0.420404 0.779722 -0.759639
C98   C     C_3   0.580348 0.898385 0.779725 -0.759568
C99   C     C_3   0.102192 0.579603 0.779726 -0.759633
C100  C     C_3   0.419660 0.898373 0.220272 -0.759567
C101  C     C_R   0.999999 0.500000 0.853964 0.207818
C102  C     C_3   0.898427 0.580410 0.220273 -0.759556
C103  C     C_3   0.580331 0.101624 0.220277 -0.759571
C104  C     C_3   0.101566 0.419590 0.220274 -0.759555
C105  C     C_3   0.078424 0.536729 0.147625 -0.668258
C106  C     C_3   0.463208 0.078395 0.147624 -0.668289
C107  C     C_3   0.921571 0.463273 0.147623 -0.668272
C108  C     C_3   0.536789 0.921603 0.147624 -0.668273
C109  C     C_3   0.078172 0.462745 0.852376 -0.668467
C110  C     C_3   0.463215 0.921601 0.852375 -0.668280
C111  C     C_3   0.921825 0.537255 0.852376 -0.668465
C112  C     C_R   0.500000 0.086729 0.000000 1.044389
C113  C     C_R   0.499999 1.000000 0.853967 0.207910
C114  C     C_3   0.536783 0.078398 0.852376 -0.668298
C115  C     C_3   0.578400 0.036782 0.647625 -0.668286
C116  C     C_3   0.963683 0.578618 0.647625 -0.668100
C117  C     C_3   0.421600 0.963219 0.647624 -0.668296
C118  C     C_3   0.036320 0.421386 0.647626 -0.668112
C119  C     C_3   0.578399 0.963221 0.352376 -0.668300
C120  C     C_3   0.963164 0.421621 0.352376 -0.668265
C121  C     C_3   0.421591 0.036770 0.352376 -0.668270
C122  C     C_3   0.036828 0.578377 0.352375 -0.668288
C123  C     C_R   0.500000 0.000001 0.646033 0.207901
C124  C     C_R   0.000001 0.500002 0.646029 0.208036
C125  C     C_R   0.499995 0.999996 0.353967 0.207900
C126  C     C_R   0.999996 0.499999 0.353967 0.207898
C127  C     C_1   0.137393 0.500000 0.000005 -0.126469
C128  C     C_1   0.500000 0.137393 1.000000 -0.126496
C129  C     C_1   0.862607 0.500000 0.000005 -0.126437
C130  C     C_1   0.500000 0.862607 1.000000 -0.126495
C131  C     C_1   0.637393 1.000000 0.500000 -0.126503
C132  C     C_R   0.913271 0.500000 0.000003 1.044507
C133  C     C_1   0.000000 0.637393 0.500005 -0.126529
C134  C     C_1   0.362607 0.000000 0.500000 -0.126479
C135  C     C_1   1.000000 0.362607 0.500005 -0.126504
C136  C     C_1   0.179582 0.499999 0.000005 0.024092
C137  C     C_1   0.500000 0.179582 1.000000 0.024249
C138  C     C_1   0.820418 0.500000 0.000006 0.024094
C139  C     C_1   0.500000 0.820418 1.000000 0.024244
C140  C     C_1   0.679582 1.000000 0.500000 0.024258
C141  C     C_1   0.000001 0.679582 0.500005 0.024394
C142  C     C_1   0.320418 1.000000 0.500000 0.024250
C143  C     C_R   0.500000 0.913271 1.000000 1.044395
C144  C     C_1   0.999999 0.320418 0.500006 0.024399
C145  C     C_1   0.229388 0.499999 0.000004 0.047864
C146  C     C_1   0.500000 0.229388 1.000000 0.047902
C147  C     C_1   0.770612 0.500000 0.000005 0.047862
C148  C     C_1   0.500000 0.770612 0.000000 0.047902
C149  C     C_1   0.729388 1.000000 0.500000 0.047903
C150  C     C_1   0.000001 0.729388 0.500004 0.047938
C151  C     C_1   0.270612 1.000000 0.500000 0.047900
C152  C     C_1   0.999999 0.270612 0.500005 0.047934
C153  C     C_1   0.271586 0.499999 0.000003 0.036291
C154  C     C_R   0.586729 1.000000 0.500000 1.044386
C155  C     C_1   0.500000 0.271586 1.000000 0.036298
C156  C     C_1   0.728414 0.500000 0.000004 0.036291
C157  C     C_1   0.500000 0.728414 0.000000 0.036298
C158  C     C_1   0.771586 1.000000 0.500000 0.036297
C159  C     C_1   0.000001 0.771586 0.500003 0.036303
C160  C     C_1   0.228414 1.000000 0.500000 0.036297
C161  C     C_1   0.999999 0.228414 0.500004 0.036303
C162  C     C_1   0.321404 0.499999 0.000001 0.025687
C163  C     C_1   0.500000 0.321404 1.000000 0.025695
C164  C     C_1   0.678596 0.500000 0.000002 0.025687
C165  C     C_R   0.000000 0.586729 0.500004 1.044286
C166  C     C_1   0.500000 0.678596 0.000000 0.025695
C167  C     C_1   0.821404 0.000000 0.499999 0.025696
C168  C     C_1   0.000000 0.821404 0.500001 0.025703
C169  C     C_1   0.178596 1.000000 0.500000 0.025696
C170  C     C_1   0.999999 0.178596 0.500002 0.025703
C171  C     C_1   0.363606 0.500000 0.000000 -0.180215
C172  C     C_1   0.500000 0.363605 1.000000 -0.180212
C173  C     C_1   0.636394 0.500000 0.000001 -0.180215
C174  C     C_1   0.500000 0.636394 0.000000 -0.180213
C175  C     C_1   0.863606 0.000000 0.500000 -0.180210
C176  C     C_R   0.413271 1.000000 0.500000 1.044399
C177  C     C_1   0.000000 0.863605 0.500000 -0.180208
C178  C     C_1   0.136394 1.000000 0.500000 -0.180210
C179  C     C_1   1.000000 0.136394 0.500001 -0.180208
C180  C     C_R   1.000000 0.500000 0.055960 1.145272
C181  C     C_R   0.500000 1.000000 0.055960 1.145307
C182  C     C_R   0.000000 0.500000 0.944039 1.145304
C183  C     C_R   0.500000 0.000000 0.944040 1.145313
C184  C     C_R   0.500000 0.000000 0.555960 1.145314
C185  C     C_R   0.000000 0.500000 0.555959 1.145315
C186  C     C_R   0.499999 1.000000 0.444040 1.145311
C187  C     C_R   1.000000 0.413271 0.500003 1.044306
C188  C     C_R   1.000000 0.500000 0.444040 1.145344
C189  C     C_R   0.500000 0.414274 1.000000 0.875831
C190  C     C_R   0.585726 0.500000 0.000000 0.875830
C191  C     C_R   0.500000 0.585726 0.000000 0.875830
C192  C     C_R   0.414274 0.500000 1.000000 0.875831
C193  C     C_R   0.000000 0.914274 0.500000 0.875828
C194  C     C_R   0.085726 1.000000 0.500000 0.875828
C195  C     C_R   1.000000 0.085726 0.500000 0.875828
C196  C     C_R   0.914274 0.000000 0.500000 0.875828
C197  C     C_R   0.031548 0.474125 0.309627 0.529648
C198  C     C_R   0.999999 0.500001 0.086947 -0.380751
C199  C     C_R   0.525845 0.031567 0.309628 0.529654
C200  C     C_R   0.968442 0.525871 0.309627 0.529647
C201  C     C_R   0.474146 0.968425 0.309627 0.529645
C202  C     C_R   0.031747 0.525635 0.690368 0.529654
C203  C     C_R   0.525853 0.968432 0.690372 0.529649
C204  C     C_R   0.968253 0.474369 0.690367 0.529658
C205  C     C_R   0.474147 0.031569 0.690372 0.529650
C206  C     C_R   0.531566 0.974146 0.809628 0.529648
C207  C     C_R   0.026071 0.531387 0.809624 0.529642
C208  C     C_R   0.468431 0.025853 0.809628 0.529649
H1    H     H_    0.912958 0.630627 0.265094 0.222626
H2    H     H_    0.630560 0.087124 0.265096 0.222629
H3    H     H_    0.466292 0.867747 0.058319 0.379952
H4    H     H_    0.132392 0.533232 0.941585 0.380017
H5    H     H_    0.533724 0.867754 0.941681 0.379953
H6    H     H_    0.867608 0.466760 0.941581 0.380022
H7    H     H_    0.466276 0.132247 0.941681 0.379954
H8    H     H_    0.632246 0.966277 0.558319 0.379951
H9    H     H_    0.034175 0.632112 0.558223 0.379885
H10   H     H_    0.367754 0.033728 0.558319 0.379953
H11   H     H_    0.965815 0.367888 0.558230 0.379887
H12   H     H_    0.632237 0.033739 0.441685 0.379948
H13   H     H_    0.590792 0.113217 0.289508 0.271071
H14   H     H_    0.033660 0.367733 0.441671 0.379946
H15   H     H_    0.367750 0.966272 0.441681 0.379949
H16   H     H_    0.966342 0.632270 0.441671 0.379951
H17   H     H_    0.616111 0.056985 0.295963 0.257690
H18   H     H_    0.911917 0.370075 0.734905 0.222626
H19   H     H_    0.886137 0.410029 0.710484 0.271075
H20   H     H_    0.942179 0.384286 0.704042 0.257725
H21   H     H_    0.369424 0.087109 0.734906 0.222629
H22   H     H_    0.409188 0.113210 0.710495 0.271068
H23   H     H_    0.383878 0.056974 0.704037 0.257689
H24   H     H_    0.088075 0.629933 0.734909 0.222626
H25   H     H_    0.886837 0.590875 0.289505 0.271067
H26   H     H_    0.113860 0.589979 0.710489 0.271074
H27   H     H_    0.057816 0.615719 0.704044 0.257724
H28   H     H_    0.630574 0.912891 0.734907 0.222630
H29   H     H_    0.590810 0.886791 0.710495 0.271068
H30   H     H_    0.616121 0.943026 0.704038 0.257690
H31   H     H_    0.412886 0.130574 0.765094 0.222628
H32   H     H_    0.386789 0.090808 0.789505 0.271072
H33   H     H_    0.443024 0.116122 0.795962 0.257690
H34   H     H_    0.868789 0.413873 0.765091 0.222641
H35   H     H_    0.908358 0.387457 0.789494 0.271072
H36   H     H_    0.943088 0.616157 0.295962 0.257689
H37   H     H_    0.883480 0.443880 0.795965 0.257662
H38   H     H_    0.587111 0.869426 0.765093 0.222628
H39   H     H_    0.613208 0.909191 0.789505 0.271071
H40   H     H_    0.556974 0.883877 0.795961 0.257690
H41   H     H_    0.131205 0.586138 0.765096 0.222640
H42   H     H_    0.091634 0.612549 0.789499 0.271073
H43   H     H_    0.116516 0.556127 0.795968 0.257664
H44   H     H_    0.412900 0.869413 0.234904 0.222628
H45   H     H_    0.386797 0.909175 0.210492 0.271069
H46   H     H_    0.443036 0.883869 0.204036 0.257690
H47   H     H_    0.369430 0.912873 0.265091 0.222629
H48   H     H_    0.869471 0.587187 0.234905 0.222626
H49   H     H_    0.909252 0.613266 0.210495 0.271068
H50   H     H_    0.883908 0.557045 0.204036 0.257686
H51   H     H_    0.587088 0.130584 0.234909 0.222630
H52   H     H_    0.613194 0.090824 0.210498 0.271070
H53   H     H_    0.556955 0.116128 0.204040 0.257689
H54   H     H_    0.130522 0.412811 0.234906 0.222625
H55   H     H_    0.090741 0.386733 0.210495 0.271067
H56   H     H_    0.116085 0.442955 0.204037 0.257686
H57   H     H_    0.067715 0.549397 0.168730 0.201797
H58   H     H_    0.409197 0.886777 0.289502 0.271069
H59   H     H_    0.106165 0.511220 0.150782 0.267998
H60   H     H_    0.091493 0.567327 0.136235 0.264327
H61   H     H_    0.450540 0.067672 0.168726 0.201807
H62   H     H_    0.488697 0.106151 0.150787 0.267997
H63   H     H_    0.432606 0.091445 0.136231 0.264331
H64   H     H_    0.932280 0.450605 0.168727 0.201798
H65   H     H_    0.893831 0.488782 0.150780 0.267998
H66   H     H_    0.908502 0.432676 0.136233 0.264327
H67   H     H_    0.549449 0.932323 0.168729 0.201801
H68   H     H_    0.511302 0.893843 0.150782 0.267997
H69   H     H_    0.383880 0.943010 0.295960 0.257689
H70   H     H_    0.567397 0.908558 0.136235 0.264326
H71   H     H_    0.067341 0.450062 0.831298 0.201863
H72   H     H_    0.106046 0.488087 0.849164 0.268012
H73   H     H_    0.091096 0.432117 0.863796 0.264336
H74   H     H_    0.450550 0.932321 0.831272 0.201806
H75   H     H_    0.488706 0.893845 0.849215 0.267995
H76   H     H_    0.432611 0.908550 0.863767 0.264329
H77   H     H_    0.932655 0.549938 0.831299 0.201862
H78   H     H_    0.893950 0.511912 0.849164 0.268011
H79   H     H_    0.908901 0.567882 0.863798 0.264337
H80   H     H_    0.087032 0.369371 0.265092 0.222625
H81   H     H_    0.549449 0.067677 0.831273 0.201806
H82   H     H_    0.511293 0.106153 0.849215 0.267993
H83   H     H_    0.567385 0.091449 0.863768 0.264333
H84   H     H_    0.567681 0.049445 0.668728 0.201805
H85   H     H_    0.606157 0.011292 0.650784 0.267997
H86   H     H_    0.591451 0.067386 0.636235 0.264329
H87   H     H_    0.951053 0.568012 0.668757 0.201741
H88   H     H_    0.989313 0.606263 0.650725 0.267982
H89   H     H_    0.933095 0.591783 0.636269 0.264321
H90   H     H_    0.432319 0.950554 0.668726 0.201805
H91   H     H_    0.113154 0.409121 0.289505 0.271067
H92   H     H_    0.393845 0.988709 0.650784 0.267995
H93   H     H_    0.408547 0.932616 0.636232 0.264332
H94   H     H_    0.048955 0.431995 0.668756 0.201746
H95   H     H_    0.010689 0.393744 0.650729 0.267978
H96   H     H_    0.066904 0.408218 0.636268 0.264328
H97   H     H_    0.567678 0.950550 0.331275 0.201810
H98   H     H_    0.606151 0.988715 0.349212 0.267994
H99   H     H_    0.591457 0.932622 0.363768 0.264331
H100  H     H_    0.950507 0.432348 0.331272 0.201804
H101  H     H_    0.988637 0.393847 0.349217 0.267997
H102  H     H_    0.056903 0.383840 0.295961 0.257688
H103  H     H_    0.932550 0.408591 0.363767 0.264321
H104  H     H_    0.432305 0.049425 0.331270 0.201797
H105  H     H_    0.393833 0.011279 0.349221 0.267999
H106  H     H_    0.408543 0.067378 0.363763 0.264322
H107  H     H_    0.049482 0.567650 0.331271 0.201803
H108  H     H_    0.011355 0.606150 0.349217 0.267995
H109  H     H_    0.067442 0.591408 0.363765 0.264325
H110  H     H_    0.132223 0.466206 0.058308 0.379951
H111  H     H_    0.533718 0.132245 0.058319 0.379952
H112  H     H_    0.867774 0.533799 0.058308 0.379952
N1    N     N_R   0.999995 0.499998 0.323589 -0.331350
N2    N     N_R   0.499995 0.999996 0.323590 -0.331348
N3    N     N_R   0.000000 0.500002 0.676407 -0.331374
N4    N     N_R   0.500000 0.000001 0.676410 -0.331347
N5    N     N_R   0.499998 0.999999 0.823590 -0.331347
N6    N     N_R   0.999998 0.500001 0.823586 -0.331319
N7    N     N_R   0.499997 0.999999 0.176410 -0.331347
N8    N     N_R   0.999997 0.500001 0.176410 -0.331350
O1    O     O_R   0.063110 0.535610 0.000010 -0.588354
O2    O     O_R   0.964390 0.563110 0.500010 -0.588323
O3    O     O_3   0.969008 0.401199 0.561751 -0.583640
O4    O     O_2   0.591531 0.941972 0.435932 -0.289558
O5    O     O_2   0.634846 0.981077 0.398783 -0.297909
O6    O     O_3   0.598906 0.030589 0.438230 -0.584068
O7    O     O_2   0.941909 0.408512 0.435937 -0.289476
O8    O     O_2   0.980971 0.365162 0.398785 -0.297936
O9    O     O_3   0.030523 0.401069 0.438226 -0.584129
O10   O     O_2   0.408481 0.058031 0.435940 -0.289549
O11   O     O_2   0.365149 0.018950 0.398789 -0.297924
O12   O     O_3   0.401082 0.969416 0.438227 -0.584073
O13   O     O_R   0.436890 0.964390 0.500010 -0.588242
O14   O     O_2   0.058090 0.591487 0.435937 -0.289468
O15   O     O_2   0.019031 0.634836 0.398785 -0.297937
O16   O     O_3   0.969478 0.598934 0.438225 -0.584131
O17   O     O_R   0.035610 0.436890 0.500010 -0.588331
O18   O     O_R   0.563110 0.964390 0.499990 -0.588244
O19   O     O_R   0.964390 0.436890 0.499990 -0.588131
O20   O     O_R   0.436890 0.035610 0.499990 -0.588237
O21   O     O_R   0.035610 0.563110 0.499990 -0.588136
O22   O     O_R   0.499970 0.436830 0.023710 -0.587886
O23   O     O_R   0.563170 0.499970 0.023710 -0.587885
O24   O     O_R   0.500030 0.563170 0.023710 -0.587888
O25   O     O_R   0.464390 0.063110 0.000010 -0.588239
O26   O     O_R   0.436830 0.500030 0.023710 -0.587884
O27   O     O_R   0.499970 0.563170 0.976290 -0.587891
O28   O     O_R   0.563170 0.500030 0.976290 -0.587894
O29   O     O_R   0.500030 0.436830 0.976290 -0.587892
O30   O     O_R   0.436830 0.499970 0.976290 -0.587895
O31   O     O_R   0.999970 0.936830 0.523710 -0.587882
O32   O     O_R   0.063170 0.999970 0.523710 -0.587886
O33   O     O_R   0.000030 0.063170 0.523710 -0.587884
O34   O     O_R   0.936830 0.000030 0.523710 -0.587886
O35   O     O_R   0.999970 0.063170 0.476290 -0.587892
O36   O     O_R   0.936890 0.464390 0.000010 -0.588352
O37   O     O_R   0.063170 0.000030 0.476290 -0.587890
O38   O     O_R   0.000030 0.936830 0.476290 -0.587893
O39   O     O_R   0.936830 0.999970 0.476290 -0.587890
O40   O     O_R   0.999950 0.535620 0.041940 -0.585902
O41   O     O_R   0.464380 0.999950 0.041940 -0.585905
O42   O     O_R   0.000050 0.464380 0.041940 -0.585901
O43   O     O_R   0.535620 0.000050 0.041940 -0.585884
O44   O     O_R   0.999950 0.464380 0.958060 -0.585938
O45   O     O_R   0.464380 0.000050 0.958060 -0.585895
O46   O     O_R   0.000050 0.535620 0.958060 -0.585938
O47   O     O_R   0.535610 0.936890 0.000010 -0.588232
O48   O     O_R   0.535620 0.999950 0.958060 -0.585892
O49   O     O_R   0.499950 0.035620 0.541940 -0.585895
O50   O     O_R   0.964380 0.499950 0.541940 -0.585843
O51   O     O_R   0.500050 0.964380 0.541940 -0.585897
O52   O     O_R   0.035620 0.500050 0.541940 -0.585853
O53   O     O_R   0.499950 0.964380 0.458060 -0.585912
O54   O     O_R   0.964380 0.500050 0.458060 -0.585890
O55   O     O_R   0.500050 0.035620 0.458060 -0.585878
O56   O     O_R   0.035620 0.499950 0.458060 -0.585883
O57   O     O_2   0.064850 0.453360 0.324704 -0.542548
O58   O     O_R   0.063110 0.464390 0.999990 -0.588139
O59   O     O_2   0.546586 0.064884 0.324706 -0.542546
O60   O     O_2   0.935140 0.546636 0.324704 -0.542549
O61   O     O_2   0.453405 0.935108 0.324703 -0.542547
O62   O     O_2   0.065199 0.546151 0.675291 -0.542542
O63   O     O_2   0.546597 0.935118 0.675296 -0.542547
O64   O     O_2   0.934802 0.453852 0.675288 -0.542547
O65   O     O_2   0.453403 0.064884 0.675296 -0.542547
O66   O     O_2   0.564880 0.953401 0.824704 -0.542550
O67   O     O_2   0.047043 0.564560 0.824699 -0.542560
O68   O     O_2   0.435117 0.046598 0.824704 -0.542549
O69   O     O_R   0.464390 0.936890 0.999990 -0.588242
O70   O     O_2   0.952954 0.435442 0.824697 -0.542561
O71   O     O_2   0.564873 0.046605 0.175297 -0.542548
O72   O     O_2   0.046555 0.435088 0.175295 -0.542539
O73   O     O_2   0.435121 0.953392 0.175294 -0.542548
O74   O     O_2   0.953440 0.564914 0.175296 -0.542538
O75   O     O_2   0.091553 0.557982 0.064065 -0.289617
O76   O     O_2   0.134859 0.518863 0.101214 -0.297900
O77   O     O_3   0.098894 0.469361 0.061770 -0.584027
O78   O     O_2   0.441957 0.091520 0.064067 -0.289536
O79   O     O_2   0.481051 0.134844 0.101217 -0.297912
O80   O     O_R   0.936890 0.535610 0.999990 -0.588142
O81   O     O_3   0.530573 0.098913 0.061772 -0.584088
O82   O     O_2   0.908445 0.442022 0.064061 -0.289621
O83   O     O_2   0.865139 0.481138 0.101210 -0.297901
O84   O     O_3   0.901103 0.530643 0.061769 -0.584026
O85   O     O_2   0.558047 0.908489 0.064061 -0.289531
O86   O     O_2   0.518970 0.865154 0.101212 -0.297917
O87   O     O_3   0.469432 0.901080 0.061773 -0.584090
O88   O     O_2   0.091305 0.441549 0.935919 -0.289014
O89   O     O_2   0.134744 0.480471 0.898752 -0.297951
O90   O     O_3   0.099035 0.530137 0.938206 -0.584539
O91   O     O_R   0.535610 0.063110 0.999990 -0.588238
O92   O     O_2   0.441960 0.908481 0.935935 -0.289542
O93   O     O_2   0.481051 0.865152 0.898785 -0.297917
O94   O     O_3   0.530577 0.901087 0.938228 -0.584085
O95   O     O_2   0.908694 0.558451 0.935919 -0.289003
O96   O     O_2   0.865254 0.519526 0.898752 -0.297961
O97   O     O_3   0.900966 0.469862 0.938207 -0.584553
O98   O     O_2   0.558037 0.091519 0.935937 -0.289544
O99   O     O_2   0.518949 0.134846 0.898786 -0.297916
O100  O     O_3   0.469421 0.098915 0.938228 -0.584083
O101  O     O_2   0.591521 0.058037 0.564065 -0.289541
O102  O     O_R   0.563110 0.035610 0.500010 -0.588234
O103  O     O_2   0.634846 0.018948 0.601215 -0.297916
O104  O     O_3   0.598914 0.969422 0.561772 -0.584081
O105  O     O_2   0.942357 0.591709 0.564041 -0.290055
O106  O     O_2   0.981582 0.634942 0.601177 -0.297885
O107  O     O_3   0.030997 0.598805 0.561754 -0.583630
O108  O     O_2   0.408477 0.941964 0.564065 -0.289537
O109  O     O_2   0.365154 0.981058 0.601214 -0.297918
O110  O     O_3   0.401087 0.030580 0.561771 -0.584084
O111  O     O_2   0.057646 0.408286 0.564047 -0.290029
O112  O     O_2   0.018408 0.365062 0.601180 -0.297901
S1    S     S_3+6 0.093418 0.515979 0.082419 0.016465
S2    S     S_3+6 0.984359 0.593474 0.582399 0.016345
S3    S     S_3+6 0.406591 0.983965 0.582418 0.016478
S4    S     S_3+6 0.015641 0.406528 0.582401 0.016345
S5    S     S_3+6 0.593409 0.983975 0.417580 0.016479
S6    S     S_3+6 0.983907 0.406600 0.417581 0.016492
S7    S     S_3+6 0.406589 0.016034 0.417583 0.016473
S8    S     S_3+6 0.016093 0.593400 0.417581 0.016492
S9    S     S_3+6 0.483959 0.093407 0.082420 0.016481
S10   S     S_3+6 0.906580 0.484024 0.082416 0.016462
S11   S     S_3+6 0.516049 0.906593 0.082418 0.016481
S12   S     S_3+6 0.093337 0.483540 0.917563 0.016617
S13   S     S_3+6 0.483961 0.906591 0.917581 0.016479
S14   S     S_3+6 0.906662 0.516458 0.917563 0.016615
S15   S     S_3+6 0.516038 0.093408 0.917582 0.016478
S16   S     S_3+6 0.593409 0.016038 0.582419 0.016479
Zn1   Zn    Zn3+2 0.000000 0.547570 0.000000 1.130862
Zn2   Zn    Zn3+2 0.500000 0.500000 0.968370 1.008284
Zn3   Zn    Zn3+2 0.000000 0.000000 0.531630 1.008320
Zn4   Zn    Zn3+2 0.000000 0.000000 0.468370 1.008296
Zn5   Zn    Zn3+2 0.452430 0.000000 0.000000 1.130831
Zn6   Zn    Zn3+2 0.000000 0.452430 0.000000 1.130859
Zn7   Zn    Zn3+2 0.547570 0.000000 0.000000 1.130841
Zn8   Zn    Zn3+2 0.500000 0.047570 0.500000 1.130835
Zn9   Zn    Zn3+2 0.952430 0.500000 0.500000 1.130812
Zn10  Zn    Zn3+2 0.500000 0.952430 0.500000 1.130818
Zn11  Zn    Zn3+2 0.047570 0.500000 0.500000 1.130811
Zn12  Zn    Zn3+2 0.500000 0.500000 0.031630 1.008309

loop_
_geom_bond_atom_site_label_1
_geom_bond_atom_site_label_2
_ccdc_geom_bond_type
O77   S1    S    
C119  H98   S    
O43   Zn7   S    
C8    C26   A    
C120  H101  S    
C39   C92   S    
C40   C93   S    
C184  O49   A    
C179  C195  S    
C105  H60   S    
C195  O35   A    
C134  C176  S    
C54   C107  S    
H110  O77   S    
C14   C40   A    
C56   C101  A    
O45   Zn5   S    
C67   C125  A    
C97   H37   S    
C64   C118  S    
C118  H94   S    
C186  O53   A    
C176  O13   A    
O99   S15   D    
C131  C140  T    
O28   Zn2   S    
C53   C106  S    
C40   C43   A    
C162  C171  T    
C181  O43   A    
O7    S6    D    
C61   C115  S    
C58   C113  A    
C59   C111  S    
C57   C83   A    
C88   H69   S    
C174  C191  S    
C21   C48   A    
C1    O1    A    
C93   H23   S    
C50   C103  S    
C76   S14   S    
C115  H86   S    
C17   C30   A    
C104  H54   S    
C91   H2    S    
C100  H46   S    
C158  C167  S    
C48   C100  S    
C67   C85   A    
C150  C159  T    
C180  O40   A    
C42   C95   S    
C137  C146  S    
H4    O90   S    
C127  C136  T    
C99   H43   S    
C49   C102  S    
O18   Zn10  S    
C4    C23   A    
C94   H26   S    
C199  N2    A    
C191  O27   A    
C51   C104  S    
C64   C124  A    
C6    C21   A    
O112  S4    D    
C42   C45   A    
C142  C151  S    
O55   Zn8   S    
C17   C43   A    
O93   S13   D    
C109  H73   S    
C207  O67   S    
C41   C94   S    
C11   C27   A    
C43   C96   S    
C103  H53   S    
O50   Zn9   S    
C164  C173  T    
C163  C172  T    
C177  C193  S    
C22   C49   A    
C5    C25   A    
C69   C126  A    
H9    O107  S    
C96   H31   S    
C71   S9    S    
C2    C71   A    
C53   C71   A    
C184  O51   A    
C109  H72   S    
C89   H91   S    
C54   C79   A    
C195  O33   A    
C107  H64   S    
C58   C110  S    
O48   Zn7   S    
O8    S6    D    
C17   C208  A    
H16   O16   S    
O39   Zn4   S    
C189  O29   A    
C84   S6    S    
C7    C22   A    
H112  O84   S    
C35   C78   A    
C87   H25   S    
C204  O64   S    
O94   S13   S    
C165  O21   A    
O35   Zn4   S    
C187  O19   A    
C3    O70   S    
C121  H104  S    
C132  O80   A    
C208  N5    A    
O91   Zn7   S    
C57   C85   A    
C171  C192  S    
C34   C87   S    
O30   Zn2   S    
C107  H65   S    
O103  S16   D    
C20   C47   A    
C180  C198  S    
O82   S10   D    
C102  H50   S    
C24   C77   A    
C115  H84   S    
C6    O73   S    
C5    O72   S    
C18   C31   A    
C104  H56   S    
C143  O69   A    
C19   C30   A    
C65   C125  A    
O97   S14   S    
C116  H87   S    
C180  O42   A    
C154  O18   A    
C103  H52   S    
C60   C114  S    
C99   H41   S    
C108  H67   S    
O13   Zn10  S    
C62   C124  A    
C94   H24   S    
C36   C88   S    
C77   S15   S    
C119  H99   S    
C125  N2    S    
O12   S7    S    
C206  O66   S    
C62   C80   A    
C200  O60   S    
C55   C90   A    
O29   Zn2   S    
C73   S11   S    
C193  O38   A    
C110  H76   S    
H5    O94   S    
C105  H57   S    
C47   C99   S    
C95   H29   S    
C112  O91   A    
C202  N3    A    
O4    S5    D    
C97   H34   S    
C46   C82   A    
C83   S5    S    
C92   H19   S    
C9    C36   A    
C165  O2    A    
C52   C79   A    
C149  C158  T    
C61   C78   A    
C152  C161  T    
O88   S12   D    
C106  H63   S    
C70   C198  A    
C207  N6    A    
C192  O30   A    
C132  O36   A    
C67   C121  S    
C135  C187  S    
C141  C150  S    
C88   H47   S    
C11   C199  A    
C111  H77   S    
C139  C148  S    
C114  H82   S    
H111  O81   S    
O36   Zn6   S    
C187  O17   A    
C155  C163  S    
C121  H106  S    
O1    Zn1   S    
O105  S2    D    
C66   C126  A    
O89   S12   D    
C2    C181  S    
O54   Zn9   S    
C98   H40   S    
C29   C30   A    
O20   Zn8   S    
C204  N3    A    
C203  O63   S    
C26   C33   A    
C4    O71   S    
C41   C47   A    
C8    C34   A    
C2    C73   A    
C124  N3    S    
C205  N4    A    
C116  H89   S    
C183  O48   A    
O27   Zn2   S    
O80   Zn1   S    
C8    C200  A    
O46   Zn1   S    
O47   Zn7   S    
C95   H28   S    
H7    O100  S    
C14   C29   A    
C10   C197  A    
C56   C109  S    
C167  C175  T    
C101  N6    S    
C34   C49   A    
C119  H97   S    
C70   S1    S    
C131  C154  S    
C52   C105  S    
O53   Zn10  S    
C19   C45   A    
C39   C44   A    
C110  H74   S    
C206  N5    A    
C105  H59   S    
H6    O97   S    
O86   S11   D    
C55   C108  S    
C61   C123  A    
C144  C152  S    
C46   C80   A    
C87   H36   S    
C78   S16   S    
C69   C122  S    
C190  O28   A    
O95   S14   D    
C118  H95   S    
C36   C48   A    
C102  H48   S    
O110  S3    S    
C12   C204  A    
C74   S12   S    
C96   H33   S    
C193  O31   A    
O106  S2    D    
C68   C188  S    
C106  H61   S    
C20   C207  A    
C140  C149  S    
O44   Zn6   S    
H10   O110  S    
C25   C33   A    
O15   S8    D    
O101  S16   D    
C93   H22   S    
O10   S7    D    
C115  H85   S    
C87   H1    S    
C89   H102  S    
O109  S3    D    
O107  S2    S    
O87   S11   S    
C178  C194  S    
C122  H107  S    
C12   C28   A    
O23   Zn12  S    
C143  O47   A    
C98   H38   S    
C45   C98   S    
C63   C117  S    
C94   H27   S    
C168  C177  T    
C173  C190  S    
C126  N1    S    
O100  S15   S    
O38   Zn4   S    
C176  O20   A    
O34   Zn3   S    
C146  C155  T    
O21   Zn11  S    
C19   C206  A    
C160  C169  S    
C85   S7    S    
C86   S8    S    
C129  C132  S    
C203  N4    A    
C92   H18   S    
C24   C183  S    
O102  Zn8   S    
C96   H32   S    
C130  C139  T    
C197  N1    A    
O98   S15   D    
C109  H71   S    
C201  O61   S    
C123  N4    S    
C166  C174  T    
O2    Zn9   S    
C68   C84   A    
C56   C74   A    
C15   C41   A    
H14   O9    S    
C200  N1    A    
C23   C50   A    
C185  O50   A    
C117  H90   S    
C81   S3    S    
O75   S1    D    
C59   C101  A    
C11   C38   A    
O108  S3    D    
C133  C165  S    
C134  C142  T    
H8    O104  S    
C55   C73   A    
C192  O26   A    
C65   C119  S    
C147  C156  T    
C57   C186  S    
C9    C201  A    
H15   O12   S    
O52   Zn11  S    
C72   S10   S    
C199  O59   S    
C100  H45   S    
C194  O32   A    
C175  C196  S    
H3    O87   S    
O92   S13   D    
C9    C27   A    
C197  O57   S    
C116  H88   S    
C27   C32   A    
O85   S11   D    
C103  H51   S    
C28   C31   A    
C108  H68   S    
C63   C123  A    
C24   C75   A    
C172  C189  S    
C170  C179  T    
O14   S8    D    
C37   C89   S    
C153  C162  S    
C7    O74   S    
C23   C32   A    
C12   C39   A    
O76   S1    D    
O56   Zn11  S    
O111  S4    D    
C15   C28   A    
C38   C91   S    
C182  O46   A    
C46   C185  S    
C6    N7    A    
H11   O3    S    
C112  C128  S    
O33   Zn3   S    
C72   C198  A    
O42   Zn6   S    
C3    N6    A    
O81   S9    S    
C13   C74   A    
C92   H20   S    
C89   H80   S    
C14   C205  A    
C117  H93   S    
C53   C90   A    
C111  H79   S    
O41   Zn5   S    
O22   Zn12  S    
O24   Zn12  S    
C68   C86   A    
O3    S4    S    
O19   Zn9   S    
C188  O54   A    
C35   C81   A    
O17   Zn11  S    
C185  O52   A    
C117  H92   S    
C114  H83   S    
C35   C184  S    
O96   S14   D    
C63   C81   A    
C10   C37   A    
C1    O58   A    
O11   S7    D    
C18   C44   A    
C194  O37   A    
C37   C51   A    
C65   C83   A    
C121  H105  S    
O51   Zn10  S    
C159  C168  S    
C3    C18   A    
C107  H66   S    
C113  N5    S    
C90   N7    S    
C208  O68   S    
C111  H78   S    
C129  C138  T    
C104  H55   S    
C91   H13   S    
C16   C203  A    
C136  C145  S    
C148  C157  T    
C145  C153  T    
C10   C26   A    
C66   C120  S    
C91   H17   S    
C60   C113  A    
O6    S5    S    
O40   Zn1   S    
O104  S16   S    
C99   H42   S    
C108  H70   S    
C58   C75   A    
O31   Zn3   S    
C21   C32   A    
C60   C77   A    
O32   Zn3   S    
C52   C70   A    
C80   S2    S    
C110  H75   S    
C16   C29   A    
C133  C141  T    
O26   Zn12  S    
C4    N7    A    
C95   H30   S    
C182  O44   A    
O84   S10   S    
C128  C137  T    
C25   C51   A    
O78   S9    D    
C62   C116  S    
O58   Zn6   S    
C97   H35   S    
C44   C97   S    
C13   C76   A    
C138  C147  S    
C120  H100  S    
C118  H96   S    
C186  O55   A    
C190  O23   A    
C130  C143  S    
C64   C82   A    
C196  O34   A    
C161  C170  S    
C202  O62   S    
C135  C144  T    
C181  O41   A    
C106  H62   S    
C5    N8    A    
C16   C42   A    
C169  C178  T    
C188  O56   A    
C15   C202  A    
C93   H21   S    
O16   S8    S    
C22   C33   A    
C189  O22   A    
C114  H81   S    
C191  O24   A    
O37   Zn4   S    
C1    C127  S    
C100  H44   S    
C196  O39   A    
C157  C166  S    
C38   C50   A    
C122  H108  S    
O49   Zn8   S    
C102  H49   S    
O5    S5    D    
C151  C160  T    
O79   S9    D    
C98   H39   S    
O83   S10   D    
C201  N2    A    
C88   H58   S    
C59   C76   A    
C120  H103  S    
C205  O65   S    
C75   S13   S    
O69   Zn5   S    
O9    S6    S    
H12   O6    S    
C154  O102  A    
C66   C84   A    
C54   C72   A    
C156  C164  S    
C122  H109  S    
C13   C182  S    
C183  O45   A    
O90   S12   S    
C7    N8    A    
C79   N8    S    
O25   Zn5   S    
C69   C86   A    
C82   S4    S    
C112  O25   A    
C20   C31   A    
