data_mof_unit_22655.cif
_audit_creation_date              2012-12-11T14:34:17-0500
_audit_creation_method            fapswitch 2.2
_symmetry_space_group_name_H-M    P1
_symmetry_Int_Tables_number       1
_space_group_crystal_system       triclinic
_cell_length_a                    13.949761
_cell_length_b                    13.976285
_cell_length_c                    27.279665
_cell_angle_alpha                 90.038369
_cell_angle_beta                  90.364293
_cell_angle_gamma                 119.783445
_cell_volume                      4615.92499633

loop_
_atom_site_label
_atom_site_type_symbol
_atom_type_description
_atom_site_fract_x
_atom_site_fract_y
_atom_site_fract_z
_atom_type_partial_charge
C1    C     C_R   0.234936 0.787079 0.569094 0.533163
C2    C     C_1   0.695988 0.857037 0.862250 -0.030194
C3    C     C_1   0.140142 0.842845 0.860974 -0.017411
C4    C     C_1   0.159969 0.301609 0.861890 -0.016861
C5    C     C_1   0.621326 0.811021 0.660430 -0.072676
C6    C     C_1   0.187471 0.812135 0.659558 -0.072552
C7    C     C_1   0.192996 0.379928 0.660366 -0.072375
C8    C     C_1   0.596835 0.794311 0.617689 -0.010999
C9    C     C_1   0.204978 0.803532 0.617096 -0.011172
C10   C     C_1   0.199737 0.404162 0.617681 -0.010179
C11   C     C_R   0.064978 0.149722 0.095607 0.571063
C12   C     C_R   0.213634 0.448229 0.569273 0.541557
C13   C     C_R   0.779201 0.885268 0.088853 0.535231
C14   C     C_R   0.116656 0.893891 0.088259 0.539818
C15   C     C_R   0.107382 0.221022 0.951150 0.581529
C16   C     C_R   0.777920 0.886144 0.951479 0.566242
C17   C     C_R   0.113196 0.892625 0.950968 0.566286
C18   C     C_R   0.571292 0.862428 0.354783 -0.176670
C19   C     C_R   0.101167 0.726186 0.362084 -0.189313
C20   C     C_R   0.265977 0.365755 0.362184 -0.193809
C21   C     C_R   0.606187 0.885919 0.306773 -0.010423
C22   C     C_R   0.086301 0.736711 0.312239 -0.008635
C23   C     C_R   0.552100 0.765091 0.569236 0.535952
C24   C     C_R   0.245073 0.314561 0.316266 -0.006680
C25   C     C_R   0.658796 0.910272 0.207243 0.009611
C26   C     C_R   0.071137 0.753400 0.210205 0.007522
C27   C     C_R   0.206639 0.235006 0.219322 0.019566
C28   C     C_R   0.231709 0.788765 0.432275 0.551055
C29   C     C_R   0.211080 0.444169 0.431320 0.560192
C30   C     C_R   0.553773 0.766838 0.431624 0.561635
C31   C     C_R   0.584949 0.941952 0.225250 -0.135250
C32   C     C_R   0.996972 0.656104 0.234366 -0.140235
C33   C     C_R   0.313005 0.282323 0.239815 -0.129451
C34   C     C_3   0.668288 0.737320 0.790496 -0.201167
C35   C     C_R   0.558780 0.929898 0.274867 -0.124925
C36   C     C_R   0.005090 0.647502 0.285082 -0.131824
C37   C     C_R   0.332002 0.321306 0.288068 -0.121598
C38   C     C_R   0.680550 0.915332 0.157129 -0.156766
C39   C     C_R   0.061099 0.765797 0.159780 -0.150469
C40   C     C_R   0.188748 0.206858 0.169553 -0.127887
C41   C     C_R   0.751059 0.878968 0.140037 0.002066
C42   C     C_R   0.136996 0.864026 0.136827 -0.003695
C43   C     C_R   0.083517 0.168564 0.148550 -0.008839
C44   C     C_R   0.695730 0.789838 0.370444 0.257251
C45   C     C_3   0.228864 0.783223 0.797369 -0.212180
C46   C     C_R   0.248174 0.918101 0.366107 0.253951
C47   C     C_R   0.071294 0.312694 0.369477 0.260919
C48   C     C_R   0.732039 0.813469 0.321833 0.024547
C49   C     C_R   0.239746 0.927225 0.315529 0.019290
C50   C     C_R   0.048543 0.254099 0.324867 0.015101
C51   C     C_R   0.684311 0.858418 0.289704 0.017725
C52   C     C_R   0.159560 0.835649 0.288466 0.015880
C53   C     C_R   0.136711 0.261279 0.296979 0.017000
C54   C     C_R   0.811477 0.788863 0.304058 -0.114734
C55   C     C_R   0.314374 0.024143 0.291202 -0.121018
C56   C     C_3   0.258292 0.448011 0.797993 -0.213197
C57   C     C_R   0.940150 0.194145 0.306058 -0.127916
C58   C     C_R   0.838645 0.802900 0.254702 -0.148039
C59   C     C_R   0.312084 0.029004 0.240495 -0.154063
C60   C     C_R   0.921328 0.155493 0.257907 -0.145912
C61   C     C_R   0.786025 0.840088 0.222462 0.007145
C62   C     C_R   0.232168 0.939071 0.213683 0.011187
C63   C     C_R   0.009951 0.172673 0.228325 0.017178
C64   C     C_3   0.543500 0.826505 0.739712 -0.225433
C65   C     C_3   0.051373 0.750137 0.727499 -0.223557
C66   C     C_3   0.216578 0.270799 0.726677 -0.225846
C67   C     C_3   0.651358 0.726438 0.734197 -0.211370
C68   C     C_R   0.710568 0.870726 0.239891 0.061917
C69   C     C_R   0.154207 0.842558 0.237450 0.064543
C70   C     C_R   0.117424 0.220904 0.248512 0.067774
C71   C     C_R   0.805734 0.844441 0.172749 -0.124511
C72   C     C_R   0.226373 0.946532 0.163468 -0.127338
C73   C     C_R   0.993810 0.147184 0.178408 -0.136286
C74   C     C_R   0.610854 0.809033 0.385640 0.008019
C75   C     C_R   0.188451 0.813262 0.387871 -0.006516
C76   C     C_R   0.181410 0.370173 0.388045 -0.003807
C77   C     C_3   0.748657 0.932599 0.725562 -0.194868
C78   C     C_3   0.241720 0.776632 0.741166 -0.215823
C79   C     C_3   0.216768 0.940952 0.727739 -0.193228
C80   C     C_3   0.066904 0.320818 0.730888 -0.190932
C81   C     C_3   0.767845 0.945650 0.781867 -0.018371
C82   C     C_3   0.204621 0.949328 0.783814 -0.012531
C83   C     C_3   0.057891 0.300750 0.786960 -0.008292
C84   C     C_1   0.727005 0.869399 0.904228 0.015064
C85   C     C_1   0.128176 0.860127 0.903128 0.025056
C86   C     C_1   0.140698 0.270452 0.903737 0.025826
C87   C     C_3   0.641081 0.824226 0.713577 0.051248
C88   C     C_3   0.174072 0.819737 0.712576 0.049222
C89   C     C_3   0.265828 0.467886 0.741688 -0.215078
C90   C     C_3   0.186017 0.359998 0.713500 0.047058
C91   C     C_3   0.562973 0.839127 0.796084 -0.242510
C92   C     C_3   0.039651 0.756815 0.783745 -0.236410
C93   C     C_3   0.210222 0.252704 0.782893 -0.231577
C94   C     C_3   0.673981 0.845012 0.809181 0.077682
C95   C     C_3   0.153855 0.833229 0.808063 0.074330
C96   C     C_3   0.171697 0.326499 0.809061 0.069878
C97   C     C_3   0.821843 0.821928 0.430140 -0.121981
C98   C     C_3   0.270164 0.058585 0.414832 -0.116399
C99   C     C_3   0.966351 0.396218 0.372715 -0.091835
Cr1   Cr    Cr6+3 0.164410 0.584450 0.499910 1.028491
Cr2   Cr    Cr6+3 0.415550 0.579960 0.499910 1.035404
Cr3   Cr    Cr6+3 0.420040 0.835590 0.499910 1.043024
Cr4   Cr    Cr6+3 0.155170 0.075460 0.019960 1.038021
Cr5   Cr    Cr6+3 0.924540 0.079710 0.019960 1.042532
Cr6   Cr    Cr6+3 0.920290 0.844830 0.019960 1.028616
H1    H     H_    0.563700 0.915112 0.808885 0.138483
H2    H     H_    0.744925 0.735715 0.800400 0.156361
H3    H     H_    0.311504 0.833505 0.814758 0.150822
H4    H     H_    0.236418 0.505382 0.816487 0.147943
H5    H     H_    0.641840 0.945343 0.131527 0.106548
H6    H     H_    0.992624 0.701906 0.139031 0.114914
H7    H     H_    0.257663 0.219941 0.146823 0.122973
H8    H     H_    0.506520 0.878254 0.366971 0.157980
H9    H     H_    0.050923 0.647313 0.379625 0.124887
H10   H     H_    0.350116 0.409300 0.376055 0.145154
H11   H     H_    0.545492 0.973360 0.200848 0.113718
H12   H     H_    0.981602 0.787554 0.791415 0.154861
H13   H     H_    0.932767 0.587028 0.214101 0.112879
H14   H     H_    0.382162 0.292743 0.218002 0.100666
H15   H     H_    0.498819 0.951576 0.288002 0.128624
H16   H     H_    0.948413 0.570972 0.303015 0.101118
H17   H     H_    0.415514 0.360932 0.302613 0.116649
H18   H     H_    0.864460 0.821137 0.159393 0.132812
H19   H     H_    0.286533 0.022176 0.145841 0.126928
H20   H     H_    0.912093 0.114232 0.162337 0.122697
H21   H     H_    0.898378 0.781688 0.241400 0.130407
H22   H     H_    0.371865 0.103707 0.222258 0.101974
H23   H     H_    0.153042 0.164604 0.790887 0.163156
H24   H     H_    0.838003 0.116166 0.243270 0.125739
H25   H     H_    0.850683 0.756102 0.327814 0.159792
H26   H     H_    0.376978 0.095177 0.311043 0.159555
H27   H     H_    0.869831 0.180960 0.327672 0.155624
H28   H     H_    0.534419 0.896281 0.725571 0.127993
H29   H     H_    0.001203 0.780619 0.708244 0.128328
H30   H     H_    0.159175 0.191837 0.707843 0.130152
H31   H     H_    0.819370 0.932541 0.706999 0.148782
H32   H     H_    0.304574 0.992209 0.716752 0.155502
H33   H     H_    0.043124 0.383470 0.721024 0.154066
H34   H     H_    0.464945 0.749042 0.731619 0.110285
H35   H     H_    0.743183 0.004120 0.710985 0.114167
H36   H     H_    0.169249 0.973862 0.707994 0.111388
H37   H     H_    0.008029 0.243094 0.711557 0.116677
H38   H     H_    0.768182 0.022016 0.793807 0.149745
H39   H     H_    0.148598 0.983059 0.790066 0.161759
H40   H     H_    0.996700 0.212804 0.793601 0.169530
H41   H     H_    0.575531 0.647099 0.725221 0.114252
H42   H     H_    0.213486 0.689778 0.730471 0.115932
H43   H     H_    0.352282 0.498556 0.729595 0.113500
H44   H     H_    0.722322 0.724245 0.716907 0.129264
H45   H     H_    0.018451 0.662602 0.716399 0.136697
H46   H     H_    0.330478 0.826371 0.731467 0.121561
H47   H     H_    0.244936 0.533179 0.733107 0.115401
H48   H     H_    0.598645 0.664802 0.808455 0.110036
H49   H     H_    0.192131 0.699110 0.813327 0.130833
H50   H     H_    0.340588 0.466895 0.812564 0.109839
H51   H     H_    0.790897 0.865202 0.454021 0.120997
H52   H     H_    0.890500 0.882374 0.406813 0.106483
H53   H     H_    0.856005 0.782245 0.454362 0.144125
H54   H     H_    0.232867 0.088303 0.386719 0.114450
H55   H     H_    0.331364 0.131437 0.436061 0.148045
H56   H     H_    0.301573 0.296464 0.713909 0.133371
H57   H     H_    0.205962 0.001712 0.440868 0.112086
H58   H     H_    0.043773 0.473496 0.363425 0.119509
H59   H     H_    0.920483 0.418396 0.399208 0.144922
H60   H     H_    0.914192 0.363484 0.339291 0.096907
H61   H     H_    0.493662 0.767990 0.814911 0.113240
H62   H     H_    0.002690 0.672600 0.799618 0.149790
H63   H     H_    0.292880 0.271986 0.797147 0.155202
I1    I     I_    0.929466 0.972096 0.800348 -0.590769
I2    I     I_    0.360314 0.069869 0.816210 -0.473391
I3    I     I_    0.988806 0.391849 0.821749 -0.469794
O1    O     O_R   0.137150 0.468200 0.553200 -0.501714
O2    O     O_R   0.140110 0.470540 0.446010 -0.469877
O3    O     O_R   0.529460 0.669570 0.446010 -0.467870
O4    O     O_R   0.330430 0.859890 0.446010 -0.456082
O5    O     O_R   0.176710 0.690910 0.450560 -0.523631
O6    O     O_R   0.309090 0.485800 0.450560 -0.515334
O7    O     O_R   0.514200 0.823290 0.450560 -0.517806
O8    O     O_3   0.333333 0.666667 0.499990 -0.282115
O9    O     O_R   0.176750 0.985260 0.074180 -0.534965
O10   O     O_R   0.014740 0.191490 0.074180 -0.500851
O11   O     O_R   0.808510 0.823250 0.074180 -0.516075
O12   O     O_R   0.531800 0.668950 0.553200 -0.507874
O13   O     O_R   0.146100 0.172630 0.068980 -0.498221
O14   O     O_R   0.827370 0.973470 0.068980 -0.524538
O15   O     O_R   0.026530 0.853900 0.068980 -0.503431
O16   O     O_3   1.000000 0.000000 0.020040 -0.250976
O17   O     O_R   0.148270 0.170520 0.969620 -0.486484
O18   O     O_R   0.829480 0.977750 0.969620 -0.484379
O19   O     O_R   0.022250 0.851730 0.969620 -0.490161
O20   O     O_3   0.735920 0.739490 0.401528 -0.559805
O21   O     O_3   0.325159 0.008185 0.392840 -0.555929
O22   O     O_3   0.986638 0.315891 0.394448 -0.549917
O23   O     O_R   0.331050 0.862850 0.553200 -0.507782
O24   O     O_R   0.179100 0.982980 0.967000 -0.490814
O25   O     O_R   0.017020 0.196120 0.967000 -0.484298
O26   O     O_R   0.803880 0.820900 0.967000 -0.501927
O27   O     O_R   0.173970 0.688730 0.549930 -0.501429
O28   O     O_R   0.311270 0.485240 0.549930 -0.501494
O29   O     O_R   0.514760 0.826030 0.549930 -0.498099

loop_
_geom_bond_atom_site_label_1
_geom_bond_atom_site_label_2
_ccdc_geom_bond_type
C25   C31   A    
C89   H43   S    
C82   I2    S    
C26   C32   A    
C55   C59   A    
C67   H44   S    
C18   C21   A    
C56   H4    S    
C91   H61   S    
C2    C84   T    
C1    O27   A    
C11   O10   A    
C77   H35   S    
C6    C9    T    
C13   C41   S    
C79   C82   S    
C35   H15   S    
C40   H7    S    
C29   C76   S    
C27   C33   A    
C48   C54   A    
Cr5   O14   S    
C46   C49   A    
C81   H38   S    
C60   C63   A    
C17   C85   S    
C34   H2    S    
C32   C36   A    
C71   H18   S    
C47   C76   A    
C80   C83   S    
C44   O20   S    
C30   C74   S    
C73   H20   S    
C26   C39   A    
Cr1   O1    S    
C83   C96   S    
C59   H22   S    
C92   H62   S    
C16   C84   S    
C8    C23   S    
C6    C88   S    
C20   C76   A    
Cr4   O9    S    
C97   H51   S    
C65   H45   S    
C79   C88   S    
C52   C69   A    
C57   H27   S    
C83   H40   S    
C43   C73   A    
C89   H47   S    
C20   C24   A    
C93   H63   S    
C83   I3    S    
Cr1   O5    S    
C11   C43   S    
C45   C78   S    
C77   H31   S    
C81   I1    S    
Cr6   O11   S    
C39   C42   A    
C64   C87   S    
C65   H29   S    
Cr2   O12   S    
C45   H3    S    
C41   C71   A    
C61   C71   A    
C58   C61   A    
C39   H6    S    
Cr5   O10   S    
C18   C74   A    
C29   O6    A    
C72   H19   S    
Cr3   O8    S    
C91   H1    S    
Cr2   O3    S    
C25   C68   A    
Cr4   O24   S    
C56   H50   S    
C53   C70   A    
Cr3   O23   S    
C18   H8    S    
C65   C92   S    
C46   C75   A    
C98   H57   S    
C78   H46   S    
C47   C50   A    
C40   C43   A    
C30   O7    A    
C54   H25   S    
C48   C51   A    
C50   C53   A    
C13   O14   A    
C11   O13   A    
Cr4   O13   S    
C2    C94   S    
C19   C22   A    
C1    C9    S    
C99   H59   S    
C38   C41   A    
C12   O1    A    
C46   O21   S    
C28   O5    A    
C57   C60   A    
C63   C73   A    
C19   H9    S    
Cr3   O4    S    
C49   C55   A    
C7    C90   S    
C23   O29   A    
C92   C95   S    
C33   C37   A    
C37   H17   S    
C66   H56   S    
C97   H52   S    
Cr6   O15   S    
C34   C67   S    
C92   H12   S    
C14   O15   A    
C23   O12   A    
Cr2   O8    S    
Cr3   O29   S    
C25   C38   A    
C5    C8    T    
C63   C70   A    
C77   C81   S    
C27   C40   A    
C49   C52   A    
C67   H41   S    
C42   C72   A    
C24   C37   A    
Cr5   O25   S    
C62   C72   A    
C44   C74   A    
C77   C87   S    
C27   C70   A    
C10   C12   S    
C78   H42   S    
C15   C86   S    
C99   H58   S    
C15   O25   A    
C82   H39   S    
C56   C89   S    
C79   H32   S    
C98   H55   S    
C33   H14   S    
C93   C96   S    
C55   H26   S    
C66   C93   S    
Cr3   O7    S    
C31   C35   A    
C3    C85   T    
C17   O24   A    
C38   H5    S    
C45   C95   S    
C31   H11   S    
C21   C51   A    
C65   C88   S    
C22   C52   A    
C54   C58   A    
C34   H48   S    
C78   C88   S    
C56   C96   S    
Cr5   O16   S    
C64   H28   S    
C59   C62   A    
C29   O2    A    
C82   C95   S    
C50   C57   A    
C67   C87   S    
Cr6   O19   S    
C47   O22   S    
Cr4   O17   S    
C34   C94   S    
C32   H13   S    
C60   H24   S    
C20   H10   S    
Cr2   O28   S    
C28   O4    A    
C58   H21   S    
C21   C35   A    
C17   O19   A    
C22   C36   A    
C15   O17   A    
C99   O22   S    
C80   H37   S    
C14   C42   S    
C7    C10   T    
Cr6   O16   S    
C19   C75   A    
C1    O23   A    
C24   C53   A    
C93   H23   S    
C97   H53   S    
C91   C94   S    
C81   C94   S    
Cr1   O8    S    
C61   C68   A    
C79   H36   S    
C80   H33   S    
Cr5   O18   S    
Cr6   O26   S    
C66   C90   S    
C12   O28   A    
C4    C96   S    
C36   H16   S    
C51   C68   A    
C98   O21   S    
C80   C90   S    
Cr2   O6    S    
C16   O18   A    
C66   H30   S    
C5    C87   S    
C97   O20   S    
C4    C86   T    
C98   H54   S    
C62   C69   A    
C13   O11   A    
Cr1   O2    S    
C26   C69   A    
C3    C95   S    
C45   H49   S    
C64   C91   S    
C89   C90   S    
C28   C75   S    
C30   O3    A    
Cr4   O16   S    
C14   O9    A    
C16   O26   A    
C44   C48   A    
C99   H60   S    
C64   H34   S    
Cr1   O27   S    
