data_mof_unit_63334.cif
_audit_creation_date              2012-12-10T18:53:27-0500
_audit_creation_method            fapswitch 2.2
_symmetry_space_group_name_H-M    P1
_symmetry_Int_Tables_number       1
_space_group_crystal_system       triclinic
_cell_length_a                    30.3654
_cell_length_b                    30.340085
_cell_length_c                    21.69542
_cell_angle_alpha                 90.169009
_cell_angle_beta                  90.016797
_cell_angle_gamma                 90.003549
_cell_volume                      19987.6599714

loop_
_atom_site_label
_atom_site_type_symbol
_atom_type_description
_atom_site_fract_x
_atom_site_fract_y
_atom_site_fract_z
_atom_type_partial_charge
C1    C     C_R   0.500032 0.086050 0.999856 0.892088
C2    C     C_R   0.226910 0.500012 0.999968 0.009540
C3    C     C_R   0.081788 0.589370 0.221719 -0.097051
C4    C     C_R   0.420128 0.908792 0.781702 -0.116584
C5    C     C_R   0.081870 0.410704 0.778367 -0.096978
C6    C     C_R   0.579686 0.091498 0.782674 -0.119544
C7    C     C_R   0.914426 0.586449 0.781319 -0.112110
C8    C     C_R   0.074369 0.404803 0.715854 -0.122220
C9    C     C_R   0.413117 0.915361 0.719227 -0.101120
C10   C     C_R   0.921436 0.592923 0.718777 -0.110023
C11   C     C_R   0.586590 0.085095 0.720095 -0.101545
C12   C     C_R   0.921440 0.407048 0.281162 -0.114844
C13   C     C_R   0.502207 0.774870 0.001856 -0.026485
C14   C     C_R   0.586591 0.914908 0.279977 -0.101545
C15   C     C_R   0.074272 0.595270 0.284223 -0.122239
C16   C     C_R   0.413134 0.084636 0.280699 -0.101292
C17   C     C_R   0.529363 0.971711 0.281535 0.071929
C18   C     C_R   0.973780 0.468340 0.282351 0.077529
C19   C     C_R   0.470460 0.027933 0.281763 0.072168
C20   C     C_R   0.024088 0.532242 0.283372 0.081962
C21   C     C_R   0.470444 0.972071 0.718211 0.072197
C22   C     C_R   0.024141 0.467788 0.716653 0.081847
C23   C     C_R   0.529351 0.028295 0.718489 0.071930
C24   C     C_R   0.774376 0.499668 0.002785 0.055571
C25   C     C_R   0.973796 0.531655 0.717629 0.077024
C26   C     C_R   0.027517 0.470287 0.780926 0.068868
C27   C     C_R   0.473624 0.969081 0.782482 0.081409
C28   C     C_R   0.970596 0.528564 0.781940 0.086107
C29   C     C_R   0.526260 0.031145 0.782811 0.082330
C30   C     C_R   0.970599 0.471413 0.218033 0.082461
C31   C     C_R   0.526278 0.968867 0.217210 0.082223
C32   C     C_R   0.027479 0.529740 0.219104 0.069282
C33   C     C_R   0.473649 0.030930 0.217497 0.081459
C34   C     C_R   0.499919 0.999825 0.313536 -0.183697
C35   C     C_R   0.999988 0.724408 0.499241 -0.021066
C36   C     C_R   0.999444 0.499799 0.314345 -0.169751
C37   C     C_R   0.499909 0.000177 0.686463 -0.183662
C38   C     C_R   0.999479 0.500214 0.685657 -0.170377
C39   C     C_R   0.999450 0.499632 0.813402 -0.179747
C40   C     C_R   0.499975 0.000068 0.814212 -0.169643
C41   C     C_R   0.999443 0.500365 0.186600 -0.179021
C42   C     C_R   0.500002 0.999947 0.185787 -0.169643
C43   C     C_R   0.479237 0.202494 0.952282 -0.173222
C44   C     C_R   0.203838 0.467392 0.968093 -0.193838
C45   C     C_R   0.524662 0.797627 0.955709 -0.170590
C46   C     C_R   0.726604 0.000007 0.499977 -0.019291
C47   C     C_R   0.797577 0.521185 0.049605 -0.110166
C48   C     C_R   0.524718 0.202381 0.044312 -0.171679
C49   C     C_R   0.796691 0.478628 0.954750 -0.155411
C50   C     C_R   0.478989 0.797539 0.047520 -0.173193
C51   C     C_R   0.203861 0.532626 0.031868 -0.193801
C52   C     C_R   0.031181 0.701951 0.534349 -0.168838
C53   C     C_R   0.703921 0.963702 0.477021 -0.179995
C54   C     C_R   0.031155 0.298051 0.465647 -0.168771
C55   C     C_R   0.296053 0.036303 0.477374 -0.179851
C56   C     C_R   0.968887 0.701620 0.464202 -0.170130
C57   C     C_R   0.999972 0.275591 0.500749 -0.021063
C58   C     C_R   0.296065 0.963683 0.522652 -0.179910
C59   C     C_R   0.968882 0.298377 0.535781 -0.170275
C60   C     C_R   0.703937 0.036309 0.522948 -0.179878
C61   C     C_R   0.478264 0.156728 0.952466 0.118853
C62   C     C_R   0.158414 0.464759 0.972579 0.136661
C63   C     C_R   0.523588 0.843315 0.954360 0.120417
C64   C     C_R   0.843376 0.521282 0.049190 0.115745
C65   C     C_R   0.523585 0.156692 0.045683 0.120428
C66   C     C_R   0.842498 0.478761 0.953351 0.120754
C67   C     C_R   0.478109 0.843300 0.047395 0.119160
C68   C     C_R   0.273387 0.999993 0.500022 -0.019404
C69   C     C_R   0.158432 0.535242 0.027432 0.136859
C70   C     C_R   0.030415 0.656474 0.536716 0.129274
C71   C     C_R   0.658360 0.962498 0.478706 0.138790
C72   C     C_R   0.030391 0.343528 0.463282 0.129264
C73   C     C_R   0.341616 0.037503 0.479032 0.138814
C74   C     C_R   0.969698 0.656119 0.462242 0.128055
C75   C     C_R   0.341626 0.962481 0.520960 0.138727
C76   C     C_R   0.969697 0.343879 0.537742 0.128047
C77   C     C_R   0.658374 0.037504 0.521294 0.138782
C78   C     C_R   0.500343 0.133686 0.999531 -0.142986
C79   C     C_R   0.478534 0.295458 0.045393 -0.043698
C80   C     C_R   0.134663 0.500001 0.000008 -0.137954
C81   C     C_R   0.500310 0.866328 0.000447 -0.143525
C82   C     C_R   0.866049 0.500030 0.000849 -0.143212
C83   C     C_R   0.000027 0.633306 0.499648 -0.163435
C84   C     C_R   0.634647 0.000001 0.500002 -0.155880
C85   C     C_R   0.000018 0.366693 0.500345 -0.163415
C86   C     C_R   0.365346 0.999994 0.499994 -0.156235
C87   C     C_2   0.453709 0.269353 0.091801 0.484736
C88   C     C_2   0.276992 0.579829 0.964175 0.469154
C89   C     C_2   0.550798 0.728325 0.094205 0.473420
C90   C     C_R   0.298805 0.540109 0.991227 -0.052824
C91   C     C_2   0.726527 0.428263 0.063271 0.474560
C92   C     C_2   0.551627 0.271829 0.906457 0.472379
C93   C     C_2   0.729304 0.568467 0.939279 0.472573
C94   C     C_2   0.454092 0.730565 0.907556 0.484524
C95   C     C_2   0.277027 0.420191 0.035698 0.469193
C96   C     C_2   0.984313 0.769266 0.612061 0.471597
C97   C     C_2   0.772462 0.066110 0.430739 0.472562
C98   C     C_2   0.015154 0.230800 0.613438 0.472577
C99   C     C_2   0.227507 0.933941 0.430143 0.473241
C100  C     C_2   0.015135 0.769206 0.386560 0.472470
C101  C     C_R   0.525974 0.703481 0.046225 -0.038496
C102  C     C_2   0.227547 0.066039 0.569916 0.473228
C103  C     C_2   0.984260 0.230727 0.387930 0.471542
C104  C     C_2   0.772477 0.933900 0.569218 0.473070
C105  C     C_R   0.086417 0.500001 0.000007 0.876142
C106  C     C_R   0.702972 0.465220 0.032363 -0.016742
C107  C     C_R   0.526474 0.296602 0.954149 -0.039835
C108  C     C_R   0.703662 0.533616 0.971447 -0.073508
C109  C     C_R   0.478654 0.704516 0.954315 -0.043713
C110  C     C_R   0.298808 0.459923 0.008646 -0.052758
C111  C     C_R   0.993953 0.794943 0.555303 -0.048210
C112  C     C_R   0.797501 0.033381 0.467782 -0.041572
C113  C     C_R   0.005634 0.205090 0.556454 -0.048977
C114  C     C_R   0.202481 0.966639 0.467503 -0.041877
C115  C     C_R   0.005625 0.794913 0.443542 -0.048886
C116  C     C_R   0.500027 0.913955 0.000136 0.891973
C117  C     C_R   0.202500 0.033341 0.532558 -0.041874
C118  C     C_R   0.993925 0.205053 0.444690 -0.048245
C119  C     C_R   0.797506 0.966623 0.532168 -0.041963
C120  C     C_R   0.477568 0.341719 0.046041 0.165884
C121  C     C_R   0.344105 0.540095 0.003403 0.158110
C122  C     C_R   0.527071 0.657233 0.043883 0.158115
C123  C     C_R   0.656720 0.465026 0.030302 0.031232
C124  C     C_R   0.527554 0.342849 0.956640 0.160501
C125  C     C_R   0.657347 0.533646 0.970634 0.147384
C126  C     C_R   0.477697 0.658256 0.953742 0.166491
C127  C     C_R   0.913852 0.500005 0.000086 0.894316
C128  C     C_R   0.344095 0.459943 0.996449 0.158054
C129  C     C_R   0.995507 0.841067 0.556494 0.160359
C130  C     C_R   0.843615 0.034011 0.469363 0.130053
C131  C     C_R   0.004166 0.158958 0.557275 0.160052
C132  C     C_R   0.156368 0.966009 0.469068 0.130248
C133  C     C_R   0.004144 0.841043 0.442721 0.160081
C134  C     C_R   0.156386 0.033973 0.530991 0.130243
C135  C     C_R   0.995490 0.158931 0.443501 0.160359
C136  C     C_R   0.843619 0.965986 0.530583 0.130043
C137  C     C_R   0.501579 0.365393 0.000782 -0.207133
C138  C     C_R   0.000004 0.585931 0.499939 0.883893
C139  C     C_R   0.366764 0.500015 0.999958 -0.199254
C140  C     C_R   0.501486 0.634624 0.999302 -0.208348
C141  C     C_R   0.634209 0.499399 0.000105 -0.143925
C142  C     C_R   0.999881 0.864701 0.499707 -0.223775
C143  C     C_R   0.866277 0.999997 0.499975 -0.197693
C144  C     C_R   0.999885 0.135298 0.500290 -0.223770
C145  C     C_R   0.133719 0.999992 0.500025 -0.197920
C146  C     C_R   0.502206 0.273324 0.998812 -0.110899
C147  C     C_R   0.275372 0.500016 0.999951 -0.111596
C148  C     C_R   0.502037 0.726700 0.001148 -0.110220
C149  C     C_R   0.586413 0.000001 0.500004 0.872363
C150  C     C_R   0.726167 0.499934 0.003429 -0.066674
C151  C     C_R   0.999829 0.772419 0.499347 -0.096220
C152  C     C_R   0.774737 0.000004 0.499976 -0.105291
C153  C     C_R   0.999814 0.227580 0.500647 -0.096224
C154  C     C_R   0.225256 0.999991 0.500029 -0.105192
C155  C     C_R   0.586208 0.499790 0.000013 0.928464
C156  C     C_R   0.500281 0.413634 0.000137 0.929090
C157  C     C_R   0.414121 0.500004 0.999989 0.926833
C158  C     C_R   0.500282 0.586371 0.999880 0.923982
C159  C     C_R   0.086041 0.999999 0.500008 0.920320
C160  C     C_R   0.000002 0.414069 0.500061 0.883887
C161  C     C_R   0.999971 0.913375 0.499913 0.918414
C162  C     C_R   0.913958 0.000000 0.499992 0.920365
C163  C     C_R   0.999975 0.086624 0.500086 0.918431
C164  C     C_R   0.500005 0.999995 0.119802 0.877841
C165  C     C_R   0.000013 0.500092 0.120113 0.864286
C166  C     C_R   0.499995 0.000009 0.880198 0.877709
C167  C     C_R   0.000008 0.499906 0.879888 0.863918
C168  C     C_R   0.999913 0.500602 0.619749 0.866664
C169  C     C_R   0.499994 0.000059 0.620057 0.849381
C170  C     C_R   0.999901 0.499398 0.380251 0.866400
C171  C     C_R   0.413584 0.999998 0.499995 0.871941
C172  C     C_R   0.499997 0.999941 0.379942 0.849347
C173  C     C_R   0.549967 0.935177 0.186007 -0.115275
C174  C     C_R   0.938592 0.445329 0.187132 -0.109318
C175  C     C_R   0.449983 0.064675 0.186634 -0.114672
C176  C     C_R   0.058903 0.556850 0.189369 -0.119243
C177  C     C_R   0.449957 0.935335 0.813327 -0.114849
C178  C     C_R   0.058953 0.443202 0.810696 -0.118998
C179  C     C_R   0.549955 0.064834 0.814032 -0.115164
C180  C     C_R   0.938566 0.554617 0.812810 -0.114483
C181  C     C_R   0.045955 0.433077 0.684942 -0.115228
C182  C     C_R   0.502392 0.225152 0.998042 -0.025781
C183  C     C_R   0.437849 0.946684 0.687585 -0.122497
C184  C     C_R   0.950711 0.565851 0.686943 -0.121232
C185  C     C_R   0.561859 0.053803 0.688115 -0.122886
C186  C     C_R   0.950696 0.434142 0.313024 -0.121115
C187  C     C_R   0.561863 0.946199 0.311937 -0.122989
C188  C     C_R   0.045874 0.566972 0.315105 -0.115293
C189  C     C_R   0.437861 0.053313 0.312360 -0.122551
C190  C     C_R   0.579691 0.908509 0.217391 -0.119438
C191  C     C_R   0.914450 0.413497 0.218606 -0.102505
C192  C     C_R   0.420151 0.091212 0.218232 -0.116581
H1    H     H_    0.401871 0.116387 0.193921 0.159375
H2    H     H_    0.610792 0.104832 0.696172 0.176792
H3    H     H_    0.091240 0.378834 0.690985 0.156372
H4    H     H_    0.388837 0.895723 0.695119 0.177241
H5    H     H_    0.091121 0.621254 0.309109 0.156366
H6    H     H_    0.388852 0.104269 0.304786 0.177258
H7    H     H_    0.903547 0.381542 0.305347 0.156620
H8    H     H_    0.610788 0.895168 0.303921 0.176781
H9    H     H_    0.545748 0.928750 0.137350 0.155377
H10   H     H_    0.931254 0.449436 0.138771 0.162978
H11   H     H_    0.454295 0.071232 0.138081 0.155866
H12   H     H_    0.105044 0.610430 0.198204 0.178696
H13   H     H_    0.066522 0.552953 0.141251 0.172887
H14   H     H_    0.454264 0.928781 0.861885 0.155727
H15   H     H_    0.066556 0.447100 0.858826 0.172808
H16   H     H_    0.545736 0.071263 0.862685 0.155383
H17   H     H_    0.931218 0.550488 0.861159 0.158696
H18   H     H_    0.041233 0.427143 0.636239 0.150455
H19   H     H_    0.430721 0.951003 0.639285 0.167704
H20   H     H_    0.954934 0.572178 0.638297 0.150400
H21   H     H_    0.568926 0.049618 0.639754 0.168257
H22   H     H_    0.954902 0.427833 0.361680 0.150700
H23   H     H_    0.597977 0.883366 0.192832 0.157300
H24   H     H_    0.568925 0.950381 0.360306 0.168212
H25   H     H_    0.041141 0.572901 0.363804 0.150415
H26   H     H_    0.430726 0.048989 0.360652 0.167737
H27   H     H_    0.462116 0.220493 0.916490 0.189445
H28   H     H_    0.221502 0.442188 0.942703 0.172259
H29   H     H_    0.542312 0.779693 0.920217 0.191335
H30   H     H_    0.779957 0.537396 0.086696 0.176454
H31   H     H_    0.542311 0.220307 0.079885 0.190279
H32   H     H_    0.778393 0.462520 0.918205 0.177186
H33   H     H_    0.461778 0.779550 0.083226 0.189662
H34   H     H_    0.890622 0.393450 0.194188 0.165885
H35   H     H_    0.221545 0.557832 0.057245 0.172281
H36   H     H_    0.055159 0.719992 0.561484 0.198359
H37   H     H_    0.722000 0.935720 0.458915 0.190229
H38   H     H_    0.055123 0.280012 0.438517 0.198363
H39   H     H_    0.277960 0.064290 0.459526 0.190295
H40   H     H_    0.944872 0.719398 0.436947 0.198178
H41   H     H_    0.277982 0.935693 0.540504 0.190288
H42   H     H_    0.944875 0.280597 0.563030 0.198184
H43   H     H_    0.722028 0.064290 0.541052 0.190235
H44   H     H_    0.434655 0.240894 0.077252 0.075331
H45   H     H_    0.597976 0.116641 0.807248 0.157228
H46   H     H_    0.243067 0.578431 0.948886 0.087510
H47   H     H_    0.567217 0.758949 0.082485 0.072440
H48   H     H_    0.712835 0.395291 0.062557 0.098741
H49   H     H_    0.567742 0.241052 0.918220 0.072033
H50   H     H_    0.759534 0.580972 0.959467 0.062129
H51   H     H_    0.434941 0.759026 0.921817 0.075197
H52   H     H_    0.243113 0.421570 0.051009 0.087512
H53   H     H_    0.957207 0.745945 0.612134 0.074217
H54   H     H_    0.744926 0.055225 0.402645 0.078168
H55   H     H_    0.042218 0.254169 0.613790 0.073895
H56   H     H_    0.890584 0.606479 0.805714 0.158492
H57   H     H_    0.255036 0.944846 0.402163 0.078466
H58   H     H_    0.042209 0.745851 0.386213 0.073895
H59   H     H_    0.255090 0.055134 0.597887 0.078438
H60   H     H_    0.957148 0.254037 0.387852 0.074044
H61   H     H_    0.744959 0.944791 0.597318 0.078352
H62   H     H_    0.401845 0.883616 0.805998 0.159283
H63   H     H_    0.105137 0.389663 0.801905 0.178695
H64   H     H_    0.903544 0.618430 0.694581 0.156261
I1    I     I_    0.444863 0.124918 0.878605 -0.303295
I2    I     I_    0.631347 0.901496 0.447510 -0.310949
I3    I     I_    0.073704 0.373565 0.398616 -0.270136
I4    I     I_    0.368590 0.098514 0.448307 -0.310792
I5    I     I_    0.926501 0.625450 0.397711 -0.250594
I6    I     I_    0.368609 0.901451 0.551605 -0.310403
I7    I     I_    0.926521 0.374543 0.602263 -0.250692
I8    I     I_    0.631374 0.098482 0.552568 -0.312081
I9    I     I_    0.436587 0.374462 0.113522 -0.119862
I10   I     I_    0.377349 0.598156 0.035000 -0.211518
I11   I     I_    0.573599 0.622449 0.100999 -0.179810
I12   I     I_    0.131834 0.404494 0.938744 -0.340322
I13   I     I_    0.620413 0.412731 0.073763 -0.294453
I14   I     I_    0.574710 0.377802 0.900818 -0.179371
I15   I     I_    0.621768 0.588117 0.931473 -0.193753
I16   I     I_    0.436906 0.625493 0.886002 -0.119525
I17   I     I_    0.377258 0.401929 0.964561 -0.212353
I18   I     I_    0.989208 0.871261 0.647046 -0.142759
I19   I     I_    0.879404 0.086308 0.425660 -0.202420
I20   I     I_    0.010511 0.128791 0.647587 -0.141543
I21   I     I_    0.120562 0.913757 0.424807 -0.200618
I22   I     I_    0.010429 0.871212 0.352406 -0.141808
I23   I     I_    0.555555 0.874904 0.879317 -0.300264
I24   I     I_    0.120604 0.086222 0.575255 -0.200579
I25   I     I_    0.989179 0.128734 0.352947 -0.142834
I26   I     I_    0.879413 0.913679 0.574277 -0.201824
I27   I     I_    0.875907 0.551991 0.124691 -0.279398
I28   I     I_    0.555418 0.125087 0.120845 -0.303731
I29   I     I_    0.873738 0.448430 0.876529 -0.282972
I30   I     I_    0.444684 0.875113 0.121205 -0.302624
I31   I     I_    0.131860 0.595467 0.061384 -0.340630
I32   I     I_    0.073747 0.626439 0.601389 -0.270096
O1    O     O_R   0.463050 0.065470 0.999990 -0.602829
O2    O     O_R   0.565470 0.036950 0.499990 -0.592806
O3    O     O_R   0.036950 0.434530 0.499990 -0.602399
O4    O     O_R   0.434530 0.963050 0.499990 -0.592861
O5    O     O_R   0.036950 0.565470 0.500010 -0.602406
O6    O     O_R   0.434530 0.036950 0.500010 -0.592855
O7    O     O_R   0.963050 0.434530 0.500010 -0.602462
O8    O     O_R   0.565470 0.963050 0.500010 -0.592738
O9    O     O_R   0.463050 0.999990 0.091600 -0.611602
O10   O     O_R   0.999990 0.536950 0.091600 -0.601330
O11   O     O_R   0.536950 0.000010 0.091600 -0.611934
O12   O     O_R   0.065470 0.536950 0.999990 -0.593464
O13   O     O_R   0.000010 0.463050 0.091600 -0.621746
O14   O     O_R   0.536950 0.999990 0.908400 -0.611963
O15   O     O_R   0.000010 0.536950 0.908400 -0.621399
O16   O     O_R   0.463050 0.000010 0.908400 -0.611613
O17   O     O_R   0.999990 0.463050 0.908400 -0.601739
O18   O     O_R   0.963050 0.499990 0.591600 -0.608247
O19   O     O_R   0.499990 0.036950 0.591600 -0.609747
O20   O     O_R   0.036950 0.500010 0.591600 -0.610559
O21   O     O_R   0.500010 0.963050 0.591600 -0.608909
O22   O     O_R   0.036950 0.499990 0.408400 -0.610544
O23   O     O_R   0.536950 0.934530 0.999990 -0.604435
O24   O     O_R   0.500010 0.036950 0.408400 -0.609064
O25   O     O_R   0.963050 0.500010 0.408400 -0.608110
O26   O     O_R   0.499990 0.963050 0.408400 -0.609682
O27   O     O_R   0.565470 0.500020 0.051710 -0.588750
O28   O     O_R   0.500020 0.434530 0.051710 -0.590178
O29   O     O_R   0.434530 0.499980 0.051710 -0.598368
O30   O     O_R   0.499980 0.565470 0.051710 -0.592413
O31   O     O_R   0.434530 0.500020 0.948290 -0.598338
O32   O     O_R   0.499980 0.434530 0.948290 -0.592588
O33   O     O_R   0.565470 0.499980 0.948290 -0.593877
O34   O     O_R   0.934530 0.463050 0.999990 -0.597705
O35   O     O_R   0.500020 0.565470 0.948290 -0.592904
O36   O     O_R   0.065470 0.000020 0.551710 -0.597197
O37   O     O_R   0.000020 0.934530 0.551710 -0.591146
O38   O     O_R   0.934530 0.999980 0.551710 -0.597271
O39   O     O_R   0.999980 0.065470 0.551710 -0.591557
O40   O     O_R   0.934530 0.000020 0.448290 -0.597294
O41   O     O_R   0.999980 0.934530 0.448290 -0.591550
O42   O     O_R   0.065470 0.999980 0.448290 -0.597168
O43   O     O_R   0.000020 0.065470 0.448290 -0.591128
O44   O     O_2   0.456438 0.277678 0.146742 -0.506560
O45   O     O_R   0.536950 0.065470 0.000010 -0.604487
O46   O     O_2   0.297034 0.614009 0.954899 -0.498877
O47   O     O_2   0.551220 0.716176 0.147782 -0.504760
O48   O     O_2   0.761088 0.434157 0.090827 -0.542913
O49   O     O_2   0.552686 0.284234 0.853015 -0.504673
O50   O     O_2   0.718308 0.581912 0.888602 -0.501327
O51   O     O_2   0.457150 0.722190 0.852666 -0.505806
O52   O     O_2   0.297090 0.386019 0.044950 -0.498773
O53   O     O_2   0.008285 0.771609 0.657136 -0.510435
O54   O     O_2   0.780442 0.105465 0.434022 -0.503977
O55   O     O_2   0.991133 0.228414 0.658418 -0.508649
O56   O     O_R   0.934530 0.536950 0.000010 -0.606254
O57   O     O_2   0.219526 0.894583 0.433036 -0.503693
O58   O     O_2   0.991097 0.771578 0.341577 -0.508903
O59   O     O_2   0.219566 0.105396 0.567030 -0.503711
O60   O     O_2   0.008219 0.228394 0.342860 -0.510327
O61   O     O_2   0.780440 0.894543 0.565931 -0.503363
O62   O     O_R   0.463050 0.934530 0.000010 -0.602877
O63   O     O_R   0.065470 0.463050 0.000010 -0.593677
O64   O     O_R   0.963050 0.565470 0.499990 -0.602401
Zn1   Zn    Zn3+2 0.450650 0.000000 0.000000 1.032752
Zn2   Zn    Zn3+2 0.500000 0.500000 0.930940 1.100392
Zn3   Zn    Zn3+2 0.000000 0.000000 0.569060 1.095313
Zn4   Zn    Zn3+2 0.000000 1.000000 0.430940 1.095289
Zn5   Zn    Zn3+2 0.000000 0.549350 0.000000 1.046425
Zn6   Zn    Zn3+2 0.549350 0.000000 0.000000 1.030024
Zn7   Zn    Zn3+2 1.000000 0.450650 0.000000 1.050873
Zn8   Zn    Zn3+2 0.950650 0.500000 0.500000 1.046352
Zn9   Zn    Zn3+2 0.500000 0.049350 0.500000 1.062623
Zn10  Zn    Zn3+2 0.049350 0.500000 0.500000 1.040779
Zn11  Zn    Zn3+2 0.500000 0.950650 0.500000 1.063075
Zn12  Zn    Zn3+2 0.500000 0.500000 0.069060 1.100773

loop_
_geom_bond_atom_site_label_1
_geom_bond_atom_site_label_2
_ccdc_geom_bond_type
C101  C148  A    
O18   Zn8   S    
O15   Zn5   S    
C31   C42   A    
C6    C179  A    
C10   C184  A    
C4    C177  A    
C79   C87   S    
O56   Zn5   S    
C94   O51   D    
C188  H25   S    
C71   I2    S    
O14   Zn6   S    
C89   O47   D    
C125  I15   S    
C126  I16   S    
C128  C139  A    
C22   C181  A    
C93   H50   S    
C15   H5    S    
C57   C59   A    
C22   C38   A    
C118  C153  A    
C173  H9    S    
C127  O34   A    
C93   O50   D    
C12   C191  A    
C122  I11   S    
C48   C65   A    
C136  I26   S    
C74   C83   A    
O28   Zn12  S    
C174  C191  A    
C89   C101  S    
C3    H12   S    
C129  I18   S    
C100  C115  S    
C102  O59   D    
C190  H23   S    
C124  C137  A    
C6    C11   A    
C97   C112  S    
C129  C142  A    
C23   C37   A    
C30   C174  A    
C66   C82   A    
O21   Zn11  S    
C75   C86   A    
C166  O16   A    
C158  O35   A    
C161  O37   A    
C79   C120  A    
C123  C141  A    
C1    O1    A    
C59   H42   S    
C28   C180  A    
O37   Zn3   S    
C156  O28   A    
C49   H32   S    
C157  O29   A    
C17   C34   A    
C53   C71   A    
C96   H53   S    
C16   H6    S    
C43   C61   A    
O40   Zn4   S    
C46   C60   A    
O2    Zn9   S    
C101  C122  A    
C5    C8    A    
C94   C109  S    
C36   C170  S    
C119  C136  A    
O5    Zn10  S    
C13   C45   A    
C14   C187  A    
C95   O52   D    
C7    H56   S    
C46   C53   A    
C161  O41   A    
C18   C186  A    
C128  I17   S    
C16   C189  A    
C175  H11   S    
C74   I5    S    
C3    C176  A    
C139  C157  S    
C167  O15   A    
C29   C179  A    
C115  C151  A    
C51   C69   A    
C76   C85   A    
C114  C154  A    
C83   C138  S    
C99   O57   D    
C110  C128  A    
C8    C181  A    
C106  C150  A    
C44   H28   S    
C4    H62   S    
C99   H57   S    
C58   H41   S    
C99   C114  S    
C72   C85   A    
C124  I14   S    
C133  C142  A    
C149  O8    A    
C132  C145  A    
C23   C29   A    
C62   C80   A    
C136  C143  A    
C37   C169  S    
C145  C159  S    
C42   C164  S    
C166  O14   A    
O30   Zn12  S    
C177  H14   S    
C8    H3    S    
O29   Zn12  S    
O13   Zn7   S    
C62   I12   S    
C169  O19   A    
C2    C44   A    
C73   C86   A    
C32   C41   A    
C157  O31   A    
C30   C41   A    
C85   C160  S    
C50   C67   A    
C104  C119  S    
C84   C149  S    
O20   Zn10  S    
O4    Zn11  S    
C60   H43   S    
C111  C129  A    
C79   C146  A    
C96   C111  S    
C49   C66   A    
C100  O58   D    
C102  H59   S    
C19   C33   A    
C175  C192  A    
C107  C146  A    
O42   Zn4   S    
C77   C84   A    
C2    C147  S    
O39   Zn3   S    
C104  H61   S    
C172  O26   A    
C181  H18   S    
C94   H51   S    
C90   C147  A    
C25   C38   A    
C20   C188  A    
C1    O45   A    
C92   H49   S    
C27   C40   A    
C88   H46   S    
C164  O9    A    
C92   O49   D    
C102  C117  S    
C24   C150  S    
C19   C189  A    
O8    Zn11  S    
C108  C150  A    
C67   C81   A    
O64   Zn8   S    
C90   C121  A    
C35   C52   A    
C20   C32   A    
C171  O6    A    
C119  C152  A    
O25   Zn8   S    
C187  H24   S    
C159  O42   A    
C149  O2    A    
C35   C56   A    
C105  O63   A    
O34   Zn7   S    
C47   H30   S    
C96   O53   D    
C155  O33   A    
C15   C188  A    
C172  O24   A    
O27   Zn12  S    
C134  I24   S    
C121  C139  A    
C91   O48   D    
O36   Zn3   S    
C122  C140  A    
C131  I20   S    
O3    Zn10  S    
C169  O21   A    
C156  O32   A    
C81   C116  S    
O43   Zn4   S    
C167  O17   A    
C185  H21   S    
C7    C180  A    
C65   I28   S    
C158  O30   A    
C5    C178  A    
C131  C144  A    
C13   C50   A    
C14   C190  A    
C116  O23   A    
C162  O40   A    
C109  C126  A    
C72   I3    S    
C53   H37   S    
C112  C130  A    
C4    C9    A    
C59   C76   A    
C54   H38   S    
C54   C57   A    
C7    C10   A    
C160  O3    A    
C61   I1    S    
C103  O60   D    
C55   C68   A    
O45   Zn6   S    
O7    Zn8   S    
C25   C28   A    
C38   C168  S    
C10   H64   S    
C107  C124  A    
C67   I30   S    
C93   C108  S    
C26   C39   A    
C173  C190  A    
C174  H10   S    
C164  O11   A    
C52   H36   S    
C91   H48   S    
C112  C152  A    
C105  O12   A    
C25   C184  A    
C95   H52   S    
C171  O4    A    
C123  I13   S    
C21   C27   A    
C168  O20   A    
C1    C78   S    
C163  O43   A    
C35   C151  S    
C142  C161  S    
C138  O5    A    
C117  C134  A    
C6    H45   S    
C9    H4    S    
C56   C74   A    
C146  C182  S    
C55   H39   S    
C160  O7    A    
C97   H54   S    
C23   C185  A    
C141  C155  S    
C98   C113  S    
C115  C133  A    
O62   Zn1   S    
C57   C153  S    
C87   H44   S    
C176  H13   S    
C9    C183  A    
C162  O38   A    
C12   C186  A    
C178  H15   S    
C70   C83   A    
C170  O25   A    
C58   C68   A    
C69   I31   S    
C88   C90   S    
C191  H34   S    
C70   I32   S    
C144  C163  S    
C51   H35   S    
C159  O36   A    
C17   C31   A    
O9    Zn1   S    
C103  C118  S    
C33   C42   A    
C47   C64   A    
C34   C172  S    
C189  H26   S    
C134  C145  A    
C179  H16   S    
C65   C78   A    
C43   H27   S    
C27   C177  A    
C95   C110  S    
C121  I10   S    
O12   Zn5   S    
O31   Zn2   S    
C68   C154  S    
C28   C39   A    
C138  O64   A    
O6    Zn9   S    
C132  I21   S    
C45   H29   S    
C5    H63   S    
C14   H8    S    
C17   C187  A    
O1    Zn1   S    
C180  H17   S    
C29   C40   A    
C2    C51   A    
C133  I22   S    
C20   C36   A    
C104  O61   D    
C21   C37   A    
C22   C26   A    
C117  C154  A    
C50   H33   S    
C120  C137  A    
C18   C36   A    
C118  C135  A    
C88   O46   D    
O41   Zn4   S    
C46   C152  S    
C77   I8    S    
C89   H47   S    
C135  I25   S    
C11   H2    S    
C63   I23   S    
C73   I4    S    
C155  O27   A    
C170  O22   A    
O16   Zn1   S    
C32   C176  A    
O23   Zn6   S    
C126  C140  A    
C63   C81   A    
C168  O18   A    
C103  H60   S    
O33   Zn2   S    
C100  H58   S    
C183  H19   S    
C56   H40   S    
O26   Zn11  S    
C16   C192  A    
O35   Zn2   S    
C41   C165  S    
C106  C123  A    
C18   C30   A    
C108  C125  A    
C143  C162  S    
C40   C166  S    
C140  C158  S    
O32   Zn2   S    
C75   I6    S    
C91   C106  S    
O63   Zn7   S    
C58   C75   A    
C184  H20   S    
C26   C178  A    
C127  O56   A    
C60   C77   A    
O22   Zn10  S    
C86   C171  S    
C125  C141  A    
C165  O10   A    
C44   C62   A    
C80   C105  S    
C45   C63   A    
C137  C156  S    
C55   C73   A    
C92   C107  S    
C61   C78   A    
O19   Zn9   S    
C163  O39   A    
C130  C143  A    
C64   C82   A    
C135  C144  A    
C76   I7    S    
C116  O62   A    
C109  C148  A    
C110  C147  A    
O10   Zn5   S    
C3    C15   A    
O38   Zn3   S    
C71   C84   A    
C31   C173  A    
C24   C49   A    
C21   C183  A    
C120  I9    S    
C113  C131  A    
C11   C185  A    
C24   C47   A    
C114  C132  A    
C66   I29   S    
C113  C153  A    
C19   C34   A    
C111  C151  A    
O17   Zn7   S    
C98   O55   D    
O24   Zn9   S    
C48   H31   S    
C43   C182  A    
C192  H1    S    
O11   Zn6   S    
C98   H55   S    
C48   C182  A    
C64   I27   S    
C186  H22   S    
C12   H7    S    
C97   O54   D    
C39   C167  S    
C33   C175  A    
C82   C127  S    
C52   C70   A    
C165  O13   A    
C87   O44   D    
C54   C72   A    
C69   C80   A    
C13   C148  S    
C130  I19   S    
