data_mof_unit_18888.cif
_audit_creation_date              2012-12-11T14:17:34-0500
_audit_creation_method            fapswitch 2.2
_symmetry_space_group_name_H-M    P1
_symmetry_Int_Tables_number       1
_space_group_crystal_system       triclinic
_cell_length_a                    6.940296
_cell_length_b                    13.6646
_cell_length_c                    20.448861
_cell_angle_alpha                 102.089724
_cell_angle_beta                  90.333321
_cell_angle_gamma                 90.51413
_cell_volume                      1896.14863196

loop_
_atom_site_label
_atom_site_type_symbol
_atom_type_description
_atom_site_fract_x
_atom_site_fract_y
_atom_site_fract_z
_atom_type_partial_charge
O1    O     O_R   0.506860 0.599390 0.449240 -0.551094
O2    O     O_R   0.180220 0.594600 0.586780 -0.520807
O3    O     O_R   0.004500 0.400610 0.550760 -0.539897
C1    C     C_R   0.348737 0.614367 0.614101 0.697129
O4    O     O_R   0.177490 0.611290 0.451970 -0.534680
O5    O     O_R   0.001750 0.417420 0.414990 -0.519915
C2    C     C_R   0.346359 0.635799 0.433839 0.724278
O6    O     O_R   0.509610 0.582580 0.585010 -0.526597
O7    O     O_3   0.337420 0.436370 0.488020 -0.384015
V1    V     V_3+5 0.064680 0.511800 0.502220 1.519421
O8    O     O_R   0.671710 0.405400 0.413220 -0.558503
C3    C     C_R   0.839667 0.382029 0.387378 0.761969
O9    O     O_R   0.674440 0.388710 0.548030 -0.554951
C4    C     C_R   0.843436 0.362703 0.565355 0.759946
V2    V     V_3+5 0.564010 0.488200 0.497780 1.439192
O10   O     O_3   0.841140 0.563630 0.511980 -0.358270
C5    C     C_R   0.925934 0.110264 0.606773 0.303052
C6    C     C_R   0.856508 0.282448 0.602787 -0.211340
C7    C     C_R   0.834981 0.309622 0.922716 -0.281418
C8    C     C_R   0.855057 0.385574 0.887707 -0.081851
C9    C     C_R   0.896619 0.363852 0.819670 0.344190
C10   C     C_R   0.893008 0.262265 0.783115 -0.041772
C11   C     C_R   0.892828 0.184411 0.820168 -0.059109
C12   C     C_R   0.889400 0.235788 0.711562 0.003130
C13   C     C_R   0.929709 0.135792 0.678269 -0.153507
C14   C     C_R   0.970749 0.064088 0.717281 0.242899
C15   C     C_R   0.928186 0.084515 0.785981 0.313529
C16   C     C_R   0.839932 0.305614 0.672215 -0.284961
C17   C     C_R   0.899609 0.184813 0.569883 0.434953
C18   C     C_R   0.862890 0.210066 0.890848 -0.068322
H1    H     H_    0.789030 0.379356 0.694577 0.170413
H2    H     H_    0.810383 0.329240 0.976163 0.134819
H3    H     H_    0.850660 0.462698 0.914707 0.147033
C19   C     C_2   0.003970 0.266903 0.292744 0.406985
C20   C     C_2   0.841851 0.309030 0.322534 -0.403633
H4    H     H_    0.701976 0.285730 0.300726 0.149702
C21   C     C_2   0.002296 0.194911 0.225690 0.355727
C22   C     C_2   0.866112 0.193611 0.177166 0.018508
C23   C     C_2   0.208382 0.778833 0.786874 -0.195461
C24   C     C_2   0.363714 0.828033 0.816810 -0.267255
H5    H     H_    0.074336 0.783047 0.814461 0.140882
H6    H     H_    0.496606 0.828973 0.789326 0.178911
C25   C     C_2   0.204308 0.724762 0.714996 0.304300
C26   C     C_2   0.358123 0.672081 0.684669 0.250987
C27   C     C_R   0.383645 0.882149 0.385279 0.357258
H7    H     H_    0.389398 0.828878 0.476099 0.158591
H8    H     H_    0.404468 0.008681 0.299863 0.125672
C28   C     C_R   0.358930 0.707760 0.390636 -0.221549
C29   C     C_R   0.378115 0.682942 0.068237 -0.325392
C30   C     C_R   0.420037 0.607858 0.102630 0.420662
C31   C     C_R   0.447305 0.632632 0.172407 0.416713
C32   C     C_R   0.393275 0.728614 0.209464 -0.053229
C33   C     C_R   0.371391 0.805867 0.173208 -0.016020
C34   C     C_R   0.378795 0.752753 0.281040 -0.003617
C35   C     C_R   0.384040 0.855721 0.314527 -0.031421
C36   C     C_R   0.389899 0.930255 0.276776 -0.159859
C37   C     C_R   0.373472 0.905807 0.207836 -0.108048
C38   C     C_R   0.348865 0.678417 0.319714 0.401335
C39   C     C_R   0.383652 0.807726 0.421932 -0.202771
C40   C     C_R   0.362277 0.782174 0.102551 -0.147213
H9    H     H_    0.372827 0.664828 0.014038 0.152919
H10   H     H_    0.370274 0.966315 0.181484 0.139428
O11   O     O_R   0.203230 0.917310 0.915020 -0.521978
O12   O     O_R   0.535500 0.888690 0.048040 -0.544824
O13   O     O_R   0.711080 0.082610 0.085000 -0.564661
C41   C     C_R   0.366734 0.860592 0.063472 0.727839
O14   O     O_R   0.532630 0.905370 0.913230 -0.541978
O15   O     O_R   0.708190 0.099410 0.949230 -0.541559
C42   C     C_R   0.364349 0.886224 0.886132 0.759695
O16   O     O_R   0.206120 0.900510 0.050790 -0.537282
O17   O     O_3   0.375360 0.063570 0.011990 -0.389742
V3    V     V_3+5 0.648170 0.988200 0.997780 1.437950
O18   O     O_R   0.038240 0.111390 0.951940 -0.535254
C43   C     C_R   0.869681 0.136477 0.933896 0.806411
O19   O     O_R   0.041120 0.094710 0.086750 -0.531281
C44   C     C_R   0.873299 0.117498 0.112941 0.703352
V4    V     V_3+5 0.148810 0.011930 0.002180 1.463703
O20   O     O_3   0.871750 0.936430 0.988010 -0.364923
O21   O     O_3   0.921427 0.162082 0.501166 -0.562747
C45   C     C_3   0.741130 0.132202 0.471109 -0.209021
H11   H     H_    0.633418 0.193002 0.483190 0.121398
H12   H     H_    0.686359 0.063464 0.486082 0.212493
H13   H     H_    0.759020 0.114570 0.416012 0.150698
O22   O     O_3   0.150342 0.126210 0.212973 -0.579492
C46   C     C_3   0.321281 0.174312 0.198235 -0.170144
H14   H     H_    0.422765 0.182748 0.241183 0.170785
H15   H     H_    0.299543 0.248656 0.184873 0.117948
H16   H     H_    0.390975 0.125921 0.154787 0.157973
O23   O     O_3   0.730612 0.268588 0.184658 -0.679884
H17   H     H_    0.657923 0.262132 0.142069 0.284986
O24   O     O_3   0.034302 0.724780 0.679257 -0.625331
H18   H     H_    0.938750 0.766513 0.708093 0.317754
O25   O     O_3   0.527858 0.667909 0.719983 -0.567003
C47   C     C_3   0.528675 0.577928 0.743442 -0.241168
H19   H     H_    0.529426 0.511452 0.701386 0.124398
H20   H     H_    0.404122 0.573497 0.776824 0.139396
H21   H     H_    0.662109 0.576044 0.773238 0.203158
O26   O     O_3   0.381055 0.979657 0.420723 -0.650698
H22   H     H_    0.288747 0.016878 0.398407 0.287428
O27   O     O_3   0.058888 0.974483 0.690851 -0.647853
H23   H     H_    0.155891 0.987291 0.658170 0.325097
O28   O     O_3   0.266628 0.586854 0.288150 -0.568661
C48   C     C_3   0.361440 0.503339 0.303887 -0.081289
H24   H     H_    0.282659 0.475937 0.343462 0.161172
H25   H     H_    0.515832 0.518176 0.318096 0.128772
H26   H     H_    0.356926 0.441316 0.259136 0.173393
O29   O     O_3   0.549408 0.566564 0.201574 -0.546556
C49   C     C_3   0.744276 0.597643 0.208204 -0.201327
H27   H     H_    0.761151 0.671326 0.243360 0.128289
H28   H     H_    0.808181 0.600642 0.158823 0.142206
H29   H     H_    0.826777 0.542146 0.229310 0.183977
O30   O     O_3   0.464561 0.513662 0.066459 -0.542185
C50   C     C_3   0.314669 0.446827 0.074371 -0.201671
H30   H     H_    0.173821 0.471201 0.057172 0.123009
H31   H     H_    0.304475 0.437694 0.127044 0.158966
H32   H     H_    0.346415 0.372246 0.042966 0.150548
O31   O     O_3   0.939029 0.013188 0.570945 -0.624033
H33   H     H_    0.859497 0.970489 0.594086 0.316112
O32   O     O_3   0.960222 0.442971 0.793111 -0.669853
H34   H     H_    0.061808 0.417676 0.760138 0.284853
O33   O     O_3   0.932195 0.008129 0.820883 -0.643505
H35   H     H_    0.923658 0.942473 0.789354 0.313292
O34   O     O_3   0.180268 0.287096 0.325279 -0.564548
C51   C     C_3   0.209200 0.218156 0.367009 -0.189304
H36   H     H_    0.178733 0.139683 0.340826 0.133790
H37   H     H_    0.118944 0.237049 0.412414 0.181857
H38   H     H_    0.362272 0.222680 0.383420 0.139010

loop_
_geom_bond_atom_site_label_1
_geom_bond_atom_site_label_2
_ccdc_geom_bond_type
C35   C36   A    
C19   O34   S    
H7    C39   S    
C19   C21   S    
C5    C17   A    
O18   C43   A    
C4    C6    S    
C7    C8    A    
C1    O6    A    
C15   O33   S    
O34   C51   S    
C23   H5    S    
C22   C44   S    
V4    O20   S    
C49   H27   S    
C22   O23   S    
C14   C15   A    
O25   C47   S    
C29   C40   A    
O14   V3    S    
C27   O26   S    
C34   C38   A    
C18   C43   S    
O15   C43   A    
V2    O10   S    
C36   C37   A    
C19   C20   D    
V3    O20   S    
C26   O25   S    
O8    V2    S    
O11   C42   A    
O29   C49   S    
C21   O22   S    
C38   O28   S    
C11   C15   A    
O7    V1    S    
C5    O31   S    
C50   H32   S    
C24   H6    S    
C40   C41   S    
O9    C4    A    
O16   V4    S    
C47   H19   S    
C45   H13   S    
C7    H2    S    
O30   C50   S    
C33   C40   A    
C32   C34   A    
C46   H15   S    
C29   H9    S    
C24   C42   S    
C31   C32   A    
C11   C18   A    
C37   H10   S    
C6    C16   A    
C12   C13   A    
C45   H12   S    
O32   H34   S    
O24   H18   S    
O4    C2    A    
C33   C37   A    
C23   C25   S    
C1    C26   S    
C47   H21   S    
C13   C14   A    
C46   H14   S    
C25   O24   S    
O14   C42   A    
C20   H4    S    
O12   C41   A    
O2    C1    A    
O19   C44   A    
C21   C22   D    
O19   V4    S    
C17   O21   S    
O15   V3    S    
C30   O30   S    
C30   C31   A    
C48   H25   S    
C6    C17   A    
O22   C46   S    
C3    C20   S    
C47   H20   S    
O13   C44   A    
O33   H35   S    
O3    C4    A    
C51   H38   S    
O1    V2    S    
C8    H3    S    
O26   H22   S    
O6    V2    S    
O9    V2    S    
C25   C26   D    
C10   C12   A    
O2    V1    S    
O17   V4    S    
C32   C33   A    
C28   C39   A    
C51   H37   S    
C50   H30   S    
O11   V4    S    
C46   H16   S    
C34   C35   A    
C27   C39   A    
O1    C2    A    
C16   H1    S    
C12   C16   A    
C45   H11   S    
O5    V1    S    
O8    C3    A    
C28   C38   A    
O13   V3    S    
C49   H29   S    
C5    C13   A    
C2    C28   S    
O7    V2    S    
O4    V1    S    
C9    O32   S    
O3    V1    S    
V1    O10   S    
O31   H33   S    
O5    C3    A    
C41   O16   A    
O27   H23   S    
C49   H28   S    
C48   H26   S    
O12   V3    S    
O28   C48   S    
O21   C45   S    
C23   C24   D    
O17   V3    S    
C8    C9    A    
C27   C35   A    
C31   O29   S    
C29   C30   A    
C48   H24   S    
O18   V4    S    
C10   C11   A    
H8    C36   S    
O23   H17   S    
C9    C10   A    
C7    C18   A    
C14   O27   S    
C51   H36   S    
C50   H31   S    
