data_mof_unit_36982.cif
_audit_creation_date              2012-12-11T15:36:29-0500
_audit_creation_method            fapswitch 2.2
_symmetry_space_group_name_H-M    P1
_symmetry_Int_Tables_number       1
_space_group_crystal_system       triclinic
_cell_length_a                    15.053591
_cell_length_b                    15.069922
_cell_length_c                    34.853403
_cell_angle_alpha                 91.367084
_cell_angle_beta                  91.852595
_cell_angle_gamma                 60.011417
_cell_volume                      6844.35690171

loop_
_atom_site_label
_atom_site_type_symbol
_atom_type_description
_atom_site_fract_x
_atom_site_fract_y
_atom_site_fract_z
_atom_type_partial_charge
C1    C     C_R   0.610686 0.302842 0.443968 0.537243
C2    C     C_R   0.679062 0.045562 0.760706 -0.107433
C3    C     C_R   0.091662 0.764852 0.885360 -0.126463
C4    C     C_R   0.117826 0.753499 0.846897 -0.122090
C5    C     C_R   0.115464 0.676324 0.824284 0.031056
C6    C     C_R   0.093539 0.606286 0.841411 -0.123208
C7    C     C_R   0.068374 0.616995 0.879960 -0.126257
C8    C     C_R   0.183243 0.578820 0.763145 -0.119141
C9    C     C_R   0.192412 0.576099 0.723485 -0.117998
C10   C     C_R   0.148274 0.667519 0.702704 0.028058
C11   C     C_R   0.093957 0.761742 0.721849 -0.117535
C12   C     C_R   0.083592 0.764511 0.761468 -0.118671
C13   C     C_R   0.615987 0.128603 0.784344 -0.004337
C14   C     C_R   0.636914 0.746395 0.159457 0.247716
C15   C     C_R   0.128806 0.673071 0.782493 0.031075
C16   C     C_R   0.210006 0.717841 0.646848 -0.139991
C17   C     C_R   0.244282 0.699972 0.609407 -0.160539
C18   C     C_R   0.177111 0.583654 0.599193 0.239922
C19   C     C_R   0.146680 0.599289 0.637299 -0.056238
C20   C     C_R   0.165668 0.663793 0.661463 -0.022804
C21   C     C_R   0.233824 0.628479 0.585882 0.008989
C22   C     C_R   0.676078 0.067839 0.904181 0.024594
C23   C     C_R   0.630006 0.021042 0.882569 -0.121698
C24   C     C_R   0.549925 0.185690 0.637997 -0.143346
C25   C     C_R   0.603468 0.043738 0.843806 0.002764
C26   C     C_3   0.352819 0.716976 0.283129 -0.399649
C27   C     C_3   0.473013 0.811662 0.602403 -0.375097
C28   C     C_3   0.731680 0.202276 0.909885 -0.388473
C29   C     C_3   0.486816 0.346312 0.712940 -0.398675
C30   C     C_3   0.556990 0.988135 0.822320 -0.410443
C31   C     C_3   0.751583 0.965235 0.697600 -0.406427
C32   C     C_R   0.818618 0.617188 0.160072 -0.157506
C33   C     C_R   0.548480 0.219304 0.601011 -0.173625
C34   C     C_R   0.705217 0.224490 0.615672 0.241061
C35   C     C_R   0.705604 0.190428 0.652953 -0.122164
C36   C     C_R   0.626376 0.174695 0.664387 -0.005793
C37   C     C_R   0.623262 0.243069 0.589835 0.054575
C38   C     C_R   0.045701 0.738987 0.048574 0.540792
C39   C     C_R   0.726770 0.674498 0.179677 0.017574
C40   C     C_R   0.746927 0.746084 0.063835 0.544840
C41   C     C_R   0.751135 0.040569 0.050577 0.540054
C42   C     C_R   0.016619 0.722426 0.939670 0.543585
C43   C     C_R   0.717206 0.730159 0.954847 0.538860
C44   C     C_R   0.823910 0.635872 0.121497 -0.149008
C45   C     C_R   0.721278 0.024129 0.942013 0.538773
C46   C     C_R   0.750676 0.572300 0.238059 -0.131671
C47   C     C_R   0.743993 0.566530 0.277628 -0.068820
C48   C     C_R   0.716322 0.653243 0.301082 0.067861
C49   C     C_R   0.698362 0.744901 0.284564 -0.127561
C50   C     C_R   0.623157 0.115456 0.826274 0.027270
C51   C     C_R   0.704606 0.750727 0.245010 -0.115108
C52   C     C_R   0.728424 0.665136 0.221553 0.006869
C53   C     C_R   0.599115 0.725395 0.355756 -0.175802
C54   C     C_R   0.593227 0.610033 0.449338 0.543197
C55   C     C_R   0.568696 0.715951 0.391968 -0.143194
C56   C     C_R   0.731960 0.560859 0.402255 -0.118678
C57   C     C_R   0.763515 0.570032 0.365747 0.249010
C58   C     C_R   0.694702 0.650926 0.341859 0.067400
C59   C     C_R   0.633211 0.631473 0.414896 -0.010375
C60   C     C_R   0.105096 0.727332 0.084523 0.020574
C61   C     C_R   0.661270 0.168461 0.848545 -0.110065
C62   C     C_R   0.150360 0.633526 0.104014 -0.126209
C63   C     C_R   0.178939 0.628689 0.142633 -0.121373
C64   C     C_R   0.164423 0.716972 0.162207 0.026244
C65   C     C_R   0.129028 0.808418 0.142070 -0.116221
C66   C     C_R   0.304601 0.591125 0.442171 0.538860
C67   C     C_R   0.099396 0.813679 0.103340 -0.127001
C68   C     C_R   0.250604 0.725271 0.223520 -0.093674
C69   C     C_R   0.262657 0.715406 0.263663 0.014031
C70   C     C_R   0.193073 0.698510 0.284552 0.039571
C71   C     C_R   0.113650 0.692152 0.264936 -0.129950
C72   C     C_R   0.688522 0.145202 0.887362 -0.011236
C73   C     C_R   0.103742 0.700369 0.225190 -0.124977
C74   C     C_R   0.172592 0.715911 0.204299 0.007945
C75   C     C_R   0.226869 0.581719 0.339158 -0.121518
C76   C     C_R   0.250576 0.556386 0.377808 -0.120940
C77   C     C_R   0.228708 0.724651 0.391246 -0.124652
C78   C     C_R   0.605856 0.300268 0.553775 0.568361
C79   C     C_R   0.204060 0.750188 0.352598 -0.115293
C80   C     C_R   0.207165 0.677348 0.326103 0.027847
C81   C     C_R   0.255457 0.626281 0.403985 0.021723
C82   C     C_R   0.724691 0.098248 0.086942 0.023212
C83   C     C_R   0.553175 0.225220 0.768420 -0.108907
C84   C     C_R   0.802388 0.099874 0.109816 -0.125673
C85   C     C_R   0.785587 0.128152 0.148365 -0.123928
C86   C     C_R   0.690464 0.156927 0.164268 0.028034
C87   C     C_R   0.609781 0.164894 0.140626 -0.115196
C88   C     C_R   0.626981 0.135051 0.102175 -0.123237
C89   C     C_R   0.597060 0.254940 0.222265 -0.114715
C90   C     C_R   0.588893 0.607598 0.558829 0.535455
C91   C     C_R   0.588113 0.264362 0.262036 -0.118145
C92   C     C_R   0.660488 0.186036 0.285841 0.012709
C93   C     C_R   0.739827 0.096731 0.269496 -0.120013
C94   C     C_R   0.553577 0.240181 0.728951 0.002312
C95   C     C_R   0.749684 0.088013 0.229815 -0.116696
C96   C     C_R   0.679099 0.167588 0.206032 0.029336
C97   C     C_R   0.738166 0.196870 0.349884 0.248066
C98   C     C_R   0.725774 0.219338 0.389034 -0.055585
C99   C     C_R   0.551948 0.249498 0.384661 -0.148088
C100  C     C_R   0.564202 0.224074 0.345775 -0.158972
C101  C     C_R   0.655560 0.200522 0.327754 0.018171
C102  C     C_R   0.296356 0.590160 0.551255 0.533875
C103  C     C_R   0.631370 0.251052 0.406268 -0.028038
C104  C     C_R   0.691864 0.690291 0.919618 0.020484
C105  C     C_R   0.618726 0.156389 0.705117 0.059195
C106  C     C_R   0.765480 0.596541 0.903529 -0.128434
C107  C     C_R   0.754035 0.571555 0.865588 -0.124080
C108  C     C_R   0.668882 0.639865 0.843097 0.030918
C109  C     C_R   0.590867 0.729048 0.860292 -0.126382
C110  C     C_R   0.602065 0.753860 0.898250 -0.132176
C111  C     C_R   0.574249 0.651470 0.781266 -0.118469
C112  C     C_R   0.570228 0.650115 0.741244 -0.112750
C113  C     C_R   0.658724 0.621921 0.720256 0.026440
C114  C     C_R   0.737336 0.712631 0.102043 -0.029420
C115  C     C_R   0.752108 0.591692 0.739908 -0.116088
C116  C     C_R   0.681034 0.058082 0.721166 -0.002420
C117  C     C_R   0.756066 0.593592 0.779953 -0.113945
C118  C     C_R   0.666814 0.625040 0.801026 0.028003
C119  C     C_R   0.724044 0.545165 0.655745 -0.059598
C120  C     C_R   0.712720 0.545487 0.615823 0.232847
C121  C     C_R   0.558667 0.714469 0.619772 -0.034917
C122  C     C_R   0.573429 0.712653 0.659694 -0.120109
C123  C     C_R   0.652266 0.626376 0.677943 -0.037352
C124  C     C_R   0.623303 0.625677 0.597535 0.012752
C125  C     C_R   0.063684 0.698579 0.901850 0.023541
C126  C     C_R   0.643699 0.765310 0.121001 -0.057761
Cr1   Cr    Cr6+3 0.426010 0.422500 0.497000 1.026443
Cr2   Cr    Cr6+3 0.651300 0.426310 0.501970 1.067201
Cr3   Cr    Cr6+3 0.422670 0.651170 0.501050 1.008395
Cr4   Cr    Cr6+3 0.905130 0.911420 0.992650 1.008099
Cr5   Cr    Cr6+3 0.911860 0.682710 0.002320 1.010709
Cr6   Cr    Cr6+3 0.682710 0.906840 0.004710 1.014307
H1    H     H_    0.575613 0.823521 0.106219 0.156551
H2    H     H_    0.060498 0.678422 0.280454 0.123193
H3    H     H_    0.897132 0.594177 0.107567 0.139585
H4    H     H_    0.043009 0.693152 0.210552 0.118965
H5    H     H_    0.228459 0.524955 0.319086 0.112353
H6    H     H_    0.271267 0.479879 0.386649 0.129879
H7    H     H_    0.117284 0.877244 0.156962 0.111930
H8    H     H_    0.231187 0.780330 0.410814 0.126508
H9    H     H_    0.878525 0.071509 0.098848 0.123794
H10   H     H_    0.565842 0.134714 0.085024 0.120999
H11   H     H_    0.500679 0.226649 0.329296 0.119328
H12   H     H_    0.492207 0.771566 0.400982 0.141813
H13   H     H_    0.526334 0.333770 0.274309 0.110401
H14   H     H_    0.541572 0.316530 0.204224 0.107132
H15   H     H_    0.848286 0.122733 0.166261 0.109126
H16   H     H_    0.795365 0.035150 0.287534 0.135504
H17   H     H_    0.812161 0.019009 0.217608 0.113757
H18   H     H_    0.788056 0.220011 0.405269 0.160636
H19   H     H_    0.535835 0.187149 0.152523 0.112155
H20   H     H_    0.478316 0.273544 0.397199 0.137681
H21   H     H_    0.835160 0.545534 0.919378 0.121559
H22   H     H_    0.543967 0.826702 0.909766 0.124977
H23   H     H_    0.887640 0.561646 0.175193 0.121333
H24   H     H_    0.521612 0.778196 0.676905 0.116291
H25   H     H_    0.755987 0.495692 0.289702 0.150144
H26   H     H_    0.497701 0.671904 0.726608 0.107229
H27   H     H_    0.504638 0.674794 0.796764 0.103075
H28   H     H_    0.814247 0.501227 0.853252 0.100455
H29   H     H_    0.821137 0.570306 0.724299 0.105243
H30   H     H_    0.828119 0.574723 0.794356 0.103242
H31   H     H_    0.788440 0.479970 0.669467 0.136684
H32   H     H_    0.524647 0.783585 0.843635 0.100113
H33   H     H_    0.089455 0.827857 0.901764 0.121067
H34   H     H_    0.782997 0.496295 0.420080 0.116531
H35   H     H_    0.769212 0.505756 0.220180 0.112727
H36   H     H_    0.046493 0.565172 0.891906 0.126866
H37   H     H_    0.109104 0.560029 0.648241 0.137440
H38   H     H_    0.236207 0.502775 0.709098 0.105024
H39   H     H_    0.219762 0.507374 0.778711 0.100349
H40   H     H_    0.136888 0.806967 0.834538 0.101832
H41   H     H_    0.059364 0.832890 0.706094 0.104312
H42   H     H_    0.039172 0.838094 0.775579 0.102658
H43   H     H_    0.224855 0.768228 0.665225 0.117317
H44   H     H_    0.285642 0.736737 0.599908 0.133927
H45   H     H_    0.156497 0.565498 0.090288 0.126641
H46   H     H_    0.090334 0.546592 0.824567 0.100906
H47   H     H_    0.619589 0.962048 0.895365 0.132711
H48   H     H_    0.764974 0.180688 0.673687 0.098962
H49   H     H_    0.505275 0.289175 0.787031 0.109366
H50   H     H_    0.728716 0.971049 0.773330 0.122835
H51   H     H_    0.488719 0.172968 0.646639 0.125672
H52   H     H_    0.676973 0.812498 0.302180 0.110908
H53   H     H_    0.485407 0.231810 0.581764 0.144984
H54   H     H_    0.675087 0.224286 0.834951 0.112032
H55   H     H_    0.688430 0.822595 0.232515 0.135459
H56   H     H_    0.064547 0.887080 0.089144 0.123357
H57   H     H_    0.545239 0.787798 0.337632 0.112988
H58   H     H_    0.398667 0.646099 0.300085 0.143521
H59   H     H_    0.404286 0.721128 0.261993 0.125232
H60   H     H_    0.325684 0.784792 0.302375 0.130214
H61   H     H_    0.897739 0.448461 0.372731 0.324958
H62   H     H_    0.819412 0.192292 0.306634 0.331985
H63   H     H_    0.796557 0.491533 0.571269 0.330180
H64   H     H_    0.405881 0.802410 0.595015 0.154015
H65   H     H_    0.446822 0.877494 0.622719 0.111208
H66   H     H_    0.500005 0.831795 0.576487 0.150196
H67   H     H_    0.185651 0.825573 0.343181 0.118903
H68   H     H_    0.543104 0.768928 0.200668 0.327199
H69   H     H_    0.147520 0.543490 0.549464 0.335946
H70   H     H_    0.689983 0.232134 0.937120 0.134341
H71   H     H_    0.814528 0.150745 0.916307 0.157858
H72   H     H_    0.723672 0.268511 0.893626 0.116511
H73   H     H_    0.431001 0.345739 0.691479 0.138053
H74   H     H_    0.442720 0.402951 0.735712 0.120681
H75   H     H_    0.535151 0.372227 0.699020 0.149258
H76   H     H_    0.490575 0.996157 0.838227 0.122489
H77   H     H_    0.528527 0.018813 0.793127 0.143482
H78   H     H_    0.303999 0.736461 0.207028 0.120074
H79   H     H_    0.614996 0.905495 0.819905 0.136985
H80   H     H_    0.745739 0.980975 0.666444 0.147763
H81   H     H_    0.832295 0.936555 0.707372 0.127896
H82   H     H_    0.732344 0.903881 0.701577 0.134296
H83   H     H_    0.830894 0.228722 0.626438 0.323412
H84   H     H_    0.206781 0.557423 0.157875 0.109534
O1    O     O_R   0.324990 0.503440 0.453910 -0.519775
O2    O     O_R   0.675430 0.831160 0.051290 -0.516931
O3    O     O_R   0.698870 0.998880 0.039560 -0.497544
O4    O     O_R   0.522030 0.339050 0.458320 -0.501645
O5    O     O_R   0.811290 0.006780 0.950620 -0.513972
O6    O     O_R   0.980960 0.812920 0.953200 -0.500313
O7    O     O_R   0.001480 0.656720 0.955830 -0.520680
O8    O     O_R   0.809240 0.683250 0.968050 -0.501804
O9    O     O_R   0.652500 0.818540 0.967340 -0.521941
O10   O     O_R   0.677620 0.987170 0.961730 -0.506329
O11   O     O_3   0.833240 0.833660 0.999890 -0.235631
O12   O     O_R   0.639980 0.519500 0.542640 -0.471441
O13   O     O_R   0.676180 0.324490 0.458320 -0.521677
O14   O     O_R   0.643570 0.521510 0.464260 -0.505546
O15   O     O_R   0.504630 0.675350 0.460920 -0.517672
O16   O     O_R   0.339850 0.642450 0.459830 -0.501402
O17   O     O_R   0.321120 0.501280 0.538470 -0.491394
O18   O     O_R   0.518440 0.337050 0.536710 -0.518497
O19   O     O_R   0.672300 0.322330 0.542880 -0.423429
O20   O     O_3   0.859595 0.500181 0.352574 -0.705215
O21   O     O_3   0.829343 0.178369 0.334469 -0.709822
O22   O     O_3   0.789213 0.464737 0.595938 -0.655384
O23   O     O_R   0.500750 0.673190 0.545480 -0.525022
O24   O     O_3   0.542104 0.801120 0.176121 -0.714463
O25   O     O_3   0.152601 0.522377 0.576508 -0.688710
O26   O     O_3   0.780781 0.244716 0.604849 -0.642104
O27   O     O_R   0.336260 0.640450 0.538210 -0.506687
O28   O     O_3   0.499990 0.499990 0.500010 -0.246123
O29   O     O_R   0.834210 0.019400 0.034570 -0.522633
O30   O     O_R   0.002210 0.824620 0.031030 -0.501903
O31   O     O_R   0.024400 0.669340 0.039790 -0.519773
O32   O     O_R   0.830490 0.694950 0.045870 -0.498008

loop_
_geom_bond_atom_site_label_1
_geom_bond_atom_site_label_2
_ccdc_geom_bond_type
C56   C59   A    
C99   C103  A    
C87   C88   A    
C94   C105  A    
Cr2   O13   S    
C55   C59   A    
C34   O26   S    
C18   C21   A    
C73   C74   A    
C31   C116  S    
C105  C116  A    
C95   C96   A    
C27   H65   S    
C77   H8    S    
C7    H36   S    
C68   H78   S    
C119  C123  A    
C62   H45   S    
C104  C106  A    
C107  H28   S    
Cr4   O30   S    
H69   O25   S    
C31   H82   S    
C85   C86   A    
C108  C109  A    
Cr3   O16   S    
Cr1   O1    S    
C24   C36   A    
C112  H26   S    
C90   O23   A    
C111  C118  A    
C102  O27   A    
C90   O12   A    
C16   C20   A    
C34   C35   A    
C66   O1    A    
C98   H18   S    
C29   C94   S    
C114  C126  A    
C17   H44   S    
C65   C67   A    
C106  C107  A    
C38   O31   A    
C68   C74   A    
C98   C103  A    
C34   C37   A    
C66   O16   A    
C35   H48   S    
C13   C50   S    
C29   H73   S    
C56   C57   A    
C83   H49   S    
C93   H16   S    
C60   C62   A    
C18   C19   A    
C2    H50   S    
C32   C39   A    
C88   H10   S    
C43   O9    A    
C2    C13   A    
C111  H27   S    
C25   C50   A    
C100  C101  A    
C121  C124  A    
H63   O22   S    
C42   C125  S    
C41   O3    A    
C14   C39   A    
C43   C104  S    
C2    C116  A    
C40   C114  S    
C31   H80   S    
C111  C112  A    
C60   C67   A    
C10   C20   S    
C8    C9    A    
C49   C51   A    
C78   O19   A    
C107  C108  A    
C12   C15   A    
Cr5   O8    S    
C95   H17   S    
C63   H84   S    
C89   C91   A    
C9    C10   A    
C1    C103  S    
H61   O20   S    
C23   H47   S    
C8    H39   S    
C78   O18   A    
C40   O2    A    
C44   H3    S    
C53   C55   A    
C39   C52   S    
C44   C114  A    
C93   C95   A    
C87   H19   S    
Cr3   O23   S    
C24   H51   S    
C9    H38   S    
C28   C72   S    
C27   H66   S    
C122  H24   S    
C71   H2    S    
C1    O13   A    
C22   C72   A    
C112  C113  A    
C40   O32   A    
Cr4   O29   S    
Cr1   O4    S    
C97   C98   A    
C54   C59   S    
C77   C79   A    
C26   H58   S    
C89   H14   S    
C11   H41   S    
Cr1   O17   S    
C46   H35   S    
C70   C80   S    
C51   C52   A    
C28   H72   S    
C11   C12   A    
C108  C118  S    
Cr4   O6    S    
C79   H67   S    
C84   C85   A    
C126  H1    S    
C75   H5    S    
Cr6   O11   S    
C119  H31   S    
C91   C92   A    
C71   C73   A    
C26   H60   S    
C86   C87   A    
C68   C69   A    
Cr3   O27   S    
C46   C52   A    
C115  C117  A    
C83   C94   A    
C100  H11   S    
C33   C37   A    
C29   H74   S    
C63   C64   A    
C35   C36   A    
C115  H29   S    
C75   C76   A    
H68   O24   S    
C62   C63   A    
C110  H22   S    
C75   C80   A    
Cr6   O10   S    
C49   H52   S    
C47   C48   A    
C113  C123  S    
C73   H4    S    
C77   C81   A    
Cr2   O12   S    
C106  H21   S    
C30   H76   S    
C26   H59   S    
H83   O26   S    
C32   C44   A    
C7    C125  A    
C119  C120  A    
C14   O24   S    
C121  C122  A    
C70   C71   A    
C86   C96   S    
C92   C101  S    
C38   C60   S    
C21   C102  S    
C16   H43   S    
C61   C72   A    
C48   C49   A    
Cr4   O11   S    
C8    C15   A    
C82   C84   A    
C10   C11   A    
Cr2   O28   S    
C61   H54   S    
C6    H46   S    
C3    C4    A    
C54   O15   A    
C91   H13   S    
C57   O20   S    
C18   O25   S    
C67   H56   S    
C3    H33   S    
C12   H42   S    
C47   H25   S    
C25   C30   S    
C26   C69   S    
C13   C83   A    
C46   C47   A    
C30   H77   S    
Cr2   O14   S    
C55   H12   S    
C4    H40   S    
C41   O29   A    
C36   C105  S    
C28   H71   S    
C90   C124  S    
Cr4   O5    S    
Cr1   O28   S    
C19   H37   S    
C4    C5    A    
C109  H32   S    
C29   H75   S    
C76   C81   A    
Cr5   O7    S    
C53   C58   A    
C3    C125  A    
C48   C58   S    
C6    C7    A    
C31   H81   S    
Cr3   O28   S    
C76   H6    S    
C117  H30   S    
C97   O21   S    
C99   H20   S    
Cr3   O15   S    
C117  C118  A    
C24   C33   A    
C14   C126  A    
C99   C100  A    
C42   O7    A    
Cr6   O3    S    
C28   H70   S    
C64   C65   A    
C19   C20   A    
C85   H15   S    
C32   H23   S    
C45   O5    A    
C42   O6    A    
C109  C110  A    
Cr5   O31   S    
C66   C81   S    
C104  C110  A    
Cr1   O18   S    
C57   C58   A    
C5    C6    A    
C84   H9    S    
Cr2   O19   S    
C30   H79   S    
C82   C88   A    
C41   C82   S    
C92   C93   A    
C43   O8    A    
C1    O4    A    
Cr6   O2    S    
C45   O10   A    
C23   C25   A    
H62   O21   S    
C69   C70   A    
C17   C21   A    
C5    C15   S    
C51   H55   S    
Cr5   O32   S    
C79   C80   A    
C65   H7    S    
Cr5   O11   S    
C22   C45   S    
C102  O17   A    
C56   H34   S    
C27   C121  S    
C50   C61   A    
C64   C74   S    
C22   C23   A    
C33   H53   S    
C27   H64   S    
C89   C96   A    
C122  C123  A    
Cr6   O9    S    
C37   C78   S    
C53   H57   S    
C54   O14   A    
C97   C101  A    
C120  C124  A    
C16   C17   A    
C120  O22   S    
C113  C115  A    
C38   O30   A    
