data_mof_unit_31253.cif
_audit_creation_date              2012-12-11T18:13:20-0500
_audit_creation_method            fapswitch 2.2
_symmetry_space_group_name_H-M    P1
_symmetry_Int_Tables_number       1
_space_group_crystal_system       triclinic
_cell_length_a                    8.170245
_cell_length_b                    12.65826
_cell_length_c                    18.691988
_cell_angle_alpha                 99.474784
_cell_angle_beta                  91.067336
_cell_angle_gamma                 98.700951
_cell_volume                      1882.95026426

loop_
_atom_site_label
_atom_site_type_symbol
_atom_type_description
_atom_site_fract_x
_atom_site_fract_y
_atom_site_fract_z
_atom_type_partial_charge
Ba1   Ba    Ba6+2 0.852780 0.548340 0.465070 1.638825
Ba2   Ba    Ba6+2 0.337060 0.451750 0.534940 1.646293
C1    C     C_3   0.578248 0.897508 0.249541 -0.400347
C2    C     C_3   0.631559 0.820609 0.296731 0.341929
C3    C     C_3   0.460852 0.273165 0.314239 0.312269
C4    C     C_3   0.437645 0.235447 0.232667 -0.400888
C5    C     C_3   0.005319 0.192385 0.732893 0.414645
C6    C     C_3   0.070724 0.206643 0.811550 0.377523
C7    C     C_3   0.547368 0.178074 0.710469 0.395167
C8    C     C_3   0.569646 0.097825 0.760834 -0.402446
C9    C     C_R   0.997092 0.442950 0.046895 0.015790
C10   C     C_R   0.896168 0.388682 0.094202 0.031518
C11   C     C_R   0.734757 0.338598 0.070549 -0.084091
C12   C     C_3   0.128967 0.761236 0.264739 0.361991
C13   C     C_R   0.673844 0.342040 0.000764 -0.093317
C14   C     C_R   0.774044 0.394180 0.952785 0.035474
C15   C     C_R   0.936462 0.444689 0.975647 0.023102
C16   C     C_R   0.713910 0.395799 0.882357 -0.129933
C17   C     C_R   0.815051 0.444419 0.832602 -0.054019
C18   C     C_R   0.977645 0.497296 0.855687 -0.014568
C19   C     C_R   0.037183 0.497774 0.927675 -0.004841
C20   C     C_R   0.759222 0.441249 0.760212 -0.014951
C21   C     C_R   0.867090 0.484386 0.711270 -0.271569
C22   C     C_R   0.024185 0.542155 0.733542 0.055525
C23   C     C_3   0.109188 0.785805 0.188335 -0.357303
C24   C     C_R   0.079477 0.551475 0.807544 -0.039655
C25   C     C_R   0.158176 0.495034 0.070667 0.011144
C26   C     C_R   0.216661 0.495694 0.142823 0.001392
C27   C     C_R   0.112517 0.444244 0.191594 -0.043504
C28   C     C_R   0.956083 0.386637 0.164798 -0.045248
C29   C     C_R   0.233450 0.612037 0.835061 -0.030237
C30   C     C_R   0.294709 0.609263 0.905432 -0.015308
C31   C     C_R   0.197351 0.551325 0.951789 -0.004599
C32   C     C_R   0.258809 0.549128 0.022838 -0.043294
C33   C     C_R   0.453186 0.663723 0.929755 -0.143935
C34   C     C_3   0.232644 0.787876 0.619497 0.275938
C35   C     C_R   0.519926 0.658407 0.999275 0.421228
C36   C     C_R   0.420295 0.601864 0.046237 -0.006153
C37   C     C_R   0.378954 0.548358 0.166054 -0.066537
C38   C     C_R   0.479759 0.598149 0.116740 -0.088260
C39   C     C_R   0.434349 0.551874 0.238618 -0.005497
C40   C     C_R   0.326680 0.508509 0.287471 -0.292275
C41   C     C_R   0.167589 0.454002 0.265681 0.040421
C42   C     C_R   0.762661 0.183640 0.532327 -0.265578
C43   C     C_R   0.428892 0.807315 0.469646 -0.286195
C44   C     C_R   0.402492 0.984699 0.445177 -0.107245
C45   C     C_3   0.241269 0.910035 0.634874 -0.332365
C46   C     C_R   0.338132 0.875962 0.440556 -0.014576
C47   C     C_R   0.577839 0.848323 0.509549 0.068102
C48   C     C_R   0.641838 0.960740 0.518272 -0.054194
C49   C     C_R   0.553568 0.028915 0.484119 -0.062290
C50   C     C_R   0.616871 0.140147 0.491032 0.046217
C51   C     C_R   0.854848 0.117246 0.562957 -0.039136
C52   C     C_R   0.792369 0.007020 0.558279 -0.097490
C53   C     C_3   0.959891 0.213522 0.382243 0.283090
C54   C     C_3   0.931019 0.090586 0.365349 -0.365510
C55   C     C_3   0.728565 0.705812 0.682524 0.325864
C56   C     C_3   0.754330 0.743616 0.764090 -0.419822
H1    H     H_    0.720286 0.867159 0.340518 0.073863
H2    H     H_    0.330058 0.944584 0.681090 0.118002
H3    H     H_    0.283147 0.945499 0.586831 0.079805
H4    H     H_    0.117348 0.931068 0.648780 0.136359
H5    H     H_    0.846205 0.242492 0.402493 0.003157
H6    H     H_    0.060837 0.239805 0.424576 0.083613
H7    H     H_    0.825014 0.062551 0.325560 0.112134
H8    H     H_    0.902994 0.056301 0.415249 0.088876
H9    H     H_    0.043547 0.061270 0.342367 0.149747
H10   H     H_    0.843496 0.679794 0.660765 0.007773
H11   H     H_    0.625444 0.636568 0.672389 0.068775
H12   H     H_    0.518028 0.960430 0.282996 0.098211
H13   H     H_    0.866803 0.805990 0.775891 0.113559
H14   H     H_    0.769913 0.674582 0.791796 0.048445
H15   H     H_    0.645231 0.778902 0.785818 0.119799
H16   H     H_    0.520020 0.785444 0.322834 -0.054902
H17   H     H_    0.489023 0.851555 0.205773 0.119912
H18   H     H_    0.342250 0.295142 0.335206 0.016035
H19   H     H_    0.559003 0.345559 0.324551 0.059663
H20   H     H_    0.334792 0.166021 0.220542 0.128503
H21   H     H_    0.407615 0.302465 0.205762 0.057013
H22   H     H_    0.553402 0.209635 0.210722 0.119463
H23   H     H_    0.687436 0.937327 0.224195 0.137950
H24   H     H_    0.146507 0.719912 0.148225 0.070779
H25   H     H_    0.971255 0.271335 0.724117 -0.120723
H26   H     H_    0.894556 0.128890 0.724178 -0.078263
H27   H     H_    0.175300 0.275215 0.820755 0.079169
H28   H     H_    0.973557 0.231276 0.849168 -0.102207
H29   H     H_    0.671344 0.209322 0.692214 -0.109359
H30   H     H_    0.470078 0.135343 0.661763 0.071231
H31   H     H_    0.656692 0.137986 0.807047 0.094128
H32   H     H_    0.619927 0.027381 0.730790 0.076881
H33   H     H_    0.045968 0.684564 0.268368 0.096605
H34   H     H_    0.449098 0.068591 0.782885 0.175672
H35   H     H_    0.654751 0.297541 0.106297 0.062708
H36   H     H_    0.548364 0.303210 0.984144 0.079333
H37   H     H_    0.824562 0.477893 0.655340 0.063117
H38   H     H_    0.588182 0.357565 0.866957 0.111348
H39   H     H_    0.877257 0.341483 0.198711 0.097226
H40   H     H_    0.309555 0.659920 0.801721 0.096565
H41   H     H_    0.524231 0.710741 0.894326 0.055908
H42   H     H_    0.604990 0.636002 0.133155 0.157501
H43   H     H_    0.259201 0.750334 0.274084 -0.074928
H44   H     H_    0.369414 0.514428 0.343330 0.071827
H45   H     H_    0.329298 0.033764 0.419988 0.105658
H46   H     H_    0.865309 0.958907 0.584322 0.098020
H47   H     H_    0.811164 0.268884 0.536017 0.062657
H48   H     H_    0.378076 0.722299 0.465021 0.071628
H49   H     H_    0.978060 0.792329 0.175937 0.167516
H50   H     H_    0.188423 0.863429 0.183390 0.108447
H51   H     H_    0.356036 0.767954 0.605522 0.001661
H52   H     H_    0.142410 0.755356 0.573164 0.077454
O1    O     O_2   0.873090 0.425890 0.325140 -0.464930
O2    O     O_3   0.691099 0.792269 0.650677 -0.643850
O3    O     O_3   0.086879 0.847279 0.314961 -0.599111
O4    O     O_2   0.316610 0.574140 0.674900 -0.464973
O5    O     O_3   0.067290 0.565720 0.585630 -0.498934
O6    O     O_3   0.530210 0.372990 0.631200 -0.465910
O7    O     O_3   0.185690 0.747052 0.682342 -0.641247
O8    O     O_3   0.611340 0.366290 0.463630 -0.477947
O9    O     O_3   0.108550 0.314140 0.595200 -0.461725
O10   O     O_2   0.194618 0.121906 0.549920 -0.485134
O11   O     O_3   0.126608 0.159684 0.685767 -0.568456
O12   O     O_3   0.122420 0.434370 0.414380 -0.496504
O13   O     O_3   0.578370 0.633800 0.536380 -0.489497
O14   O     O_2   0.341510 0.231850 0.465510 -0.468607
O15   O     O_3   0.506732 0.188802 0.346423 -0.650278
O16   O     O_2   0.423062 0.459715 0.756746 -0.484665
O17   O     O_3   0.465055 0.259023 0.747608 -0.571118
O18   O     O_3   0.659500 0.627100 0.368810 -0.472052
O19   O     O_2   0.776147 0.546454 0.243550 -0.495538
O20   O     O_3   0.000600 0.253067 0.318368 -0.639583
O21   O     O_3   0.711162 0.743391 0.253545 -0.592233
O22   O     O_2   0.848200 0.768190 0.534530 -0.473273
O23   O     O_3   0.081160 0.685950 0.404810 -0.487583
O24   O     O_2   0.999913 0.879498 0.449436 -0.483816
P1    P     P_3+3 0.041040 0.394770 0.336330 0.970844
P2    P     P_3+3 0.672880 0.754030 0.556100 0.969533
P3    P     P_3+3 0.127114 0.823889 0.402893 0.950721
P4    P     P_3+3 0.148670 0.605320 0.663680 0.973907
P5    P     P_3+3 0.068263 0.175362 0.598160 0.971416
P6    P     P_3+3 0.644787 0.614731 0.274875 0.952545
P7    P     P_3+3 0.523046 0.230012 0.440675 0.933821
P8    P     P_3+3 0.545487 0.384703 0.725140 0.970004
O25   O     O_3   0.131377 0.112473 0.825101 -0.626405
C57   C     C_3   0.006596 0.042991 0.853209 0.165792
H53   H     H_    0.896007 0.018189 0.815233 0.024280
H54   H     H_    0.970936 0.081583 0.907312 0.035587
H55   H     H_    0.056173 0.968391 0.860524 0.063015
O26   O     O_3   0.674716 0.715154 0.025991 -0.651112
C58   C     C_3   0.793567 0.716391 0.972149 0.157883
H56   H     H_    0.787199 0.785173 0.942728 0.035267
H57   H     H_    0.780033 0.638623 0.933454 0.030547
H58   H     H_    0.918768 0.729005 0.999135 0.069735

loop_
_geom_bond_atom_site_label_1
_geom_bond_atom_site_label_2
_ccdc_geom_bond_type
C5    H25   S    
C53   C54   S    
O23   P3    S    
C16   H38   S    
C39   C40   A    
C17   C18   A    
Ba1   O18   S    
Ba1   O22   S    
O1    P1    D    
C45   H4    S    
Ba2   O8    S    
C5    C6    S    
C37   C39   A    
C42   H47   S    
C28   H39   S    
C7    O17   S    
C46   P3    S    
C52   H46   S    
C26   C27   A    
C33   C35   A    
O2    P2    S    
C16   C17   A    
C58   H57   S    
C7    H30   S    
C3    C4    S    
C33   H41   S    
C56   H13   S    
C4    H20   S    
C55   O2    S    
C19   C31   A    
C13   C14   A    
C2    H1    S    
C34   C45   S    
C6    H27   S    
C29   H40   S    
Ba1   O12   S    
C39   P6    S    
O21   P6    S    
C45   H2    S    
Ba2   O6    S    
C42   C51   A    
O20   P1    S    
C8    H31   S    
O15   P7    S    
C14   C15   A    
C53   H5    S    
C1    H23   S    
C21   C22   A    
C17   C20   A    
C43   C47   A    
Ba1   P2    S    
C1    H17   S    
C7    C8    S    
C2    H16   S    
C42   C50   A    
C5    H26   S    
C8    H34   S    
C24   C29   A    
C35   O26   S    
C51   P5    S    
C27   C41   A    
O24   P3    D    
C57   H55   S    
Ba1   O23   S    
C40   H44   S    
C48   C49   A    
C2    O21   S    
Ba2   O12   S    
C25   C32   A    
O12   P1    S    
C44   C46   A    
C49   C50   A    
Ba2   P4    S    
C30   C33   A    
C1    H12   S    
O26   C58   S    
C57   H54   S    
C58   H58   S    
C37   C38   A    
C12   H43   S    
C26   C37   A    
C22   P4    S    
Ba2   O13   S    
O8    P7    S    
C56   H15   S    
C44   C49   A    
O16   P8    D    
C15   C19   A    
C11   H35   S    
O17   P8    S    
Ba1   O13   S    
C45   H3    S    
C35   C36   A    
Ba2   O5    S    
C5    O11   S    
C4    H22   S    
C29   C30   A    
O5    P4    S    
C9    C25   A    
C27   C28   A    
O22   P2    D    
C53   O20   S    
C53   H6    S    
C20   P8    S    
C31   C32   A    
O10   P5    D    
C48   C52   A    
C10   C11   A    
C41   P1    S    
C34   O7    S    
O6    P8    S    
C47   P2    S    
C11   C13   A    
C34   H52   S    
C23   H24   S    
O3    P3    S    
O14   P7    D    
C40   C41   A    
C55   H10   S    
C3    H19   S    
C1    C2    S    
C12   O3    S    
C34   H51   S    
C43   H48   S    
C23   H49   S    
C43   C46   A    
C9    C15   A    
C10   C28   A    
C32   C36   A    
C22   C24   A    
C57   H53   S    
O7    P4    S    
C38   H42   S    
C9    C10   A    
C51   C52   A    
C54   H7    S    
Ba2   O14   S    
C54   H9    S    
C44   H45   S    
C50   P7    S    
O13   P2    S    
O9    P5    S    
C30   C31   A    
O11   P5    S    
C3    H18   S    
O18   P6    S    
C58   H56   S    
C7    H29   S    
C36   C38   A    
Ba2   O4    S    
C56   H14   S    
C55   C56   S    
O19   P6    D    
C18   C24   A    
C54   H8    S    
Ba1   Ba2   S    
Ba2   O9    S    
C21   H37   S    
C6    O25   S    
C6    H28   S    
Ba1   O8    S    
O4    P4    D    
C12   C23   S    
C12   H33   S    
C4    H21   S    
C13   H36   S    
C18   C19   A    
C8    H32   S    
C14   C16   A    
C47   C48   A    
C3    O15   S    
C25   C26   A    
C20   C21   A    
Ba1   O5    S    
C55   H11   S    
Ba1   P1    S    
Ba1   O1    S    
O25   C57   S    
C23   H50   S    
