data_mof_unit_10903.cif
_audit_creation_date              2012-10-26T20:22:03-0400
_audit_creation_method            fapswitch 2.2
_symmetry_space_group_name_H-M    P1
_symmetry_Int_Tables_number       1
_space_group_crystal_system       triclinic
_cell_length_a                    10.791535
_cell_length_b                    9.536432
_cell_length_c                    10.639122
_cell_angle_alpha                 89.762544
_cell_angle_beta                  90.01508
_cell_angle_gamma                 89.617285
_cell_volume                      1094.86731816

loop_
_atom_site_label
_atom_site_type_symbol
_atom_type_description
_atom_site_fract_x
_atom_site_fract_y
_atom_site_fract_z
_atom_type_partial_charge
C1    C     C_R   0.871454 0.498246 0.498302 0.044725
C2    C     C_3   0.393373 0.443767 0.042320 -0.148441
C3    C     C_3   0.404425 0.575397 0.958692 0.231029
C4    C     C_3   0.595576 0.424603 0.041307 0.231030
C5    C     C_3   0.500001 0.499471 0.877251 0.010710
C6    C     C_3   0.500000 0.500529 0.122748 0.010713
C7    C     C_R   0.427723 0.075273 0.417530 0.038634
C8    C     C_R   0.572277 0.924727 0.582470 0.038634
C9    C     C_R   0.572224 0.073421 0.582509 0.028984
C10   C     C_R   0.427776 0.926579 0.417491 0.028984
C11   C     C_R   0.064730 0.449679 0.608031 0.000179
C12   C     C_R   0.128547 0.501753 0.501697 0.044726
C13   C     C_R   0.935271 0.550323 0.391969 0.000185
C14   C     C_R   0.934418 0.447004 0.605760 -0.019415
C15   C     C_R   0.065583 0.552985 0.394237 -0.019415
C16   C     C_3   0.134055 0.399871 0.724646 -0.353287
C17   C     C_3   0.865948 0.600150 0.275359 -0.353299
C18   C     C_3   0.859778 0.392480 0.717107 -0.359486
C19   C     C_3   0.140223 0.607485 0.282885 -0.359490
C20   C     C_R   0.262615 0.500502 0.500845 0.546420
C21   C     C_R   0.737385 0.499498 0.499155 0.546424
C22   C     C_R   0.499957 0.500225 0.259365 0.562314
C23   C     C_R   0.500044 0.499775 0.740635 0.562309
C24   C     C_3   0.509847 0.633133 0.040767 -0.118406
C25   C     C_3   0.490155 0.366867 0.959233 -0.118408
C26   C     C_3   0.606628 0.556233 0.957680 -0.148440
Cl1   Cl    Cl    0.277554 0.678299 0.902646 -0.633618
Cl2   Cl    Cl    0.722447 0.321702 0.097355 -0.633611
Cu1   Cu    Cu3+1 0.500000 0.640660 0.500000 0.969520
Cu2   Cu    Cu3+1 0.500000 0.359340 0.500000 0.969522
H1    H     H_    0.369701 0.131908 0.351442 0.119653
H2    H     H_    0.103461 0.461655 0.807311 0.177809
H3    H     H_    0.115534 0.286902 0.741186 0.135021
H4    H     H_    0.764299 0.587662 0.280097 0.172591
H5    H     H_    0.884496 0.713111 0.258817 0.135021
H6    H     H_    0.896516 0.538356 0.192692 0.177813
H7    H     H_    0.807506 0.298004 0.688794 0.151159
H8    H     H_    0.915195 0.361962 0.800280 0.151975
H9    H     H_    0.793476 0.474502 0.748551 0.128692
H10   H     H_    0.192489 0.701968 0.311178 0.151160
H11   H     H_    0.206528 0.525462 0.251463 0.128684
H12   H     H_    0.630298 0.868092 0.648558 0.119653
H13   H     H_    0.084807 0.637967 0.199703 0.151980
H14   H     H_    0.630030 0.128538 0.648745 0.110017
H15   H     H_    0.369969 0.871461 0.351256 0.110023
H16   H     H_    0.516852 0.742217 0.076012 0.151369
H17   H     H_    0.483149 0.257783 0.923988 0.151369
H18   H     H_    0.694042 0.602031 0.921718 0.126188
H19   H     H_    0.305959 0.397969 0.078281 0.126189
H20   H     H_    0.235701 0.412400 0.719920 0.172598
N1    N     N_R   0.500000 0.852070 0.500000 -0.225362
N2    N     N_R   0.500000 0.147930 0.500000 -0.225361
O1    O     O_R   0.319640 0.618740 0.499990 -0.488843
O2    O     O_R   0.680360 0.381260 0.500010 -0.488843
O3    O     O_R   0.680360 0.618740 0.500010 -0.514743
O4    O     O_R   0.319640 0.381260 0.499990 -0.514738
O5    O     O_R   0.499970 0.618770 0.316850 -0.525926
O6    O     O_R   0.500030 0.381230 0.683150 -0.525924
O7    O     O_R   0.500030 0.618770 0.683150 -0.469475
O8    O     O_R   0.499970 0.381230 0.316850 -0.469475

loop_
_geom_bond_atom_site_label_1
_geom_bond_atom_site_label_2
_ccdc_geom_bond_type
C7    C10   A    
C4    C26   S    
C11   C12   A    
C1    C21   S    
Cu1   Cu2   S    
C2    H19   S    
C13   C17   S    
C16   H3    S    
C16   H2    S    
Cu1   O3    S    
C11   C16   S    
C14   C18   S    
C17   H4    S    
C5    C23   S    
C12   C15   A    
C26   H18   S    
C20   O4    A    
C6    C24   S    
C12   C20   S    
C10   H15   S    
C3    Cl1   S    
C2    C3    S    
C18   H8    S    
C3    C5    S    
C24   H16   S    
C23   O7    A    
Cu2   O2    S    
C8    N1    A    
C3    C24   S    
C2    C6    S    
C9    N2    A    
Cu1   O1    S    
C22   O5    A    
C5    C25   S    
C10   N1    A    
Cu2   O6    S    
Cu2   O8    S    
C17   H6    S    
C18   H7    S    
C8    H12   S    
C7    N2    A    
C4    C25   S    
C2    C25   S    
C13   C15   A    
C22   O8    A    
C21   O2    A    
C16   H20   S    
C11   C14   A    
C7    H1    S    
C19   H10   S    
C5    C26   S    
C6    C22   S    
C19   H11   S    
C1    C13   A    
C4    C6    S    
Cu1   N1    S    
C21   O3    A    
C18   H9    S    
Cu2   N2    S    
C25   H17   S    
C20   O1    A    
C9    H14   S    
C1    C14   A    
C17   H5    S    
C4    Cl2   S    
C15   C19   S    
Cu2   O4    S    
C23   O6    A    
Cu1   O7    S    
Cu1   O5    S    
C8    C9    A    
C24   C26   S    
C19   H13   S    
