data_mof_unit_32951.cif
_audit_creation_date              2013-03-05T16:24:34-0500
_audit_creation_method            fapswitch 2.2
_symmetry_space_group_name_H-M    P1
_symmetry_Int_Tables_number       1
_space_group_crystal_system       triclinic
_cell_length_a                    26.701849
_cell_length_b                    15.717064
_cell_length_c                    14.933369
_cell_angle_alpha                 91.243641
_cell_angle_beta                  89.502076
_cell_angle_gamma                 90.557214
_cell_volume                      6265.15875816

loop_
_atom_site_label
_atom_site_type_symbol
_atom_site_description
_atom_site_fract_x
_atom_site_fract_y
_atom_site_fract_z
_atom_type_partial_charge
O1    O     O_R   0.500000 0.376780 0.574460 -0.598508
O2    O     O_R   0.500000 0.623220 0.425540 -0.619454
O3    O     O_R   0.500010 0.376780 0.425520 -0.625299
O4    O     O_R   0.499990 0.623220 0.574480 -0.605664
C1    C     C_R   0.499813 0.337550 0.498993 0.958408
C2    C     C_R   0.499943 0.662561 0.500835 0.886686
O5    O     O_R   0.428750 0.500010 0.574460 -0.609533
O6    O     O_R   0.571250 0.499990 0.425540 -0.614296
O7    O     O_R   0.428760 0.500020 0.425520 -0.578326
O8    O     O_R   0.571240 0.499980 0.574480 -0.593846
C3    C     C_R   0.404730 0.500696 0.500383 0.926715
C4    C     C_R   0.594961 0.498906 0.499489 0.963046
Zn1   Zn    Zn3+2 0.499990 0.500000 0.599450 1.020065
Zn2   Zn    Zn3+2 0.500010 0.500000 0.400550 0.993634
C5    C     C_R   0.186554 0.336560 0.560398 0.594056
C6    C     C_R   0.821567 0.379282 0.420732 0.650933
O9    O     O_2   0.215241 0.309617 0.627740 -0.543623
O10   O     O_2   0.793663 0.371567 0.345976 -0.552914
N1    N     N_R   0.207276 0.378371 0.489273 -0.326315
N2    N     N_R   0.800755 0.411345 0.497943 -0.304254
C7    C     C_R   0.186003 0.361134 0.407332 0.629218
C8    C     C_R   0.827158 0.418256 0.575809 0.604026
C9    C     C_R   0.270225 0.482087 0.425041 0.479302
C10   C     C_R   0.712604 0.370838 0.502183 0.388534
C11   C     C_R   0.320889 0.506906 0.424353 0.366587
C12   C     C_R   0.661601 0.391232 0.494152 0.357290
C13   C     C_R   0.324937 0.476335 0.582112 -0.337708
C14   C     C_R   0.684068 0.541880 0.497349 -0.354859
C15   C     C_R   0.274041 0.454557 0.582329 -0.043658
C16   C     C_R   0.735174 0.522053 0.494645 -0.044055
C17   C     C_R   0.250535 0.436480 0.498845 -0.013301
C18   C     C_R   0.749149 0.435463 0.497713 0.098388
C19   C     C_R   0.107917 0.331435 0.482446 -0.064752
C20   C     C_R   0.900663 0.365712 0.496711 -0.056070
C21   C     C_R   0.135098 0.319554 0.561398 -0.016619
C22   C     C_R   0.871696 0.354740 0.418836 -0.035156
C23   C     C_R   0.110278 0.293692 0.639335 -0.225714
C24   C     C_R   0.892920 0.317651 0.341351 -0.238607
C25   C     C_R   0.133680 0.348046 0.401724 -0.211743
C26   C     C_R   0.878888 0.399426 0.576561 -0.157690
C27   C     C_R   0.349748 0.494350 0.501639 -0.268565
C28   C     C_R   0.647815 0.477338 0.497601 -0.184490
H1    H     H_    0.344889 0.481187 0.644943 0.238781
H2    H     H_    0.672177 0.607633 0.497256 0.200878
H3    H     H_    0.131640 0.277719 0.697900 0.225263
H4    H     H_    0.869498 0.302439 0.284191 0.225257
C29   C     C_R   0.980445 0.348169 0.572506 -0.025658
C30   C     C_R   0.027763 0.330219 0.405025 -0.025487
C31   C     C_R   0.974791 0.321607 0.410857 0.018637
C32   C     C_R   0.030492 0.319146 0.568095 0.020790
C33   C     C_R   0.951710 0.343949 0.493772 -0.009500
C34   C     C_R   0.055465 0.324829 0.484615 -0.004627
C35   C     C_R   0.960830 0.391701 0.648683 0.437408
C36   C     C_R   0.053090 0.354049 0.325414 0.453665
C37   C     C_R   0.909848 0.414371 0.652524 -0.135600
C38   C     C_R   0.106001 0.356211 0.321545 -0.152825
O11   O     O_2   0.802859 0.442111 0.651608 -0.545585
O12   O     O_2   0.215398 0.351745 0.334127 -0.459127
C39   C     C_R   0.057799 0.292114 0.643484 -0.038277
C40   C     C_R   0.943917 0.297912 0.337364 -0.033946
C41   C     C_3   0.547183 0.972085 0.475135 -0.316022
C42   C     C_3   0.453795 0.028579 0.516396 -0.321247
C43   C     C_3   0.513190 0.024351 0.414670 0.591833
C44   C     C_3   0.487788 0.976611 0.577010 0.580353
H5    H     H_    0.584754 0.946592 0.458073 0.161131
H6    H     H_    0.416149 0.053857 0.533480 0.163443
H7    H     H_    0.440529 0.940646 0.385970 0.162568
H8    H     H_    0.560527 0.059923 0.605420 0.163396
C45   C     C_1   0.499883 0.248846 0.496273 -0.155587
C46   C     C_1   0.500146 0.751483 0.502221 -0.175368
C47   C     C_3   0.533986 0.032001 0.555800 -0.309056
C48   C     C_3   0.466974 0.968610 0.435728 -0.312744
C49   C     C_3   0.500250 0.083063 0.493890 0.070805
C50   C     C_3   0.500690 0.917454 0.498090 0.071107
C51   C     C_1   0.500071 0.173669 0.494028 -0.010520
C52   C     C_1   0.500400 0.826749 0.501287 0.004856
C53   C     C_3   0.514117 0.423995 0.967490 0.510661
C54   C     C_3   0.485164 0.573241 0.033212 0.517571
C55   C     C_3   0.546110 0.483196 0.028028 -0.093725
C56   C     C_3   0.453180 0.514335 0.972503 -0.102495
H9    H     H_    0.557629 0.610994 0.947582 0.176542
H10   H     H_    0.441376 0.386906 0.053189 0.182026
N3    N     N_1   0.500020 0.500000 0.268010 -0.099322
N4    N     N_1   0.499980 0.500000 0.731990 -0.083372
C57   C     C_3   0.467613 0.436962 0.029500 -0.393435
C58   C     C_3   0.531621 0.560589 0.971189 -0.385724
C59   C     C_3   0.500009 0.497186 0.090050 -0.072832
C60   C     C_3   0.499359 0.500187 0.910308 -0.079600
C61   C     C_1   0.499969 0.498668 0.189919 0.218176
C62   C     C_1   0.499741 0.500052 0.810181 0.235586
C63   C     C_2   0.598535 0.465275 0.056551 0.920518
O13   O     O_2   0.630853 0.451339 0.999831 -0.580634
O14   O     O_R   0.610323 0.465204 0.147481 -0.829362
H11   H     H_    0.646928 0.452574 0.158097 0.352953
C64   C     C_2   0.400890 0.533503 0.944140 0.937677
O15   O     O_2   0.368235 0.544431 0.000950 -0.581744
O16   O     O_R   0.389700 0.538848 0.853240 -0.814128
H12   H     H_    0.353163 0.552063 0.842681 0.365899
O17   O     O_3   0.531227 0.346759 0.928551 -0.625190
C65   C     C_3   0.528245 0.281572 0.991991 0.087550
H13   H     H_    0.488422 0.262165 0.001877 0.149760
H14   H     H_    0.544380 0.302470 0.057566 0.131405
C66   C     C_3   0.557554 0.204556 0.956909 -0.295252
H15   H     H_    0.542527 0.183463 0.890806 0.224318
H16   H     H_    0.597550 0.222928 0.947756 0.242433
C67   C     C_3   0.554033 0.130693 0.021540 -0.972150
H17   H     H_    0.570080 0.149660 0.087445 0.274469
H18   H     H_    0.575379 0.075697 0.993855 0.268571
H19   H     H_    0.514388 0.110608 0.031089 0.268531
O18   O     O_3   0.468245 0.649300 0.074820 -0.647524
C68   C     C_3   0.467041 0.716197 0.013307 0.089108
H20   H     H_    0.430542 0.748819 0.022101 0.176215
H21   H     H_    0.469230 0.694972 0.941537 0.129075
C69   C     C_3   0.509156 0.779938 0.034701 -0.339780
H22   H     H_    0.505382 0.803030 0.105333 0.227250
H23   H     H_    0.545987 0.748289 0.026813 0.228161
C70   C     C_3   0.507486 0.855778 0.972995 -0.981219
H24   H     H_    0.511068 0.834045 0.901967 0.277166
H25   H     H_    0.538860 0.900323 0.988455 0.266264
H26   H     H_    0.471668 0.890198 0.982758 0.268166
C71   C     C_2   0.245353 0.468525 0.666982 1.021322
O19   O     O_2   0.265688 0.460273 0.739345 -0.595373
O20   O     O_R   0.195378 0.494004 0.663952 -0.849967
H27   H     H_    0.179970 0.502118 0.725790 0.349803
C72   C     C_2   0.772830 0.592410 0.488842 1.000767
O21   O     O_2   0.760528 0.665624 0.506879 -0.613783
O22   O     O_R   0.822069 0.576056 0.461361 -0.815387
H28   H     H_    0.843746 0.629345 0.460204 0.348027
O23   O     O_3   0.624271 0.328933 0.491347 -0.665873
C73   C     C_3   0.628749 0.275503 0.413820 0.061344
H29   H     H_    0.601625 0.222137 0.421726 0.181471
H30   H     H_    0.665986 0.245350 0.407196 0.199393
C74   C     C_3   0.616278 0.321846 0.327365 -0.326667
H31   H     H_    0.579816 0.354290 0.334897 0.269876
H32   H     H_    0.645617 0.370533 0.313503 0.232702
C75   C     C_3   0.613259 0.259605 0.247677 -0.935602
H33   H     H_    0.649198 0.225337 0.238661 0.271793
H34   H     H_    0.605559 0.294781 0.185764 0.280835
H35   H     H_    0.582447 0.212790 0.258159 0.278201
O24   O     O_3   0.342150 0.536034 0.345648 -0.577014
C76   C     C_3   0.350855 0.624827 0.353215 0.082264
H36   H     H_    0.369249 0.643562 0.417523 0.108357
H37   H     H_    0.314808 0.659156 0.348587 0.127054
C77   C     C_3   0.385060 0.652113 0.276113 -0.215038
H38   H     H_    0.420407 0.615576 0.277834 0.246351
H39   H     H_    0.366371 0.637751 0.211213 0.254043
C78   C     C_3   0.397711 0.746964 0.282361 -0.973262
H40   H     H_    0.362998 0.785171 0.279810 0.264260
H41   H     H_    0.422347 0.764453 0.225213 0.282068
H42   H     H_    0.417727 0.762226 0.345706 0.260489
O25   O     O_3   0.727882 0.287688 0.511718 -0.651920
C79   C     C_3   0.718479 0.262986 0.600678 0.074203
H43   H     H_    0.677455 0.257796 0.613643 0.181886
H44   H     H_    0.735294 0.309416 0.649609 0.182596
C80   C     C_3   0.741934 0.176097 0.614592 -0.330086
H45   H     H_    0.725713 0.129028 0.566047 0.232110
H46   H     H_    0.782984 0.180513 0.602124 0.242662
C81   C     C_3   0.732573 0.145386 0.709577 -0.902943
H47   H     H_    0.749177 0.190900 0.759226 0.280900
H48   H     H_    0.750164 0.082297 0.717521 0.275541
H49   H     H_    0.691725 0.138965 0.722879 0.259541
O26   O     O_3   0.239825 0.507325 0.356053 -0.547510
C82   C     C_3   0.216757 0.585691 0.379953 0.121114
H50   H     H_    0.214837 0.623823 0.318324 0.187606
H51   H     H_    0.238409 0.625045 0.429694 0.073526
C83   C     C_3   0.163301 0.571177 0.415251 -0.367230
H52   H     H_    0.141809 0.532083 0.366044 0.244744
H53   H     H_    0.164301 0.536902 0.479401 0.231680
C84   C     C_3   0.136073 0.655086 0.431063 -0.943587
H54   H     H_    0.155935 0.694838 0.482162 0.274299
H55   H     H_    0.097411 0.642041 0.455492 0.268164
H56   H     H_    0.133798 0.690513 0.367692 0.272136
C85   C     C_2   0.892028 0.458697 0.735284 1.036054
O27   O     O_2   0.875062 0.530538 0.731689 -0.590048
O28   O     O_R   0.897413 0.419848 0.817902 -0.741301
H57   H     H_    0.884913 0.456801 0.869741 0.351952
C86   C     C_2   0.129732 0.373756 0.233478 1.030654
O29   O     O_2   0.157951 0.434794 0.224756 -0.583141
O30   O     O_R   0.117118 0.322738 0.159078 -0.733570
H58   H     H_    0.134618 0.341602 0.102248 0.358403
O31   O     O_3   0.992640 0.418665 0.716893 -0.628751
C87   C     C_3   0.006719 0.505138 0.705563 0.073286
H59   H     H_    0.008099 0.535769 0.773256 0.196700
H60   H     H_    0.979487 0.542383 0.666205 0.126237
C88   C     C_3   0.058774 0.511687 0.662170 -0.358052
H61   H     H_    0.085548 0.472508 0.699644 0.260384
H62   H     H_    0.057209 0.487510 0.591867 0.215689
C89   C     C_3   0.077718 0.603554 0.661752 -0.907212
H63   H     H_    0.051792 0.643761 0.623611 0.263154
H64   H     H_    0.115252 0.606103 0.629335 0.292929
H65   H     H_    0.080932 0.629283 0.731346 0.272019
O32   O     O_3   0.025988 0.382824 0.253326 -0.627465
C90   C     C_3   0.026192 0.473159 0.253277 0.078533
H66   H     H_    0.021720 0.492693 0.182776 0.201026
H67   H     H_    0.062124 0.502293 0.276716 0.117157
C91   C     C_3   0.982506 0.509331 0.308999 -0.377630
H68   H     H_    0.946750 0.480058 0.285707 0.259042
H69   H     H_    0.987633 0.494542 0.380668 0.213068
C92   C     C_3   0.979475 0.605734 0.301086 -0.887903
H70   H     H_    0.014616 0.636448 0.325386 0.261501
H71   H     H_    0.947704 0.629915 0.342485 0.274546
H72   H     H_    0.973285 0.623052 0.230344 0.272379
C93   C     C_2   0.032718 0.255569 0.723511 1.025236
O33   O     O_2   0.054549 0.254283 0.795149 -0.593463
O34   O     O_R   0.984461 0.220763 0.716551 -0.785500
H73   H     H_    0.971468 0.198010 0.775446 0.363848
C94   C     C_2   0.962399 0.244154 0.260957 1.026583
O35   O     O_2   0.940891 0.244399 0.188959 -0.593123
O36   O     O_R   0.003779 0.191602 0.271912 -0.781376
H74   H     H_    0.012734 0.158271 0.215231 0.364260
O37   O     O_3   0.525710 0.057354 0.330153 -0.651554
C95   C     C_3   0.538585 0.991130 0.268810 0.061475
H75   H     H_    0.517927 0.001584 0.205769 0.174218
H76   H     H_    0.527958 0.925998 0.291192 0.127573
C96   C     C_3   0.594806 0.995144 0.248583 -0.349546
H77   H     H_    0.604845 0.058983 0.222992 0.232429
H78   H     H_    0.616079 0.985304 0.311006 0.220659
C97   C     C_3   0.609964 0.927596 0.178915 -0.921836
H79   H     H_    0.600112 0.863007 0.202660 0.266979
H80   H     H_    0.651037 0.931067 0.167124 0.276544
H81   H     H_    0.590763 0.938709 0.114689 0.262194
O38   O     O_3   0.475829 0.946909 0.663130 -0.636684
C98   C     C_3   0.456739 0.014828 0.716282 0.077546
H82   H     H_    0.417268 0.026855 0.697283 0.156404
H83   H     H_    0.479263 0.074461 0.708558 0.135535
C99   C     C_3   0.458085 0.990864 0.814675 -0.333700
H84   H     H_    0.437154 0.930166 0.823981 0.239168
H85   H     H_    0.497657 0.981749 0.834495 0.234669
C100  C     C_3   0.434953 0.059990 0.874839 -0.939365
H86   H     H_    0.455462 0.121229 0.867072 0.269066
H87   H     H_    0.437128 0.041108 0.945894 0.262143
H88   H     H_    0.394979 0.068839 0.857650 0.278664

loop_
_geom_bond_atom_site_label_1
_geom_bond_atom_site_label_2
_geom_bond_distance
_ccdc_geom_bond_type
C54   C59   1.538029 S    
C81   H48   1.110417 S    
C93   O33   1.223390 D    
O14   H11   1.013769 S    
C13   C15   1.398233 A    
C84   H55   1.110588 S    
C84   H54   1.110782 S    
C73   H30   1.108355 S    
C64   O15   1.221986 D    
C96   H77   1.110964 S    
N1    C17   1.471568 S    
C8    O11   1.347713 S    
C55   C59   1.548584 S    
C69   H22   1.112061 S    
C97   H79   1.110985 S    
C98   C99   1.525551 S    
O20   H27   1.013700 S    
C85   O27   1.223138 D    
C19   C34   1.403546 A    
C30   C36   1.418255 A    
C93   O34   1.398759 S    
Zn1   N4    1.979266 S    
C20   C33   1.408627 A    
C100  H86   1.110511 S    
C31   C40   1.419429 A    
C36   O32   1.388585 S    
C89   H65   1.110679 S    
O1    C1    1.272849 A    
C32   C39   1.421491 A    
C82   H51   1.117650 S    
C10   C12   1.408835 A    
O23   C73   1.420280 S    
C100  H88   1.110731 S    
C70   H25   1.109138 S    
C54   C56   1.539511 S    
C88   H62   1.109727 S    
C80   H46   1.111963 S    
C67   H17   1.110492 S    
O16   H12   1.013811 S    
C58   C60   1.558909 S    
C89   H64   1.109995 S    
H7    C48   1.110337 S    
C44   C47   1.537593 S    
C14   C28   1.395376 A    
O4    Zn1   1.980159 S    
C41   C43   1.541086 S    
C87   H59   1.110947 S    
C37   C85   1.482571 S    
C42   C44   1.539852 S    
C81   H49   1.110978 S    
O18   C68   1.411889 S    
C76   H36   1.115023 S    
C66   H16   1.111668 S    
C78   H40   1.110684 S    
C53   C60   1.542038 S    
C14   C16   1.402760 A    
C90   H67   1.114936 S    
C15   C71   1.485749 S    
C92   H72   1.110764 S    
C32   C34   1.412796 A    
O25   C79   1.411851 S    
C95   C96   1.529701 S    
C42   C49   1.539322 S    
C45   C51   1.181368 T    
C66   C67   1.527430 S    
C55   C63   1.497850 S    
H9    C58   1.109649 S    
C6    N2    1.364307 A    
C29   C35   1.413993 A    
C9    O26   1.384255 S    
C54   C58   1.553403 S    
C35   C37   1.410881 A    
C72   O21   1.223489 D    
C16   C72   1.490745 S    
C53   C57   1.554897 S    
C92   H70   1.111167 S    
C70   H26   1.110360 S    
C80   C81   1.526006 S    
C83   H53   1.109851 S    
C49   C51   1.424063 S    
C83   H52   1.108029 S    
O2    C2    1.271382 A    
N4    C62   1.167598 T    
Zn2   N3    1.979266 S    
C77   C78   1.526426 S    
C5    C21   1.397185 A    
O5    C3    1.283823 A    
C29   C32   1.416773 A    
C38   C86   1.484912 S    
C53   C55   1.540870 S    
N3    C61   1.165903 T    
C36   C38   1.413622 A    
C78   H41   1.110623 S    
C24   H4    1.083716 S    
C99   H84   1.111674 S    
C42   H6    1.110081 S    
C57   C59   1.556384 S    
C4    C28   1.454532 S    
C94   O35   1.223426 D    
C69   C70   1.523609 S    
C11   O24   1.385645 S    
O24   C76   1.414806 S    
C98   H82   1.112832 S    
C48   C50   1.544470 S    
C96   C97   1.525262 S    
C11   C27   1.411774 A    
C63   O13   1.221903 D    
C47   C49   1.539813 S    
C77   H38   1.110347 S    
C88   C89   1.525402 S    
C29   C33   1.409554 A    
C43   C49   1.523871 S    
C31   C33   1.417163 A    
O31   C87   1.419873 S    
C43   O37   1.411199 S    
C1    C45   1.393891 S    
C63   O14   1.396578 S    
C14   H2    1.084113 S    
C65   C66   1.528380 S    
C89   H63   1.110845 S    
C76   H37   1.111424 S    
C75   H35   1.110768 S    
C53   O17   1.412809 S    
C5    N1    1.370811 A    
O7    Zn2   1.935521 S    
C10   C18   1.403884 A    
C56   C57   1.552933 S    
C10   O25   1.383501 S    
C35   O31   1.388501 S    
C74   C75   1.526176 S    
C77   H39   1.111746 S    
C13   C27   1.400188 A    
C97   H80   1.110250 S    
O37   C95   1.414497 S    
C7    C25   1.413153 A    
C79   C80   1.526962 S    
N2    C8    1.366828 A    
O6    C4    1.278211 A    
C26   C37   1.423508 A    
C8    C26   1.415649 A    
C82   C83   1.533976 S    
C65   H14   1.114922 S    
O36   H74   1.013777 S    
C44   O38   1.410633 S    
C68   H21   1.116773 S    
C25   C38   1.421347 A    
C19   C25   1.410756 A    
C43   C48   1.540596 S    
C56   C64   1.497883 S    
C72   O22   1.398460 S    
O7    C3    1.284058 A    
C71   O19   1.223527 D    
C23   C39   1.402117 A    
C12   O23   1.390702 S    
O8    C4    1.281663 A    
C24   C40   1.400018 A    
O4    C2    1.273334 A    
C30   C31   1.421707 A    
C79   H44   1.115451 S    
C90   H66   1.110806 S    
C99   H85   1.111234 S    
C59   C61   1.491056 S    
C46   C52   1.183307 T    
C74   H31   1.107161 S    
C100  H87   1.110148 S    
C84   H56   1.110762 S    
C20   C26   1.416772 A    
C76   C77   1.529487 S    
C73   C74   1.536638 S    
O1    Zn1   1.964318 S    
C50   C52   1.427400 S    
C23   H3    1.083629 S    
O22   H28   1.013834 S    
H10   C57   1.109946 S    
C78   H42   1.111068 S    
C80   H45   1.111926 S    
C12   C28   1.405701 A    
C97   H81   1.109431 S    
C92   H71   1.110534 S    
O26   C82   1.419761 S    
N2    C18   1.432762 S    
C2    C46   1.397252 S    
C13   H1    1.083876 S    
O34   H73   1.013775 S    
O6    Zn2   1.941682 S    
C68   H20   1.111075 S    
C21   C23   1.400339 A    
C91   H69   1.110039 S    
C6    O10   1.350159 S    
C85   O28   1.397552 S    
C60   C62   1.495146 S    
C91   H68   1.111083 S    
O3    C1    1.270144 A    
O8    Zn1   1.935521 S    
C69   H23   1.110596 S    
C64   O16   1.396947 S    
C40   C94   1.488566 S    
C5    O9    1.347429 S    
O3    Zn2   1.980161 S    
C41   C50   1.542902 S    
C99   C100  1.526496 S    
C54   O18   1.411602 S    
O17   C65   1.411657 S    
C42   C48   1.553439 S    
O32   C90   1.419777 S    
C96   H78   1.110280 S    
C73   H29   1.110395 S    
C7    O12   1.346572 S    
C56   C60   1.552084 S    
O28   H57   1.013785 S    
C70   H24   1.110866 S    
C6    C22   1.396495 A    
C90   C91   1.533561 S    
C16   C18   1.416469 A    
C98   H83   1.116241 S    
C41   C47   1.553020 S    
C88   H61   1.110829 S    
C81   H47   1.111097 S    
C67   H18   1.110372 S    
H8    C47   1.110367 S    
C22   C24   1.402017 A    
C65   H13   1.112862 S    
C19   C21   1.406696 A    
C86   O30   1.397650 S    
C3    C27   1.470511 S    
C68   C69   1.529965 S    
C20   C22   1.408818 A    
C9    C11   1.404282 A    
C41   H5    1.109447 S    
O38   C98   1.412852 S    
O2    Zn2   1.964317 S    
C87   H60   1.116925 S    
C71   O20   1.398337 S    
C82   H50   1.110929 S    
C95   H76   1.117013 S    
O30   H58   1.013825 S    
C39   C93   1.488299 S    
O5    Zn1   1.941682 S    
C95   H75   1.111311 S    
C83   C84   1.525039 S    
C15   C17   1.422557 A    
C86   O29   1.222574 D    
C75   H34   1.109257 S    
C66   H15   1.111501 S    
C94   O36   1.398780 S    
C74   H32   1.111101 S    
C44   C50   1.524373 S    
C75   H33   1.110751 S    
C79   H43   1.113235 S    
C30   C34   1.409895 A    
C87   C88   1.531973 S    
C55   C58   1.552238 S    
C9    C17   1.421917 A    
C91   C92   1.525306 S    
N1    C7    1.374068 A    
C67   H19   1.110597 S    
