data_mof_unit_13015.cif
_audit_creation_date              2012-12-10T20:36:33-0500
_audit_creation_method            fapswitch 2.2
_symmetry_space_group_name_H-M    P1
_symmetry_Int_Tables_number       1
_space_group_crystal_system       triclinic
_cell_length_a                    10.49882
_cell_length_b                    10.654062
_cell_length_c                    9.908282
_cell_angle_alpha                 90.582115
_cell_angle_beta                  89.160457
_cell_angle_gamma                 90.334982
_cell_volume                      1108.09750684

loop_
_atom_site_label
_atom_site_type_symbol
_atom_type_description
_atom_site_fract_x
_atom_site_fract_y
_atom_site_fract_z
_atom_type_partial_charge
C1    C     C_R   0.493699 0.260129 0.499618 0.862918
C2    C     C_3   0.962402 0.457334 0.375078 -0.202642
C3    C     C_3   0.043617 0.387352 0.477288 0.275717
C4    C     C_3   0.122868 0.505193 0.500514 -0.056164
C5    C     C_R   0.461756 0.065675 0.622070 0.126828
C6    C     C_R   0.468035 0.129025 0.499922 -0.108129
C7    C     C_R   0.446873 0.063619 0.378768 -0.217170
C8    C     C_R   0.447474 0.933678 0.379317 -0.237156
C9    C     C_R   0.469301 0.871262 0.501015 -0.106536
C10   C     C_R   0.462598 0.937535 0.622606 0.142038
C11   C     C_3   0.547284 0.933757 0.742218 -0.499026
C12   C     C_R   0.257684 0.503465 0.500621 0.872723
C13   C     C_3   0.545681 0.075758 0.742253 -0.476449
C14   C     C_R   0.435503 0.409286 0.071501 0.125257
C15   C     C_R   0.577171 0.578374 0.072459 -0.193728
C16   C     C_R   0.580874 0.575814 0.928444 0.240537
C17   C     C_R   0.430918 0.413218 0.930061 0.088238
C18   C     C_3   0.289656 0.387186 0.933602 0.377999
C19   C     C_3   0.298672 0.374020 0.087060 -0.516066
C20   C     C_R   0.494490 0.740057 0.500442 0.872266
C21   C     C_R   0.742283 0.497540 0.498815 0.892600
C22   C     C_3   0.037053 0.544826 0.620106 -0.203077
C23   C     C_3   0.956820 0.423916 0.596982 -0.256643
C24   C     C_3   0.876991 0.496842 0.495743 -0.070204
C25   C     C_3   0.956194 0.614605 0.517947 0.265975
C26   C     C_3   0.043211 0.578042 0.398515 -0.253545
H1    H     H_    0.917054 0.359317 0.674158 0.137820
H2    H     H_    0.440570 0.111564 0.283208 0.172088
N1    N     N_R   0.499140 0.499140 0.142800 -0.107882
N2    N     N_R   0.499140 0.499180 0.857150 -0.130642
O1    O     O_R   0.500020 0.316790 0.614690 -0.635229
O2    O     O_R   0.500000 0.316760 0.385350 -0.611917
O3    O     O_R   0.313960 0.499990 0.614650 -0.613797
O4    O     O_R   0.313940 0.499950 0.385310 -0.623467
O5    O     O_R   0.500000 0.683240 0.614650 -0.604585
O6    O     O_R   0.499980 0.683210 0.385310 -0.630809
O7    O     O_R   0.686060 0.500050 0.614690 -0.588154
O8    O     O_R   0.686040 0.500010 0.385350 -0.627977
Zn1   Zn    Zn3+2 0.500010 0.500020 0.653130 0.952991
Zn2   Zn    Zn3+2 0.499990 0.499980 0.346870 0.934948
H3    H     H_    0.642760 0.894565 0.716940 0.215828
H4    H     H_    0.495211 0.116900 0.831500 0.213349
H5    H     H_    0.640254 0.118374 0.718430 0.202012
H6    H     H_    0.637222 0.643403 0.127404 0.152303
N3    N     N_2   0.668521 0.654620 0.859321 -0.248632
H7    H     H_    0.658644 0.746768 0.889607 0.198382
C27   C     C_3   0.799855 0.616324 0.871654 -0.772379
H8    H     H_    0.831429 0.626266 0.977846 0.204826
H9    H     H_    0.861370 0.677144 0.807855 0.254663
H10   H     H_    0.811933 0.517209 0.838509 0.254812
N4    N     N_2   0.207319 0.490506 0.893740 -0.278146
H11   H     H_    0.112734 0.473088 0.916522 0.225402
C28   C     C_3   0.242986 0.619530 0.925303 -0.820083
H12   H     H_    0.159218 0.681648 0.914468 0.215191
H13   H     H_    0.317078 0.653031 0.853291 0.270842
H14   H     H_    0.276821 0.629582 0.030393 0.234981
N5    N     N_2   0.260051 0.270219 0.863228 -0.308766
H15   H     H_    0.286604 0.270423 0.762633 0.245736
C29   C     C_3   0.134662 0.216274 0.885508 -0.852280
H16   H     H_    0.132871 0.119064 0.844104 0.248967
H17   H     H_    0.061851 0.271708 0.832829 0.235326
H18   H     H_    0.110466 0.212423 0.994800 0.253443
H19   H     H_    0.241924 0.443542 0.146121 0.214736
H20   H     H_    0.288720 0.276207 0.123926 0.193722
H21   H     H_    0.067640 0.587418 0.716143 0.171895
N6    N     N_2   0.900939 0.737488 0.539143 -0.308385
H22   H     H_    0.838815 0.761965 0.464324 0.219568
C30   C     C_3   0.991074 0.835811 0.571690 -0.829745
H23   H     H_    0.939059 0.924532 0.592142 0.242367
H24   H     H_    0.058936 0.850173 0.486056 0.240777
H25   H     H_    0.044582 0.811769 0.663663 0.244188
H26   H     H_    0.082032 0.642505 0.320544 0.149290
H27   H     H_    0.928367 0.420141 0.276854 0.150546
N7    N     N_2   0.099489 0.264772 0.456038 -0.305868
H28   H     H_    0.162089 0.240831 0.530630 0.216976
C31   C     C_3   0.009601 0.165944 0.424836 -0.808100
H29   H     H_    0.061916 0.077441 0.404106 0.244637
H30   H     H_    0.955030 0.189620 0.333452 0.246188
H31   H     H_    0.942764 0.151456 0.511348 0.231933
H32   H     H_    0.441347 0.883554 0.283933 0.171654
H33   H     H_    0.497906 0.892987 0.831734 0.197896

loop_
_geom_bond_atom_site_label_1
_geom_bond_atom_site_label_2
_ccdc_geom_bond_type
N6    C30   S    
C26   H26   S    
C3    C23   S    
C31   H31   S    
C7    C8    A    
C27   H9    S    
N3    H7    S    
C11   H33   S    
O3    Zn1   S    
N7    C31   S    
O4    Zn2   S    
C31   H30   S    
C15   H6    S    
C5    C6    A    
N5    C29   S    
C16   N2    A    
C15   C16   A    
C1    O1    A    
C18   C19   S    
C3    N7    S    
C9    C20   S    
C20   O5    A    
C21   O8    A    
C19   H19   S    
C8    C9    A    
C22   C25   S    
C23   C24   S    
C23   H1    S    
C4    C12   S    
C9    C10   A    
C5    C13   S    
C28   H13   S    
N6    H22   S    
C29   H16   S    
C17   N2    A    
C14   C17   A    
C13   H4    S    
C18   N4    S    
C15   N1    A    
C27   H10   S    
N3    C27   S    
C29   H17   S    
N7    H28   S    
N4    H11   S    
O6    Zn2   S    
C31   H29   S    
C30   H23   S    
C25   C26   S    
C28   H12   S    
C1    O2    A    
C7    H2    S    
C1    C6    S    
N4    C28   S    
O5    Zn1   S    
C22   H21   S    
C4    C22   S    
C18   N5    S    
C27   H8    S    
C19   H20   S    
C17   C18   S    
C2    C26   S    
C24   C25   S    
C2    H27   S    
C2    C24   S    
C14   N1    A    
C12   O4    A    
C3    C4    S    
C13   H5    S    
C28   H14   S    
C29   H18   S    
C14   C19   S    
C25   N6    S    
C16   N3    S    
C4    C26   S    
C6    C7    A    
C2    C3    S    
C5    C10   A    
O7    Zn1   S    
O8    Zn2   S    
C11   C13   S    
N5    H15   S    
C30   H25   S    
N1    Zn2   S    
O1    Zn1   S    
N2    Zn1   S    
C11   H3    S    
O2    Zn2   S    
C10   C11   S    
C20   O6    A    
C21   O7    A    
C30   H24   S    
C21   C24   S    
C8    H32   S    
C22   C23   S    
C12   O3    A    
