data_mof_unit_42328.cif
_audit_creation_date              2012-10-26T19:02:35-0400
_audit_creation_method            fapswitch 2.2
_symmetry_space_group_name_H-M    P1
_symmetry_Int_Tables_number       1
_space_group_crystal_system       triclinic
_cell_length_a                    17.127598
_cell_length_b                    8.676387
_cell_length_c                    7.499402
_cell_angle_alpha                 103.386301
_cell_angle_beta                  89.305317
_cell_angle_gamma                 93.75334
_cell_volume                      1081.84463487

loop_
_atom_site_label
_atom_site_type_symbol
_atom_type_description
_atom_site_fract_x
_atom_site_fract_y
_atom_site_fract_z
_atom_type_partial_charge
C1    C     C_R   0.496756 0.199816 0.453699 0.565586
C2    C     C_R   0.781527 0.630588 0.492193 0.040165
C3    C     C_R   0.140128 0.369817 0.536360 -0.163937
C4    C     C_R   0.861878 0.620931 0.475352 -0.083877
C5    C     C_R   0.105558 0.515422 0.574618 0.025730
C6    C     C_R   0.894053 0.473689 0.415820 0.095051
C7    C     C_R   0.152038 0.659592 0.609340 0.150086
C8    C     C_R   0.845477 0.333211 0.363579 0.164415
C9    C     C_R   0.234203 0.654671 0.599282 0.060484
C10   C     C_R   0.763590 0.342491 0.378038 0.068218
C11   C     C_2   0.019855 0.514046 0.573841 0.099964
C12   C     C_R   0.503045 0.800188 0.546370 0.543860
C13   C     C_2   0.979368 0.469047 0.414127 0.139270
C14   C     C_3   0.091558 0.864756 0.498888 -0.320283
C15   C     C_3   0.903405 0.110911 0.443216 -0.303801
C16   C     C_3   0.378321 0.252619 0.962645 -0.232008
C17   C     C_3   0.621510 0.746532 0.043618 -0.241649
C18   C     C_2   0.492669 0.031351 0.429327 -0.143892
C19   C     C_2   0.506753 0.968670 0.570924 -0.150674
C20   C     C_R   0.351542 0.501938 0.527438 0.623805
C21   C     C_R   0.648532 0.498219 0.472427 0.577867
C22   C     C_R   0.267624 0.507062 0.550897 0.078163
C23   C     C_R   0.732445 0.490652 0.447511 0.044642
C24   C     C_R   0.221014 0.364693 0.522138 0.041350
Cu1   Cu    Cu3+1 0.508700 0.517250 0.683000 0.995520
Cu2   Cu    Cu3+1 0.491300 0.482750 0.317000 0.998422
H1    H     H_    0.899747 0.728677 0.511835 0.140745
H2    H     H_    0.726198 0.121231 0.403027 0.233082
H3    H     H_    0.269004 0.866565 0.542859 0.232959
H4    H     H_    0.276580 0.860969 0.767273 0.217936
H5    H     H_    0.044827 0.314746 0.237620 0.238475
H6    H     H_    0.059233 0.507039 0.222822 0.217535
H7    H     H_    0.995598 0.480564 0.827001 0.240299
H8    H     H_    0.998512 0.671857 0.811773 0.255991
H9    H     H_    0.145830 0.894721 0.751097 0.243483
H10   H     H_    0.062869 0.977845 0.548312 0.130911
H11   H     H_    0.048694 0.778202 0.413684 0.156448
H12   H     H_    0.103928 0.259778 0.513571 0.107528
H13   H     H_    0.142689 0.886570 0.413543 0.131590
H14   H     H_    0.848115 0.105563 0.197320 0.250986
H15   H     H_    0.931809 0.999758 0.380804 0.133496
H16   H     H_    0.852038 0.081242 0.523639 0.163569
H17   H     H_    0.946221 0.190937 0.536657 0.159740
H18   H     H_    0.364550 0.494811 0.022758 0.249791
H19   H     H_    0.323899 0.221441 0.879697 0.108956
H20   H     H_    0.365556 0.237325 0.103066 0.161554
H21   H     H_    0.423132 0.170505 0.899199 0.150109
H22   H     H_    0.635658 0.504559 0.971154 0.255319
H23   H     H_    0.477078 0.958753 0.294476 0.120864
H24   H     H_    0.678906 0.772721 0.115073 0.102154
H25   H     H_    0.579055 0.826802 0.122037 0.150281
H26   H     H_    0.628252 0.769588 0.904991 0.149044
H27   H     H_    0.522175 0.041318 0.705865 0.121244
H28   H     H_    0.238838 0.152841 0.577165 0.221086
H29   H     H_    0.233285 0.150404 0.351745 0.218338
H30   H     H_    0.711847 0.800260 0.454914 0.223971
H31   H     H_    0.720300 0.785748 0.675081 0.231547
H32   H     H_    0.718000 0.152440 0.188539 0.222359
N1    N     N_2   0.478180 0.456750 0.041980 -0.015208
N2    N     N_2   0.879198 0.184353 0.299935 -0.504412
N3    N     N_2   0.405052 0.414658 0.966482 -0.345889
N4    N     N_2   0.595273 0.583093 0.032365 -0.348680
N5    N     N_2   0.521820 0.543250 0.958020 -0.015215
N6    N     N_3   0.255984 0.214983 0.477752 -0.650563
N7    N     N_3   0.751040 0.783802 0.553660 -0.658945
N8    N     N_3   0.711416 0.202837 0.328171 -0.635765
N9    N     N_3   0.284429 0.797579 0.632439 -0.642089
N10   N     N_3   0.017105 0.418854 0.239765 -0.630628
N11   N     N_3   0.979413 0.556168 0.745615 -0.637372
N12   N     N_2   0.116150 0.807447 0.654437 -0.526032
O1    O     O_R   0.505650 0.286040 0.618880 -0.488432
O2    O     O_R   0.494350 0.713960 0.381120 -0.495407
O3    O     O_R   0.490960 0.256910 0.309800 -0.508010
O4    O     O_R   0.509040 0.743090 0.690200 -0.515120
O5    O     O_R   0.394600 0.516230 0.672450 -0.473954
O6    O     O_R   0.605400 0.483770 0.327550 -0.472826
O7    O     O_R   0.379910 0.487100 0.363380 -0.520770
O8    O     O_R   0.620090 0.512900 0.636620 -0.528550

loop_
_geom_bond_atom_site_label_1
_geom_bond_atom_site_label_2
_ccdc_geom_bond_type
H14   N2    S    
C12   O4    A    
Cu2   O2    S    
C15   N2    S    
C2    C4    A    
C2    N7    S    
C17   H25   S    
C7    N12   S    
C21   O6    A    
C1    C18   S    
C1    O1    A    
C20   O7    A    
C5    C11   S    
C14   H10   S    
C9    C22   A    
H30   N7    S    
Cu2   O3    S    
C16   H21   S    
Cu1   O4    S    
Cu1   N5    S    
C14   H13   S    
H3    N9    S    
H32   N8    S    
H9    N12   S    
C21   O8    A    
Cu2   O6    S    
C3    H12   S    
Cu1   O1    S    
Cu2   N1    S    
H4    N9    S    
H7    N11   S    
H6    N10   S    
C19   H27   S    
C12   O2    A    
C24   N6    S    
C14   N12   S    
C3    C24   A    
C17   H26   S    
C10   N8    S    
H5    N10   S    
N1    N3    S    
Cu2   O7    S    
Cu1   O8    S    
C15   H15   S    
C4    C6    A    
C16   H20   S    
C5    C7    A    
C18   C19   D    
C6    C8    A    
Cu1   Cu2   S    
C20   O5    A    
Cu1   O5    S    
C16   H19   S    
H2    N8    S    
C9    N9    S    
N4    N5    S    
C17   N4    S    
H22   N4    S    
H29   N6    S    
H8    N11   S    
C20   C22   S    
C21   C23   S    
H18   N3    S    
C22   C24   A    
C16   N3    S    
C4    H1    S    
C7    C9    A    
C15   H16   S    
H31   N7    S    
C3    C5    A    
C17   H24   S    
C11   N11   S    
C10   C23   A    
N1    N5    D    
C1    O3    A    
C15   H17   S    
C8    N2    S    
C6    C13   S    
C11   C13   D    
H28   N6    S    
C12   C19   S    
C8    C10   A    
C2    C23   A    
C18   H23   S    
C14   H11   S    
C13   N10   S    
