data_mof_unit_40464.cif
_audit_creation_date              2012-12-11T17:23:16-0500
_audit_creation_method            fapswitch 2.2
_symmetry_space_group_name_H-M    P1
_symmetry_Int_Tables_number       1
_space_group_crystal_system       triclinic
_cell_length_a                    22.484317
_cell_length_b                    7.095219
_cell_length_c                    19.37064
_cell_angle_alpha                 89.999482
_cell_angle_beta                  99.39879
_cell_angle_gamma                 89.999403
_cell_volume                      3048.73621283

loop_
_atom_site_label
_atom_site_type_symbol
_atom_type_description
_atom_site_fract_x
_atom_site_fract_y
_atom_site_fract_z
_atom_type_partial_charge
O1    O     O_R   0.443980 0.494320 0.557430 -0.533316
O2    O     O_R   0.556020 0.994320 0.442570 -0.533316
O3    O     O_R   0.441210 0.822520 0.414610 -0.538904
O4    O     O_R   0.558790 0.322520 0.585390 -0.538906
C1    C     C_R   0.426755 0.655132 0.388876 0.698388
C2    C     C_R   0.573245 0.155129 0.611124 0.698385
O5    O     O_R   0.436920 0.823940 0.555180 -0.536263
O6    O     O_R   0.563080 0.323940 0.444820 -0.536261
O7    O     O_R   0.551700 0.995760 0.584140 -0.535002
O8    O     O_R   0.448300 0.495760 0.415860 -0.535002
C3    C     C_R   0.421578 0.655368 0.574820 0.716618
C4    C     C_R   0.578422 0.155368 0.425180 0.716618
O9    O     O_3   0.537660 0.661290 0.509340 -0.371020
O10   O     O_3   0.462340 0.161290 0.490660 -0.371020
V1    V     V_3+5 0.493010 0.935560 0.498270 1.424073
V2    V     V_3+5 0.506990 0.435560 0.501730 1.424067
H1    H     H_    0.680416 0.839391 0.260224 0.153606
H2    H     H_    0.319578 0.339376 0.739767 0.153604
C5    C     C_R   0.753497 0.941519 0.210759 0.397060
C6    C     C_R   0.246499 0.441510 0.789236 0.397062
C7    C     C_R   0.793152 0.092344 0.204512 0.034196
C8    C     C_R   0.206848 0.592343 0.795488 0.034191
C9    C     C_R   0.788857 0.256534 0.243962 -0.163967
C10   C     C_R   0.211146 0.756542 0.756042 -0.163964
H3    H     H_    0.818932 0.373973 0.240129 0.171365
H4    H     H_    0.181073 0.873987 0.759879 0.171383
C11   C     C_R   0.745781 0.270922 0.288737 -0.122563
C12   C     C_R   0.254222 0.770931 0.711267 -0.122557
H5    H     H_    0.743289 0.399255 0.318434 0.137826
H6    H     H_    0.256717 0.899271 0.681574 0.137830
C13   C     C_R   0.706358 0.120903 0.295100 0.059418
C14   C     C_R   0.293642 0.620904 0.704900 0.059416
C15   C     C_R   0.710560 0.956395 0.255869 -0.192296
C16   C     C_R   0.289437 0.456387 0.744126 -0.192297
C17   C     C_1   0.838304 0.080656 0.158364 0.056849
C18   C     C_1   0.161696 0.580655 0.841635 0.056851
C19   C     C_1   0.661610 0.135373 0.341530 -0.021410
C20   C     C_1   0.338390 0.635374 0.658469 -0.021408
C21   C     C_1   0.623952 0.145747 0.379933 -0.181503
C22   C     C_1   0.376047 0.645747 0.620067 -0.181500
C23   C     C_1   0.876149 0.071499 0.120173 -0.146545
C24   C     C_1   0.123851 0.571498 0.879826 -0.146544
C25   C     C_R   0.633586 0.123880 0.803037 -0.149021
C26   C     C_R   0.366409 0.624108 0.196959 -0.149017
H7    H     H_    0.546270 0.130797 0.739809 0.124806
H8    H     H_    0.453726 0.631034 0.260183 0.124805
H9    H     H_    0.714651 0.122005 0.917917 0.145693
H10   H     H_    0.285339 0.622340 0.082084 0.145686
H11   H     H_    0.614711 0.120803 0.851068 0.135322
H12   H     H_    0.385281 0.621143 0.148925 0.135321
C27   C     C_R   0.616847 0.144293 0.676950 -0.079691
C28   C     C_R   0.383151 0.644314 0.323051 -0.079686
C29   C     C_R   0.911872 0.040601 0.760636 -0.158697
C30   C     C_R   0.088134 0.540445 0.239360 -0.158692
C31   C     C_R   0.875668 0.026624 0.695568 -0.141108
C32   C     C_R   0.124340 0.526398 0.304424 -0.141112
C33   C     C_R   0.813372 0.047026 0.688850 -0.116762
C34   C     C_R   0.186635 0.546854 0.311142 -0.116763
C35   C     C_R   0.785227 0.090299 0.747182 0.090937
C36   C     C_R   0.214774 0.590259 0.252818 0.090935
C37   C     C_R   0.822689 0.092711 0.814702 0.050277
C38   C     C_R   0.177309 0.592750 0.185300 0.050280
C39   C     C_R   0.720989 0.117337 0.741748 0.073748
C40   C     C_R   0.279010 0.617352 0.258254 0.073742
C41   C     C_R   0.696144 0.118864 0.804866 0.081126
C42   C     C_R   0.303851 0.619020 0.195134 0.081128
C43   C     C_R   0.733656 0.116560 0.869989 -0.163237
C44   C     C_R   0.266336 0.616790 0.130012 -0.163241
C45   C     C_R   0.795843 0.109260 0.874877 -0.178398
C46   C     C_R   0.204151 0.609430 0.125126 -0.178405
C47   C     C_R   0.680036 0.145451 0.677308 0.131472
C48   C     C_R   0.319963 0.645392 0.322698 0.131482
C49   C     C_R   0.594459 0.130778 0.739737 -0.198322
C50   C     C_R   0.405537 0.630945 0.260258 -0.198330
C51   C     C_R   0.886273 0.070310 0.820729 -0.077684
C52   C     C_R   0.113727 0.570287 0.179271 -0.077690
H13   H     H_    0.960120 0.021254 0.764494 0.109235
H14   H     H_    0.039887 0.521042 0.235500 0.109234
H15   H     H_    0.788522 0.016493 0.637883 0.160597
H16   H     H_    0.211488 0.516256 0.362102 0.160605
H17   H     H_    0.895959 0.994698 0.649937 0.124845
H18   H     H_    0.104055 0.494369 0.350049 0.124847
H19   H     H_    0.822722 0.110036 0.926638 0.116176
H20   H     H_    0.177269 0.610268 0.073367 0.116182
O11   O     O_R   0.051730 0.724670 0.084120 -0.535303
O12   O     O_R   0.948270 0.224670 0.915880 -0.535299
O13   O     O_R   0.063080 0.393540 0.944820 -0.529256
O14   O     O_R   0.936920 0.893540 0.055180 -0.529259
C53   C     C_R   0.078214 0.562124 0.924922 0.703981
C54   C     C_R   0.921786 0.062125 0.075078 0.703977
O15   O     O_R   0.058800 0.395030 0.085390 -0.536691
O16   O     O_R   0.941200 0.895030 0.914610 -0.536693
O17   O     O_R   0.943980 0.223310 0.057440 -0.535224
O18   O     O_R   0.056020 0.723310 0.942560 -0.535227
C55   C     C_R   0.072751 0.563546 0.111295 0.678963
C56   C     C_R   0.927249 0.063549 0.888705 0.678964
O19   O     O_3   0.962360 0.556290 0.990650 -0.368079
O20   O     O_3   0.037640 0.056290 0.009350 -0.368081
V3    V     V_3+5 0.006980 0.281990 0.001730 1.462348
V4    V     V_3+5 0.993020 0.781990 0.998270 1.462339
Cl1   Cl    Cl    0.756423 0.732118 0.162698 -0.677134
Cl2   Cl    Cl    0.243570 0.232098 0.837291 -0.677151
N1    N     N_3   0.701621 0.192212 0.613765 -0.700407
H21   H     H_    0.684580 0.093857 0.575368 0.210562
H22   H     H_    0.685202 0.325415 0.597254 0.238336
N2    N     N_3   0.298378 0.692006 0.386255 -0.700419
H23   H     H_    0.315430 0.593599 0.424628 0.210582
H24   H     H_    0.314784 0.825199 0.402796 0.238310

loop_
_geom_bond_atom_site_label_1
_geom_bond_atom_site_label_2
_ccdc_geom_bond_type
C25   C49   A    
C42   C44   A    
C39   C41   A    
C11   H5    S    
C5    Cl1   S    
C33   H15   S    
C18   C24   T    
O1    C3    A    
C40   C48   A    
O2    C4    A    
C25   C41   A    
C2    O7    A    
C37   C51   A    
O5    C3    A    
C27   C47   A    
O12   V3    S    
C36   C38   A    
C5    C7    A    
C10   H4    S    
C28   C50   A    
C52   C55   S    
C33   C35   A    
C6    Cl2   S    
N2    H23   S    
C37   C45   A    
O16   C56   A    
C38   C46   A    
H7    C49   S    
C53   O18   A    
C26   C42   A    
C41   C43   A    
C13   C15   A    
C1    C28   S    
C14   C20   S    
C2    C27   S    
C31   H17   S    
C46   H20   S    
O17   V3    S    
C34   H16   S    
C6    C16   A    
O5    V1    S    
C23   C54   S    
O6    V2    S    
C38   C52   A    
C29   C51   A    
H1    C15   S    
H9    C43   S    
O19   V3    S    
C51   C56   S    
O13   V3    S    
C29   C31   A    
C7    C9    A    
C30   C32   A    
C35   C37   A    
C11   C13   A    
C27   C49   A    
C12   C14   A    
O4    C2    A    
C5    C15   A    
C25   H11   S    
C13   C19   S    
C43   C45   A    
C14   C16   A    
O4    V2    S    
C29   H13   S    
C45   H19   S    
C48   N2    S    
O18   V4    S    
O6    C4    A    
C28   C48   A    
N1    H22   S    
O1    V2    S    
H10   C44   S    
C26   C50   A    
O2    V1    S    
H2    C16   S    
O14   V4    S    
O12   C56   A    
C30   C52   A    
C6    C8    A    
C9    C11   A    
C31   C33   A    
C8    C10   A    
H8    C50   S    
O19   V4    S    
O3    V1    S    
O16   V4    S    
C54   O17   A    
C26   H12   S    
C47   N1    S    
O14   C54   A    
C35   C39   A    
C10   C12   A    
C39   C47   A    
O3    C1    A    
C32   H18   S    
C7    C17   S    
C8    C18   S    
O20   V4    S    
C36   C40   A    
C24   C53   S    
C4    C21   S    
O13   C53   A    
O7    V1    S    
C1    O8    A    
C19   C21   T    
O11   V4    S    
O8    V2    S    
C20   C22   T    
O11   C55   A    
N2    H24   S    
C12   H6    S    
C32   C34   A    
C9    H3    S    
C3    C22   S    
C17   C23   T    
O15   C55   A    
C44   C46   A    
O20   V3    S    
O9    V2    S    
N1    H21   S    
O10   V1    S    
O15   V3    S    
C34   C36   A    
C40   C42   A    
C30   H14   S    
