data_mof_unit_49064.cif
_audit_creation_date              2012-10-26T20:19:33-0400
_audit_creation_method            fapswitch 2.2
_symmetry_space_group_name_H-M    P1
_symmetry_Int_Tables_number       1
_space_group_crystal_system       triclinic
_cell_length_a                    10.813677
_cell_length_b                    10.813873
_cell_length_c                    9.637748
_cell_angle_alpha                 90.066274
_cell_angle_beta                  89.747948
_cell_angle_gamma                 92.337863
_cell_volume                      1126.06687141

loop_
_atom_site_label
_atom_site_type_symbol
_atom_type_description
_atom_site_fract_x
_atom_site_fract_y
_atom_site_fract_z
_atom_type_partial_charge
C1    C     C_R   0.505336 0.261925 0.501087 0.568531
C2    C     C_R   0.511448 0.058217 0.632692 0.034953
C3    C     C_R   0.503534 0.125777 0.505411 -0.019718
C4    C     C_R   0.260442 0.495615 0.500482 0.547751
C5    C     C_R   0.463095 0.063898 0.384678 -0.141948
C6    C     C_R   0.436989 0.936605 0.384189 0.003693
C7    C     C_R   0.459933 0.869158 0.505351 0.005443
C8    C     C_R   0.643983 0.678571 0.143440 -0.101183
C9    C     C_R   0.702202 0.776767 0.074826 -0.131791
C10   C     C_R   0.711221 0.776373 0.931586 -0.002127
C11   C     C_R   0.651346 0.678608 0.858221 -0.096074
C12   C     C_3   0.879564 0.500687 0.495367 0.036878
C13   C     C_R   0.572894 0.588059 0.925457 0.134130
C14   C     C_R   0.571538 0.587839 0.074280 0.145969
C15   C     C_R   0.431017 0.416262 0.073986 -0.008239
C16   C     C_R   0.483576 0.735771 0.500721 0.534445
C17   C     C_R   0.430765 0.416513 0.926326 -0.018178
C18   C     C_R   0.740192 0.499139 0.499029 0.531563
C19   C     C_3   0.068223 0.447194 0.639975 -0.267906
C20   C     C_3   0.928253 0.464132 0.642341 -0.254674
C21   C     C_3   0.082747 0.633483 0.478032 -0.045685
C22   C     C_3   0.070618 0.410968 0.384341 -0.217681
C23   C     C_3   0.937809 0.635181 0.454120 0.015014
C24   C     C_3   0.123051 0.497656 0.501253 -0.012790
C25   C     C_2   0.916550 0.667639 0.301716 0.202869
C26   C     C_2   0.657714 0.199813 0.773003 0.244201
C27   C     C_2   0.363436 0.881275 0.268096 0.232801
C28   C     C_3   0.793544 0.871812 0.856207 -0.266830
C29   C     C_3   0.830925 0.988661 0.938604 -0.423086
C30   C     C_2   0.128932 0.717511 0.594709 0.194358
C31   C     C_3   0.872054 0.738373 0.539029 -0.313372
C32   C     C_3   0.918684 0.873420 0.513508 -0.433154
C33   C     C_3   0.876866 0.267212 0.414675 -0.281546
C34   C     C_3   0.926614 0.401960 0.388456 -0.099845
C35   C     C_3   0.894549 0.183150 0.288660 -0.464975
C36   C     C_R   0.553148 0.108901 0.762287 0.047692
C37   C     C_R   0.513861 0.053037 0.886682 -0.147613
C38   C     C_R   0.449726 0.939556 0.884389 -0.116517
C39   C     C_R   0.428764 0.879160 0.759477 -0.067858
C40   C     C_R   0.468080 0.933720 0.632777 0.016915
Cu1   Cu    Cu3+1 0.499990 0.499990 0.640660 0.927387
Cu2   Cu    Cu3+1 0.500010 0.500010 0.359340 0.910212
H1    H     H_    0.110749 0.493767 0.731942 0.139005
H2    H     H_    0.662430 0.675233 0.250850 0.180109
H3    H     H_    0.747161 0.849061 0.135916 0.108911
H4    H     H_    0.669674 0.676299 0.749794 0.173655
H5    H     H_    0.373893 0.347944 0.871668 0.121814
H6    H     H_    0.882521 0.377058 0.679029 0.194533
H7    H     H_    0.906221 0.533691 0.722283 0.122025
H8    H     H_    0.102303 0.445412 0.281027 0.176444
H9    H     H_    0.110056 0.318128 0.396272 0.120667
H10   H     H_    0.859390 0.743382 0.277412 0.107412
H11   H     H_    0.669595 0.257117 0.864947 0.100121
H12   H     H_    0.891185 0.424787 0.284202 0.206340
H13   H     H_    0.347137 0.782321 0.258164 0.157202
H14   H     H_    0.749410 0.030432 0.986767 0.141189
H15   H     H_    0.898304 0.966879 0.020867 0.155423
H16   H     H_    0.876693 0.057642 0.867980 0.169492
H17   H     H_    0.881191 0.828048 0.829938 0.146377
H18   H     H_    0.746668 0.900211 0.759612 0.162545
H19   H     H_    0.099794 0.701035 0.701071 0.116393
H20   H     H_    0.972356 0.909229 0.603925 0.185391
H21   H     H_    0.978100 0.883344 0.419718 0.183483
H22   H     H_    0.838626 0.933604 0.501091 0.133256
H23   H     H_    0.132085 0.668374 0.383036 0.180570
H24   H     H_    0.771521 0.734634 0.514936 0.131864
H25   H     H_    0.878400 0.717780 0.649813 0.120180
H26   H     H_    0.847495 0.220466 0.196384 0.149082
H27   H     H_    0.994163 0.173928 0.264565 0.167467
H28   H     H_    0.853113 0.089593 0.310628 0.141397
H29   H     H_    0.923279 0.226595 0.505476 0.190856
H30   H     H_    0.776007 0.266741 0.435504 0.210221
H31   H     H_    0.445258 0.116006 0.291378 0.170635
H32   H     H_    0.539952 0.093156 0.985954 0.099500
H33   H     H_    0.423652 0.893390 0.979593 0.176634
H34   H     H_    0.377188 0.791491 0.763553 0.180382
H35   H     H_    0.374260 0.347534 0.128934 0.122861
H36   H     H_    0.087318 0.347219 0.650410 0.130684
N1    N     N_R   0.501200 0.501210 0.147910 -0.246275
N2    N     N_R   0.501250 0.501290 0.852040 -0.253142
O1    O     O_R   0.499990 0.319640 0.618810 -0.486278
O2    O     O_2   0.735825 0.205827 0.681888 -0.588932
O3    O     O_2   0.310887 0.947514 0.186624 -0.550467
O4    O     O_2   0.196739 0.807537 0.569347 -0.547324
O5    O     O_R   0.500000 0.319660 0.381240 -0.517747
O6    O     O_R   0.317680 0.499970 0.618790 -0.501833
O7    O     O_R   0.317700 0.499990 0.381210 -0.509984
O8    O     O_R   0.500000 0.680340 0.618760 -0.530334
O9    O     O_R   0.500010 0.680360 0.381190 -0.552409
O10   O     O_R   0.682300 0.500010 0.618790 -0.510943
O11   O     O_R   0.682320 0.500030 0.381210 -0.524260
O12   O     O_2   0.969902 0.618266 0.205843 -0.556208

loop_
_geom_bond_atom_site_label_1
_geom_bond_atom_site_label_2
_ccdc_geom_bond_type
C31   H24   S    
C37   H32   S    
C9    H3    S    
C10   C28   S    
Cu1   Cu2   S    
C19   C20   S    
Cu1   N2    S    
C4    O7    A    
C15   H35   S    
C31   H25   S    
Cu1   O6    S    
C12   C23   S    
C37   C38   A    
C18   O11   A    
C36   C37   A    
C38   C39   A    
C4    C24   S    
C27   H13   S    
C4    O6    A    
C1    O1    A    
Cu2   O11   S    
C33   H30   S    
C15   N1    A    
C31   C32   S    
C35   H28   S    
C8    C9    A    
C7    C40   A    
C9    C10   A    
C22   H8    S    
Cu1   O10   S    
C13   N2    A    
Cu2   N1    S    
C26   O2    D    
C13   C14   A    
C30   O4    D    
C19   H1    S    
C38   H33   S    
C28   H18   S    
C1    O5    A    
C22   C34   S    
C18   O10   A    
C17   H5    S    
C32   H22   S    
C39   C40   A    
C39   H34   S    
C17   N2    A    
C1    C3    S    
C23   C31   S    
C19   H36   S    
C20   H7    S    
C6    C27   S    
Cu1   O1    S    
C12   C20   S    
C33   C34   S    
Cu2   O5    S    
C14   N1    A    
C20   H6    S    
C26   C36   S    
C7    C16   S    
C29   H15   S    
C34   H12   S    
C21   C23   S    
C22   C24   S    
C21   C24   S    
C12   C34   S    
C26   H11   S    
C28   H17   S    
C2    C36   A    
C15   C17   A    
Cu1   O8    S    
C28   C29   S    
C25   O12   D    
C8    C14   A    
C21   H23   S    
C8    H2    S    
C32   H21   S    
C3    C5    A    
C6    C7    A    
C29   H14   S    
C21   C30   S    
Cu2   O9    S    
C27   O3    D    
C2    C3    A    
C25   H10   S    
C32   H20   S    
C11   C13   A    
C5    C6    A    
C35   H26   S    
C33   C35   S    
C19   C24   S    
C23   C25   S    
C5    H31   S    
C10   C11   A    
C33   H29   S    
C2    C40   A    
C16   O9    A    
C29   H16   S    
C35   H27   S    
C30   H19   S    
C12   C18   S    
C16   O8    A    
C11   H4    S    
Cu2   O7    S    
C22   H9    S    
