data_mof_unit_51317.cif
_audit_creation_date              2012-12-10T18:15:17-0500
_audit_creation_method            fapswitch 2.2
_symmetry_space_group_name_H-M    P1
_symmetry_Int_Tables_number       1
_space_group_crystal_system       triclinic
_cell_length_a                    12.564759
_cell_length_b                    13.433654
_cell_length_c                    23.232452
_cell_angle_alpha                 91.474488
_cell_angle_beta                  102.308804
_cell_angle_gamma                 85.650159
_cell_volume                      3820.05781099

loop_
_atom_site_label
_atom_site_type_symbol
_atom_type_description
_atom_site_fract_x
_atom_site_fract_y
_atom_site_fract_z
_atom_type_partial_charge
C1    C     C_R   0.442854 0.689686 0.487129 0.916106
C2    C     C_R   0.392753 0.590812 0.010551 0.497594
C3    C     C_R   0.397307 0.583124 0.950991 -0.284057
C4    C     C_R   0.442411 0.496223 0.928294 -0.049786
C5    C     C_R   0.486027 0.415642 0.965429 -0.084752
C6    C     C_R   0.527113 0.326072 0.941949 -0.116159
C7    C     C_R   0.572218 0.246553 0.980400 0.487100
C8    C     C_R   0.585370 0.261032 0.041376 -0.277468
C9    C     C_R   0.448201 0.489615 0.869228 0.528266
C10   C     C_R   0.523376 0.320644 0.880863 0.561143
C11   C     C_R   0.599737 0.424372 0.773875 -0.128304
C12   C     C_R   0.501775 0.495537 0.611412 0.902143
C13   C     C_R   0.602894 0.465026 0.718063 0.397882
C14   C     C_R   0.505222 0.470897 0.673837 -0.150406
C15   C     C_R   0.407777 0.440999 0.686961 -0.357703
C16   C     C_R   0.404239 0.408220 0.742541 0.035345
C17   C     C_R   0.498919 0.404272 0.786691 0.198441
C18   C     C_R   0.542897 0.548023 0.238208 0.446980
C19   C     C_R   0.515829 0.569696 0.293072 -0.145203
C20   C     C_R   0.499453 0.488367 0.326601 -0.223723
C21   C     C_R   0.475125 0.396607 0.299056 -0.359116
C22   C     C_R   0.470849 0.384854 0.238887 0.502425
C23   C     C_R   0.558714 0.310908 0.511575 0.875464
C24   C     C_R   0.511697 0.458077 0.208973 0.043837
C25   C     C_R   0.733121 0.073294 0.533515 -0.224916
C26   C     C_R   0.593630 0.206376 0.522343 -0.275734
C27   C     C_R   0.304520 0.826797 0.452087 -0.351740
C28   C     C_R   0.271543 0.927365 0.444005 -0.094367
C29   C     C_R   0.349808 0.998581 0.453402 0.543130
C30   C     C_R   0.461996 0.968682 0.476455 -0.111796
C31   C     C_R   0.496388 0.865776 0.474297 -0.077704
C32   C     C_R   0.541882 0.037847 0.498412 -0.056399
C33   C     C_R   0.653977 0.004985 0.512353 -0.007251
C34   C     C_R   0.499101 0.499394 0.389151 0.923791
C35   C     C_R   0.685951 0.903499 0.510399 -0.166512
C36   C     C_R   0.610339 0.838225 0.479274 0.470738
C37   C     C_R   0.514453 0.136606 0.514494 0.504693
C38   C     C_R   0.704534 0.173714 0.538256 -0.077265
C39   C     C_R   0.415176 0.794819 0.469045 -0.087660
C40   C     C_R   0.073564 0.381994 0.401321 -0.093704
C41   C     C_R   0.804051 0.617106 0.576019 0.016448
C42   C     C_R   0.911128 0.639496 0.595618 -0.312831
C43   C     C_R   0.992095 0.602130 0.566430 -0.001301
C44   C     C_R   0.965658 0.532050 0.518853 -0.038132
C45   C     C_R   0.557210 0.364978 0.125396 0.578400
C46   C     C_R   0.853677 0.509780 0.502013 0.240068
C47   C     C_R   0.041843 0.481992 0.487402 -0.050282
C48   C     C_R   0.001973 0.422858 0.436496 0.139660
C49   C     C_R   0.892368 0.402174 0.422816 -0.284776
C50   C     C_R   0.821713 0.440661 0.456935 -0.203778
C51   C     C_R   0.156179 0.484823 0.504513 -0.080023
C52   C     C_R   0.184186 0.395616 0.418933 -0.014881
C53   C     C_R   0.446096 0.518271 0.109676 0.575443
C54   C     C_R   0.442931 0.512827 0.049001 -0.125303
C55   C     C_R   0.490735 0.425911 0.026333 -0.093691
C56   C     C_R   0.544899 0.349948 0.064575 -0.079307
H1    H     H_    0.453199 0.336749 0.323572 0.181445
H2    H     H_    0.818465 0.049934 0.546571 0.171460
H3    H     H_    0.242434 0.773629 0.447647 0.190004
H4    H     H_    0.365270 0.645847 0.922579 0.193369
H5    H     H_    0.240509 0.368578 0.391751 0.134606
H6    H     H_    0.860859 0.352450 0.386816 0.177380
H7    H     H_    0.196618 0.516313 0.545154 0.167599
H8    H     H_    0.741147 0.649255 0.597410 0.151636
H9    H     H_    0.931011 0.688126 0.633392 0.193468
H10   H     H_    0.741770 0.414371 0.447081 0.213158
H11   H     H_    0.625613 0.201259 0.070322 0.195937
H12   H     H_    0.332703 0.442584 0.653730 0.190886
N1    N     N_R   0.506734 0.447449 0.146745 -0.341954
N2    N     N_R   0.488155 0.403045 0.846789 -0.338247
N3    N     N_R   0.222200 0.444670 0.469780 -0.106009
N4    N     N_R   0.776960 0.554790 0.529910 -0.122142
O1    O     O_R   0.366740 0.627150 0.485570 -0.622205
O2    O     O_2   0.387434 0.592555 0.131641 -0.501768
O3    O     O_2   0.416363 0.570078 0.834367 -0.611099
O4    O     O_2   0.557105 0.235736 0.855789 -0.539113
O5    O     O_R   0.544830 0.662520 0.504870 -0.584712
O6    O     O_R   0.410930 0.482340 0.574190 -0.632785
O7    O     O_R   0.589010 0.517710 0.593490 -0.577875
O8    O     O_R   0.455170 0.337480 0.495130 -0.567599
O9    O     O_R   0.633260 0.372850 0.514430 -0.635558
O10   O     O_R   0.410990 0.482290 0.406510 -0.639065
O11   O     O_R   0.589070 0.517660 0.425810 -0.629741
O12   O     O_2   0.618882 0.297796 0.162928 -0.550355
Zn1   Zn    Zn3+2 0.381090 0.476380 0.487110 0.956986
Zn2   Zn    Zn3+2 0.618910 0.523620 0.512890 0.971435
O13   O     O_3   0.352217 0.679514 0.032451 -0.593149
C57   C     C_3   0.240232 0.700735 0.006483 0.111586
H13   H     H_    0.193828 0.703676 0.042283 0.178107
H14   H     H_    0.203654 0.643356 0.974047 0.104880
C58   C     C_3   0.224879 0.802875 0.976989 -0.354802
H15   H     H_    0.254473 0.860842 0.010366 0.236407
H16   H     H_    0.273751 0.802441 0.942378 0.222134
C59   C     C_3   0.105162 0.829697 0.948933 -0.967121
H17   H     H_    0.074692 0.774012 0.914300 0.267930
H18   H     H_    0.096833 0.904343 0.928331 0.266214
H19   H     H_    0.054642 0.832046 0.982856 0.266440
C60   C     C_R   0.462876 0.670395 0.302750 0.177388
C61   C     C_R   0.357497 0.675754 0.315244 -0.150881
C62   C     C_R   0.296821 0.766720 0.315343 -0.124698
C63   C     C_R   0.340115 0.854411 0.303550 -0.102171
C64   C     C_R   0.444292 0.851195 0.291329 -0.153737
C65   C     C_R   0.504667 0.759817 0.289916 -0.040698
H20   H     H_    0.318773 0.608880 0.321684 0.140857
H21   H     H_    0.215163 0.768307 0.323391 0.124271
H22   H     H_    0.291527 0.924172 0.302367 0.118111
H23   H     H_    0.477080 0.919107 0.280983 0.140186
H24   H     H_    0.581578 0.760132 0.276543 0.139602
O14   O     O_3   0.428293 0.301299 0.209509 -0.616931
C66   C     C_3   0.317873 0.325885 0.182251 0.058585
H25   H     H_    0.308443 0.394204 0.154903 0.146342
H26   H     H_    0.267695 0.338787 0.216274 0.139357
C67   C     C_3   0.274933 0.239730 0.141865 -0.305387
H27   H     H_    0.324409 0.227389 0.107592 0.225547
H28   H     H_    0.282957 0.170330 0.167878 0.231356
C68   C     C_3   0.155288 0.261735 0.111889 -0.986332
H29   H     H_    0.104141 0.273047 0.145372 0.268721
H30   H     H_    0.126517 0.197768 0.083027 0.267562
H31   H     H_    0.145558 0.329662 0.084433 0.263774
C69   C     C_R   0.790945 0.238534 0.567597 0.179897
C70   C     C_R   0.881375 0.250495 0.542715 -0.171542
C71   C     C_R   0.967581 0.303950 0.572915 -0.148864
C72   C     C_R   0.962951 0.348191 0.627427 -0.127175
C73   C     C_R   0.872571 0.337692 0.652306 -0.108723
C74   C     C_R   0.786730 0.282871 0.622635 -0.087191
H32   H     H_    0.884124 0.219712 0.499546 0.136396
H33   H     H_    0.037303 0.312238 0.553581 0.151423
H34   H     H_    0.029284 0.390763 0.650170 0.144467
H35   H     H_    0.869859 0.370896 0.694911 0.155150
H36   H     H_    0.717904 0.273764 0.642793 0.102740
C75   C     C_R   0.777242 0.866785 0.558813 0.133373
C76   C     C_R   0.754368 0.862812 0.615393 -0.155824
C77   C     C_R   0.837522 0.869895 0.665639 -0.171828
C78   C     C_R   0.944567 0.880398 0.660067 -0.129191
C79   C     C_R   0.969009 0.880747 0.604212 -0.117391
C80   C     C_R   0.886439 0.871537 0.553787 -0.208583
H37   H     H_    0.670690 0.862349 0.620518 0.119033
H38   H     H_    0.818234 0.870558 0.708870 0.147446
H39   H     H_    0.008511 0.888116 0.698964 0.129939
H40   H     H_    0.051368 0.891439 0.599982 0.145861
H41   H     H_    0.905933 0.877989 0.511043 0.136906
O15   O     O_3   0.418493 0.160107 0.533772 -0.554676
C81   C     C_3   0.440800 0.161560 0.596189 0.119383
H42   H     H_    0.458663 0.238320 0.612653 0.137452
H43   H     H_    0.511877 0.109376 0.616236 0.069560
C82   C     C_3   0.342064 0.129238 0.617576 -0.350025
H44   H     H_    0.323050 0.053635 0.599711 0.201423
H45   H     H_    0.362774 0.124126 0.666316 0.164775
C83   C     C_3   0.242007 0.202165 0.599187 -0.791797
H46   H     H_    0.259218 0.277657 0.617759 0.242510
H47   H     H_    0.172910 0.175883 0.616130 0.228571
H48   H     H_    0.217798 0.206709 0.550411 0.292530
O16   O     O_3   0.315972 0.097510 0.440193 -0.603121
C84   C     C_3   0.298836 0.113077 0.378932 0.087587
H49   H     H_    0.255561 0.187864 0.370009 0.168869
H50   H     H_    0.244013 0.059235 0.353206 0.118740
C85   C     C_3   0.406776 0.113295 0.358094 -0.423220
H51   H     H_    0.456814 0.171559 0.382825 0.229319
H52   H     H_    0.453754 0.039872 0.366141 0.219251
C86   C     C_3   0.385520 0.134629 0.292524 -0.916085
H53   H     H_    0.341108 0.074409 0.266555 0.248124
H54   H     H_    0.464394 0.139623 0.278887 0.302696
H55   H     H_    0.335231 0.205997 0.283151 0.274673
C87   C     C_R   0.154341 0.958975 0.435660 0.159067
C88   C     C_R   0.079998 0.937893 0.383301 -0.201955
C89   C     C_R   0.968651 0.965550 0.377755 -0.156339
C90   C     C_R   0.931242 0.013972 0.424413 -0.133737
C91   C     C_R   0.005255 0.034240 0.476658 -0.190957
C92   C     C_R   0.116061 0.007146 0.482240 -0.117128
H56   H     H_    0.107913 0.901354 0.346742 0.118463
H57   H     H_    0.911417 0.949363 0.337341 0.132267
H58   H     H_    0.845023 0.034557 0.420425 0.136350
H59   H     H_    0.977343 0.068316 0.513745 0.133219
H60   H     H_    0.171755 0.021610 0.523399 0.134091
O17   O     O_3   0.641418 0.756518 0.445877 -0.611620
C93   C     C_3   0.748913 0.758248 0.435960 0.089709
H61   H     H_    0.808258 0.734656 0.476487 0.163701
H62   H     H_    0.764648 0.833535 0.421931 0.128280
C94   C     C_3   0.767166 0.683884 0.387620 -0.330863
H63   H     H_    0.745425 0.609091 0.397746 0.256166
H64   H     H_    0.714446 0.707202 0.345421 0.206658
C95   C     C_3   0.885467 0.678137 0.380307 -0.986035
H65   H     H_    0.904136 0.749944 0.363397 0.267191
H66   H     H_    0.898240 0.617717 0.348465 0.262292
H67   H     H_    0.942774 0.661886 0.422907 0.271433
C96   C     C_R   0.034553 0.331440 0.344368 0.091132
C97   C     C_R   0.030742 0.227331 0.341416 -0.184355
C98   C     C_R   0.994550 0.180056 0.287181 -0.138902
C99   C     C_R   0.960752 0.236569 0.235949 -0.080761
C100  C     C_R   0.963313 0.340469 0.238821 -0.134916
C101  C     C_R   0.000277 0.387923 0.292879 -0.159272
H68   H     H_    0.056197 0.183109 0.380955 0.167988
H69   H     H_    0.992665 0.099676 0.284780 0.135420
H70   H     H_    0.932555 0.199873 0.194035 0.135875
H71   H     H_    0.936902 0.384176 0.199163 0.130890
H72   H     H_    0.002229 0.468434 0.294683 0.126020
C102  C     C_R   0.098600 0.644408 0.587591 0.116507
C103  C     C_R   0.159551 0.619754 0.643961 -0.201805
C104  C     C_R   0.256417 0.664909 0.666964 -0.126136
C105  C     C_R   0.291649 0.736711 0.634344 -0.116391
C106  C     C_R   0.230175 0.763193 0.578733 -0.148672
C107  C     C_R   0.134704 0.716174 0.554716 -0.142122
H73   H     H_    0.130789 0.566005 0.669786 0.130229
H74   H     H_    0.303422 0.645461 0.710368 0.170786
H75   H     H_    0.365612 0.773060 0.652539 0.119424
H76   H     H_    0.255275 0.822299 0.555271 0.134837
H77   H     H_    0.086948 0.738348 0.511866 0.126985
O18   O     O_3   0.610537 0.156701 0.959247 -0.596918
C108  C     C_3   0.532604 0.086052 0.958990 0.105228
H78   H     H_    0.451358 0.113219 0.932264 0.140180
H79   H     H_    0.524455 0.071134 0.004767 0.123032
C109  C     C_3   0.569822 0.988244 0.931764 -0.289281
H80   H     H_    0.577870 0.001841 0.885933 0.242947
H81   H     H_    0.651017 0.960368 0.957705 0.222482
C110  C     C_3   0.488702 0.908771 0.930784 -0.983410
H82   H     H_    0.480828 0.892587 0.976291 0.276460
H83   H     H_    0.517949 0.838808 0.910745 0.277362
H84   H     H_    0.407266 0.934375 0.904235 0.261688
C111  C     C_R   0.700210 0.393226 0.817553 0.135836
C112  C     C_R   0.729456 0.445436 0.871189 -0.199563
C113  C     C_R   0.822655 0.413084 0.912714 -0.132023
C114  C     C_R   0.886964 0.328536 0.901116 -0.091499
C115  C     C_R   0.858333 0.276351 0.847894 -0.141340
C116  C     C_R   0.765638 0.308794 0.806032 -0.086380
H85   H     H_    0.680406 0.511138 0.880623 0.140720
H86   H     H_    0.844882 0.453420 0.953944 0.133158
H87   H     H_    0.958897 0.303369 0.933404 0.125791
H88   H     H_    0.907808 0.210510 0.839163 0.120641
H89   H     H_    0.744032 0.267590 0.765017 0.116062
O19   O     O_3   0.698655 0.494692 0.704281 -0.645171
C117  C     C_3   0.759245 0.552502 0.750101 0.072000
H90   H     H_    0.819159 0.502502 0.780098 0.163540
H91   H     H_    0.705892 0.598330 0.774974 0.146062
C118  C     C_3   0.827435 0.622113 0.725123 -0.352514
H92   H     H_    0.879307 0.576617 0.699743 0.231460
H93   H     H_    0.772391 0.677070 0.696059 0.220870
C119  C     C_3   0.901550 0.678072 0.774039 -1.003149
H94   H     H_    0.851740 0.728297 0.798375 0.269543
H95   H     H_    0.954832 0.723573 0.754590 0.268991
H96   H     H_    0.954652 0.624889 0.805391 0.262903
C120  C     C_R   0.301586 0.374798 0.754278 0.122607
C121  C     C_R   0.288816 0.272395 0.757426 -0.146475
C122  C     C_R   0.191710 0.239676 0.767865 -0.139037
C123  C     C_R   0.107637 0.309094 0.776238 -0.112881
C124  C     C_R   0.120957 0.411250 0.774763 -0.182884
C125  C     C_R   0.217814 0.444107 0.764009 -0.151302
H97   H     H_    0.354109 0.218173 0.751859 0.142489
H98   H     H_    0.181721 0.160562 0.769557 0.127421
H99   H     H_    0.032310 0.283761 0.783926 0.123403
H100  H     H_    0.056086 0.464857 0.781727 0.138214
H101  H     H_    0.227915 0.523269 0.764050 0.163088
O20   O     O_3   0.584662 0.619607 0.209404 -0.616153
C126  C     C_3   0.697439 0.594055 0.214610 0.042973
H102  H     H_    0.710425 0.524559 0.189011 0.158270
H103  H     H_    0.739311 0.582676 0.261648 0.138274
C127  C     C_3   0.748832 0.678657 0.190209 -0.298842
H104  H     H_    0.708496 0.690701 0.143210 0.237442
H105  H     H_    0.736190 0.748583 0.215293 0.216582
C128  C     C_3   0.871085 0.654773 0.194863 -0.986989
H106  H     H_    0.913447 0.644824 0.241666 0.262320
H107  H     H_    0.905876 0.717273 0.176458 0.269319
H108  H     H_    0.885734 0.585549 0.169634 0.262922

loop_
_geom_bond_atom_site_label_1
_geom_bond_atom_site_label_2
_ccdc_geom_bond_type
C81   C82   S    
C55   C56   A    
C12   O7    A    
C61   C62   A    
C100  C101  A    
C11   C111  S    
C64   C65   A    
C1    O5    A    
C41   C42   A    
C35   C36   A    
O13   C57   S    
C128  H108  S    
C53   N1    A    
C79   H40   S    
C8    C56   A    
O8    Zn1   S    
C77   C78   A    
C7    C8    A    
C53   C54   A    
C68   H29   S    
C62   H21   S    
C88   C89   A    
C51   N3    A    
C18   C24   A    
C21   C22   A    
C28   C29   A    
C18   C19   A    
C57   H13   S    
C52   H5    S    
C83   H47   S    
C126  H102  S    
C16   C17   A    
C15   H12   S    
C122  C123  A    
C122  H98   S    
C127  C128  S    
C71   H33   S    
C108  C109  S    
C123  C124  A    
C40   C48   A    
C120  C121  A    
C106  C107  A    
C23   C26   S    
C96   C101  A    
C66   H25   S    
C67   H27   S    
C66   H26   S    
C108  H79   S    
C111  C116  A    
C95   H65   S    
C10   O4    S    
C99   H70   S    
C93   C94   S    
C11   C17   A    
C115  C116  A    
C45   C56   A    
C27   C39   A    
C105  C106  A    
C127  H105  S    
C60   C65   A    
C73   H35   S    
C42   H9    S    
C92   H60   S    
C57   C58   S    
C103  C104  A    
C23   O8    A    
C29   C30   A    
C79   C80   A    
C4    C9    A    
C46   N4    A    
O9    Zn2   S    
C58   H15   S    
C44   C47   A    
C67   C68   S    
C20   C34   S    
C3    H4    S    
C93   H62   S    
C61   H20   S    
C13   O19   S    
C96   C97   A    
C77   H38   S    
C104  C105  A    
C85   H52   S    
N3    Zn1   S    
C13   C14   A    
C88   H56   S    
C85   H51   S    
C105  H75   S    
C87   C92   A    
O19   C117  S    
C118  H93   S    
C74   H36   S    
C112  C113  A    
C19   C60   S    
C44   C46   A    
C24   N1    S    
C108  H78   S    
C82   H45   S    
C125  H101  S    
C91   H59   S    
C123  H99   S    
C45   N1    A    
C120  C125  A    
C63   C64   A    
C91   C92   A    
C116  H89   S    
C72   C73   A    
C51   H7    S    
C9    N2    A    
C25   H2    S    
C84   C85   S    
C117  H91   S    
C75   C80   A    
C37   O15   S    
C83   H48   S    
C18   O20   S    
C78   H39   S    
C126  H103  S    
C1    C39   S    
C115  H88   S    
C76   C77   A    
C47   C51   A    
C59   H19   S    
C76   H37   S    
C40   C52   A    
C113  H86   S    
C99   C100  A    
C3    C4    A    
C32   C33   A    
C12   O6    A    
C98   C99   A    
C118  C119  S    
C86   H54   S    
C124  H100  S    
C110  H82   S    
C86   H55   S    
C21   H1    S    
C113  C114  A    
C25   C38   A    
C58   H16   S    
C82   C83   S    
C47   C48   A    
C52   N3    A    
C109  C110  S    
C30   C31   A    
C106  H76   S    
C22   O14   S    
O1    Zn1   S    
C127  H104  S    
C14   C15   A    
C121  C122  A    
C70   C71   A    
C64   H23   S    
C43   C102  S    
C32   C37   A    
C109  H80   S    
C59   H18   S    
C50   H10   S    
C66   C67   S    
O18   C108  S    
C97   H68   S    
C90   H58   S    
C100  H71   S    
C68   H30   S    
C41   N4    A    
C10   N2    A    
O6    Zn1   S    
C93   H61   S    
C117  H90   S    
C103  H73   S    
C57   H14   S    
O5    Zn2   S    
C49   C50   A    
C59   H17   S    
C107  H77   S    
C119  H95   S    
C43   C44   A    
C2    C54   A    
C104  H74   S    
C22   C24   A    
C34   O11   A    
C110  H84   S    
C45   O12   S    
C42   C43   A    
C128  H106  S    
C35   C75   S    
C90   C91   A    
C69   C70   A    
C28   C87   S    
C29   O16   S    
C82   H44   S    
C63   H22   S    
C81   H43   S    
C54   C55   A    
C87   C88   A    
C49   H6    S    
C23   O9    A    
C31   C36   A    
C84   H50   S    
C5    C55   A    
C26   C38   A    
C101  H72   S    
C124  C125  A    
C7    O18   S    
C128  H107  S    
C75   C76   A    
C6    C10   A    
C126  C127  S    
N4    Zn2   S    
C26   C37   A    
C6    C7    A    
C85   C86   S    
O10   Zn1   S    
C34   O10   A    
C46   C50   A    
C78   C79   A    
C121  H97   S    
C68   H31   S    
C102  C107  A    
C1    O1    A    
C86   H53   S    
C94   C95   S    
C19   C20   A    
C111  C112  A    
C81   H42   S    
C12   C14   S    
C38   C69   S    
C70   H32   S    
O17   C93   S    
C27   H3    S    
C83   H46   S    
C16   C120  S    
C58   C59   S    
C30   C32   A    
C11   C13   A    
C72   H34   S    
C5    C6    A    
C89   C90   A    
C114  H87   S    
C48   C49   A    
C4    C5    A    
C62   C63   A    
C33   C35   A    
C80   H41   S    
C31   C39   A    
C112  H85   S    
C2    C3    A    
C117  C118  S    
C69   C74   A    
C8    H11   S    
C102  C103  A    
C95   H66   S    
C110  H83   S    
C98   H69   S    
C109  H81   S    
C94   H63   S    
C2    O13   S    
C84   H49   S    
C89   H57   S    
O11   Zn2   S    
C40   C96   S    
C20   C21   A    
C36   O17   S    
C60   C61   A    
C118  H92   S    
C119  H96   S    
O14   C66   S    
C27   C28   A    
C71   C72   A    
O15   C81   S    
C73   C74   A    
C65   H24   S    
C97   C98   A    
C9    O3    S    
C41   H8    S    
C67   H28   S    
O16   C84   S    
C119  H94   S    
C17   N2    S    
C114  C115  A    
C95   H67   S    
O7    Zn2   S    
C15   C16   A    
C25   C33   A    
O20   C126  S    
C94   H64   S    
C53   O2    S    
