data_mof_unit_47714.cif
_audit_creation_date              2012-12-10T18:36:07-0500
_audit_creation_method            fapswitch 2.2
_symmetry_space_group_name_H-M    P1
_symmetry_Int_Tables_number       1
_space_group_crystal_system       triclinic
_cell_length_a                    15.040228
_cell_length_b                    15.686568
_cell_length_c                    19.202843
_cell_angle_alpha                 91.535888
_cell_angle_beta                  104.175893
_cell_angle_gamma                 82.472193
_cell_volume                      4354.63368007

loop_
_atom_site_label
_atom_site_type_symbol
_atom_type_description
_atom_site_fract_x
_atom_site_fract_y
_atom_site_fract_z
_atom_type_partial_charge
C1    C     C_R   0.442540 0.660737 0.482194 0.885475
C2    C     C_R   0.557348 0.339275 0.517579 0.873405
C3    C     C_R   0.407900 0.751554 0.461289 -0.152221
C4    C     C_R   0.590139 0.247748 0.535949 -0.157732
C5    C     C_R   0.282098 0.866071 0.459410 -0.012580
C6    C     C_R   0.703011 0.129160 0.520562 -0.013136
C7    C     C_R   0.311889 0.780260 0.443730 0.124319
C8    C     C_R   0.683278 0.214250 0.542417 0.123724
C9    C     C_R   0.470344 0.812559 0.462920 -0.121493
C10   C     C_R   0.524967 0.190767 0.538379 -0.108762
C11   C     C_R   0.437618 0.900962 0.466904 0.023488
C12   C     C_R   0.544454 0.103336 0.519167 0.009516
C13   C     C_R   0.349029 0.923075 0.479975 0.053854
C14   C     C_R   0.629731 0.078947 0.499346 0.040366
C15   C     C_R   0.494845 0.966771 0.469957 0.080054
C16   C     C_R   0.480639 0.041144 0.511170 0.076585
C17   C     C_R   0.404602 0.047825 0.543152 -0.229815
C18   C     C_R   0.566072 0.959502 0.433726 -0.217598
C19   C     C_R   0.333942 0.996842 0.519939 -0.230179
C20   C     C_R   0.637602 0.008824 0.454081 -0.216763
C21   C     C_R   0.853429 0.599602 0.631079 -0.327181
C22   C     C_R   0.147040 0.404901 0.365488 -0.348402
C23   C     C_R   0.502080 0.497653 0.634958 0.842409
C24   C     C_R   0.499704 0.498036 0.365906 0.838921
C25   C     C_R   0.759988 0.595270 0.602709 0.023947
C26   C     C_R   0.240724 0.405075 0.396903 -0.032411
C27   C     C_R   0.791818 0.520034 0.500152 0.291418
C28   C     C_R   0.206355 0.482952 0.497249 0.289436
C29   C     C_R   0.886248 0.532780 0.522704 -0.018518
C30   C     C_R   0.112168 0.470476 0.473314 -0.018789
C31   C     C_R   0.918179 0.562225 0.593898 0.068143
C32   C     C_R   0.081489 0.444382 0.401254 0.080492
C33   C     C_R   0.951644 0.509299 0.480498 0.060005
C34   C     C_R   0.046263 0.493206 0.514972 0.060871
C35   C     C_R   0.072316 0.499549 0.590221 -0.287786
C36   C     C_R   0.925987 0.504361 0.404990 -0.291235
C37   C     C_R   0.013124 0.544682 0.628053 0.010858
C38   C     C_R   0.987250 0.464819 0.365996 0.010750
C39   C     C_R   0.420475 0.485884 0.730390 -0.213998
C40   C     C_R   0.539696 0.562560 0.265257 -0.231949
C41   C     C_R   0.410501 0.499092 0.799604 -0.174403
C42   C     C_R   0.530464 0.573667 0.192583 -0.166089
C43   C     C_R   0.483645 0.523293 0.852899 0.075355
C44   C     C_R   0.478691 0.521131 0.143105 0.072405
C45   C     C_R   0.568285 0.530184 0.836862 -0.207285
C46   C     C_R   0.438490 0.455466 0.167176 -0.211188
C47   C     C_R   0.580165 0.514960 0.767344 -0.002798
C48   C     C_R   0.448650 0.442451 0.240597 0.002014
C49   C     C_R   0.502764 0.498148 0.711940 -0.090315
C50   C     C_R   0.496963 0.499300 0.289726 -0.070646
C51   C     C_R   0.473220 0.530080 0.066812 0.289907
C52   C     C_R   0.475439 0.531720 0.926889 0.292023
H1    H     H_    0.363237 0.464825 0.691602 0.160332
H2    H     H_    0.579234 0.604575 0.302409 0.149031
H3    H     H_    0.291419 0.378782 0.368395 0.176134
H4    H     H_    0.710410 0.620088 0.632964 0.148704
H5    H     H_    0.874170 0.627782 0.683458 0.162606
H6    H     H_    0.126718 0.377331 0.312606 0.168463
H7    H     H_    0.140417 0.473113 0.619790 0.155844
H8    H     H_    0.857786 0.531043 0.375455 0.165054
H9    H     H_    0.345508 0.489881 0.811320 0.152786
H10   H     H_    0.563513 0.623735 0.175179 0.149008
H11   H     H_    0.627221 0.541930 0.879758 0.149691
H12   H     H_    0.402947 0.411659 0.128917 0.148877
H13   H     H_    0.272044 0.009860 0.539813 0.154211
H14   H     H_    0.696802 0.994878 0.431003 0.156234
H15   H     H_    0.397995 0.090883 0.586572 0.171695
H16   H     H_    0.569683 0.912290 0.392246 0.158880
N1    N     N_R   0.538098 0.570197 0.976377 -0.185129
N2    N     N_R   0.409013 0.493561 0.017099 -0.191499
N3    N     N_R   0.536879 0.569542 0.045179 -0.182810
N4    N     N_R   0.410017 0.494502 0.948229 -0.192419
N5    N     N_R   0.731690 0.552730 0.540620 -0.094951
N6    N     N_R   0.268310 0.447270 0.459380 -0.093031
O1    O     O_R   0.383120 0.605620 0.479520 -0.626270
O2    O     O_R   0.616880 0.394380 0.520480 -0.629264
O3    O     O_R   0.531890 0.639510 0.505590 -0.600203
O4    O     O_R   0.468110 0.360490 0.494410 -0.597225
O5    O     O_R   0.425590 0.483060 0.588820 -0.607387
O6    O     O_R   0.574410 0.516940 0.411180 -0.621591
O7    O     O_R   0.574360 0.516950 0.614890 -0.617079
O8    O     O_R   0.425640 0.483050 0.385110 -0.613551
Zn1   Zn    Zn3+2 0.400660 0.477370 0.482600 0.948279
Zn2   Zn    Zn3+2 0.599340 0.522630 0.517400 0.942650
C53   C     C_R   0.053001 0.568370 0.703558 0.141410
C54   C     C_R   0.101992 0.504934 0.753871 -0.200522
C55   C     C_R   0.143332 0.527847 0.824059 -0.149833
C56   C     C_R   0.137095 0.614194 0.844355 -0.097337
C57   C     C_R   0.089779 0.677810 0.794409 -0.147536
C58   C     C_R   0.048439 0.655181 0.724129 -0.176244
H17   H     H_    0.107705 0.437761 0.738831 0.122369
H18   H     H_    0.180571 0.478679 0.862635 0.140193
H19   H     H_    0.169379 0.631833 0.898659 0.131660
H20   H     H_    0.085673 0.744746 0.810014 0.127084
H21   H     H_    0.013399 0.705254 0.685605 0.119394
C59   C     C_R   0.951315 0.454018 0.287556 0.123607
C60   C     C_R   0.875866 0.407927 0.261844 -0.169919
C61   C     C_R   0.839346 0.400229 0.187976 -0.128972
C62   C     C_R   0.877460 0.438802 0.139278 -0.102144
C63   C     C_R   0.951895 0.485483 0.164374 -0.146242
C64   C     C_R   0.988439 0.493595 0.238203 -0.166470
H22   H     H_    0.845443 0.377979 0.299009 0.128424
H23   H     H_    0.781336 0.364536 0.168491 0.133807
H24   H     H_    0.849048 0.432853 0.082111 0.128840
H25   H     H_    0.980933 0.515838 0.126610 0.130560
H26   H     H_    0.045125 0.531156 0.256899 0.138486
C65   C     C_3   0.232404 0.551886 0.552380 -0.860720
H27   H     H_    0.173139 0.602428 0.551662 0.208505
H28   H     H_    0.258677 0.524213 0.606377 0.221872
H29   H     H_    0.284725 0.587724 0.542698 0.285235
C66   C     C_3   0.761654 0.456583 0.441055 -0.878260
H30   H     H_    0.729491 0.490303 0.389248 0.235645
H31   H     H_    0.819522 0.407499 0.435339 0.203507
H32   H     H_    0.713074 0.417100 0.453129 0.284351
C67   C     C_R   0.676513 0.504220 0.759146 0.147074
C68   C     C_R   0.735594 0.565783 0.787643 -0.198379
C69   C     C_R   0.830568 0.548047 0.793127 -0.158148
C70   C     C_R   0.867210 0.469388 0.769348 -0.091101
C71   C     C_R   0.809063 0.408478 0.739825 -0.152183
C72   C     C_R   0.714104 0.425471 0.734916 -0.104196
H33   H     H_    0.708485 0.626297 0.807780 0.130839
H34   H     H_    0.875905 0.595078 0.816199 0.139778
H35   H     H_    0.940713 0.455273 0.774232 0.138424
H36   H     H_    0.838197 0.347122 0.722688 0.127566
H37   H     H_    0.670511 0.375963 0.715029 0.103199
C73   C     C_R   0.415601 0.365140 0.263919 0.123374
C74   C     C_R   0.326457 0.344813 0.231429 -0.175141
C75   C     C_R   0.297445 0.269541 0.250594 -0.162629
C76   C     C_R   0.357037 0.213851 0.302127 -0.139579
C77   C     C_R   0.445785 0.233245 0.334558 -0.134912
C78   C     C_R   0.475213 0.308263 0.315470 -0.117812
H38   H     H_    0.279305 0.387354 0.191517 0.130187
H39   H     H_    0.228614 0.254553 0.225643 0.134718
H40   H     H_    0.334467 0.155663 0.316944 0.128451
H41   H     H_    0.492084 0.189783 0.374089 0.141241
H42   H     H_    0.544951 0.321233 0.340118 0.101560
C79   C     C_R   0.436804 0.226289 0.556850 0.154087
C80   C     C_R   0.351632 0.231306 0.505265 -0.085782
C81   C     C_R   0.269336 0.260993 0.524740 -0.147940
C82   C     C_R   0.271547 0.288885 0.594772 -0.127039
C83   C     C_R   0.356030 0.286687 0.645633 -0.142918
C84   C     C_R   0.438499 0.256111 0.626761 -0.160083
H43   H     H_    0.349058 0.209810 0.450919 0.124038
H44   H     H_    0.203817 0.262756 0.485431 0.134581
H45   H     H_    0.207780 0.312242 0.609594 0.121220
H46   H     H_    0.357548 0.307973 0.699927 0.128985
H47   H     H_    0.503475 0.254138 0.666839 0.118592
C85   C     C_R   0.570601 0.784275 0.468525 0.176317
C86   C     C_R   0.598858 0.743286 0.410172 -0.133101
C87   C     C_R   0.692958 0.722479 0.412865 -0.141797
C88   C     C_R   0.759381 0.743122 0.473508 -0.110614
C89   C     C_R   0.731865 0.782845 0.532220 -0.155056
C90   C     C_R   0.637871 0.802088 0.530399 -0.113298
H48   H     H_    0.547683 0.730158 0.362123 0.106643
H49   H     H_    0.714444 0.691364 0.367611 0.120013
H50   H     H_    0.832189 0.727714 0.475255 0.124976
H51   H     H_    0.783419 0.798301 0.579302 0.123523
H52   H     H_    0.617338 0.833308 0.576025 0.120623
C91   C     C_3   0.760567 0.266677 0.575672 -0.863135
H53   H     H_    0.737321 0.318251 0.610048 0.248140
H54   H     H_    0.818661 0.226163 0.611932 0.235448
H55   H     H_    0.786176 0.295261 0.533340 0.242562
C92   C     C_3   0.242854 0.722366 0.404292 -0.838850
H56   H     H_    0.275440 0.673196 0.372390 0.246402
H57   H     H_    0.213475 0.690335 0.442679 0.244051
H58   H     H_    0.185732 0.759749 0.364678 0.236231
C93   C     C_R   0.181736 0.896103 0.449236 0.123408
C94   C     C_R   0.138758 0.961668 0.399199 -0.169912
C95   C     C_R   0.042353 0.979980 0.379787 -0.158425
C96   C     C_R   0.988266 0.932951 0.410004 -0.078395
C97   C     C_R   0.030566 0.869641 0.461649 -0.137921
C98   C     C_R   0.126942 0.851920 0.481910 -0.173940
H59   H     H_    0.179639 0.996112 0.373113 0.130900
H60   H     H_    0.009485 0.029706 0.340442 0.128072
H61   H     H_    0.913623 0.946696 0.394448 0.128632
H62   H     H_    0.988643 0.834177 0.485839 0.127079
H63   H     H_    0.158759 0.801650 0.521072 0.132417
C99   C     C_R   0.800358 0.091922 0.524724 0.129884
C100  C     C_R   0.855094 0.131136 0.488477 -0.175028
C101  C     C_R   0.950584 0.106424 0.503705 -0.137498
C102  C     C_R   0.991687 0.041043 0.553741 -0.079171
C103  C     C_R   0.937007 0.998467 0.586971 -0.162606
C104  C     C_R   0.841635 0.023822 0.572669 -0.162711
H64   H     H_    0.824331 0.183045 0.450662 0.127658
H65   H     H_    0.992837 0.138297 0.477067 0.130245
H66   H     H_    0.065716 0.022222 0.565657 0.131138
H67   H     H_    0.968787 0.946912 0.624846 0.124124
H68   H     H_    0.800606 0.992850 0.601132 0.129608

loop_
_geom_bond_atom_site_label_1
_geom_bond_atom_site_label_2
_ccdc_geom_bond_type
C98   H63   S    
C15   C18   A    
C30   C32   A    
C55   C56   A    
C73   C74   A    
C27   C29   A    
C1    O3    A    
C95   C96   A    
C92   H56   S    
C25   H4    S    
C41   H9    S    
N6    Zn1   S    
O6    Zn2   S    
C55   H18   S    
C28   N6    A    
C26   H3    S    
O2    Zn2   S    
C99   C100  A    
C58   H21   S    
C39   C41   A    
C71   H36   S    
C74   H38   S    
C47   C67   S    
C21   C31   A    
C63   H25   S    
C22   C32   A    
C52   N4    A    
C20   H14   S    
C92   H57   S    
C76   C77   A    
C3    C7    A    
C80   H43   S    
C43   C52   S    
C23   C49   S    
C96   C97   A    
C28   C65   S    
C18   H16   S    
C61   H23   S    
C61   C62   A    
C29   C33   A    
C90   H52   S    
C33   C36   A    
C68   C69   A    
C18   C20   A    
C35   H7    S    
C34   C35   A    
C57   H20   S    
N1    N3    A    
C24   O8    A    
C70   C71   A    
C52   N1    A    
C26   N6    A    
C103  C104  A    
C11   C15   A    
O4    Zn1   S    
C24   O6    A    
C12   C16   A    
C16   C17   A    
C95   H60   S    
C91   H54   S    
C19   H13   S    
C10   C79   S    
C32   C38   A    
C42   H10   S    
N5    Zn2   S    
C5    C13   A    
C99   C104  A    
C4    C8    A    
C70   H35   S    
C56   C57   A    
C48   C50   A    
C62   H24   S    
C27   C66   S    
C86   H48   S    
C59   C64   A    
C6    C99   S    
C65   H28   S    
C42   C44   A    
C44   C46   A    
C60   C61   A    
C96   H61   S    
C45   C47   A    
C24   C50   S    
C94   H59   S    
C81   C82   A    
C46   C48   A    
C17   H15   S    
C79   C84   A    
C68   H33   S    
C30   C34   A    
C1    O1    A    
C14   C20   A    
C92   H58   S    
C85   C86   A    
C75   C76   A    
C47   C49   A    
C78   H42   S    
C101  H65   S    
C93   C94   A    
C5    C7    A    
C13   C19   A    
C72   H37   S    
C6    C8    A    
O3    Zn2   S    
C53   C54   A    
C7    C92   S    
C45   H11   S    
C31   C37   A    
C46   H12   S    
C1    C3    S    
C102  C103  A    
C2    C4    S    
C69   H34   S    
C21   H5    S    
C2    O4    A    
C6    C14   A    
C9    C11   A    
C81   H44   S    
C91   H53   S    
C88   C89   A    
C59   C60   A    
C102  H66   S    
C33   C34   A    
C91   H55   S    
C66   H31   S    
C88   H50   S    
C82   C83   A    
C71   C72   A    
C3    C9    A    
C43   C45   A    
C97   C98   A    
C10   C12   A    
C83   H46   S    
C44   C51   S    
C94   C95   A    
C51   N2    A    
C77   H41   S    
C12   C14   A    
O8    Zn1   S    
C40   H2    S    
C87   H49   S    
C83   C84   A    
C65   H29   S    
C85   C90   A    
C65   H27   S    
C4    C10   A    
C74   C75   A    
O7    Zn2   S    
C2    O2    A    
C101  C102  A    
C35   C37   A    
C100  H64   S    
C79   C80   A    
C37   C53   S    
C64   H26   S    
C21   C25   A    
C56   H19   S    
C23   O7    A    
C66   H30   S    
C39   C49   A    
C54   C55   A    
C84   H47   S    
C75   H39   S    
C41   C43   A    
C60   H22   S    
C36   H8    S    
C82   H45   S    
C22   H6    S    
C53   C58   A    
C51   N3    A    
C93   C98   A    
C100  C101  A    
C97   H62   S    
C9    C85   S    
C69   C70   A    
C62   C63   A    
C54   H17   S    
C28   C30   A    
C77   C78   A    
C29   C31   A    
C27   N5    A    
C104  H68   S    
C36   C38   A    
O5    Zn1   S    
C11   C13   A    
O1    Zn1   S    
C67   C68   A    
C39   H1    S    
C73   C78   A    
C40   C50   A    
C40   C42   A    
C63   C64   A    
C17   C19   A    
C89   H51   S    
C66   H32   S    
C25   N5    A    
C103  H67   S    
C5    C93   S    
C80   C81   A    
C48   C73   S    
C76   H40   S    
C89   C90   A    
C67   C72   A    
C22   C26   A    
C38   C59   S    
C87   C88   A    
N2    N4    A    
C23   O5    A    
C57   C58   A    
C86   C87   A    
C8    C91   S    
C15   C16   A    
