data_mof_unit_54088.cif
_audit_creation_date              2012-12-10T16:38:04-0500
_audit_creation_method            fapswitch 2.2
_symmetry_space_group_name_H-M    P1
_symmetry_Int_Tables_number       1
_space_group_crystal_system       triclinic
_cell_length_a                    28.33591
_cell_length_b                    18.277481
_cell_length_c                    16.964245
_cell_angle_alpha                 90.467968
_cell_angle_beta                  61.044055
_cell_angle_gamma                 90.308298
_cell_volume                      7687.359128

loop_
_atom_site_label
_atom_site_type_symbol
_atom_type_description
_atom_site_fract_x
_atom_site_fract_y
_atom_site_fract_z
_atom_type_partial_charge
C1    C     C_R   0.704717 0.275641 0.674474 0.949330
C2    C     C_R   0.090030 0.503389 0.529423 0.065166
C3    C     C_R   0.189260 0.221416 0.910979 0.044740
C4    C     C_R   0.612379 0.310667 0.052196 0.133041
C5    C     C_R   0.380877 0.673173 0.949305 0.115298
C6    C     C_R   0.386375 0.305773 0.957166 0.113940
C7    C     C_R   0.617245 0.671593 0.050918 0.129312
C8    C     C_R   0.109529 0.813711 0.055315 0.134695
C9    C     C_R   0.885076 0.180911 0.943650 0.116949
C10   C     C_R   0.883871 0.809128 0.957780 0.107180
C11   C     C_R   0.118872 0.169657 0.049951 0.129401
C12   C     C_R   0.644001 0.300627 0.094216 -0.165476
C13   C     C_R   0.404551 0.997199 0.485679 0.069904
C14   C     C_R   0.347996 0.681528 0.909782 -0.241846
C15   C     C_R   0.357793 0.290391 0.910762 -0.211470
C16   C     C_R   0.650667 0.677305 0.088519 -0.227925
C17   C     C_R   0.140851 0.803000 0.097677 -0.166815
C18   C     C_R   0.855079 0.199901 0.901210 -0.246957
C19   C     C_R   0.854901 0.794598 0.912091 -0.213592
C20   C     C_R   0.152607 0.174565 0.087036 -0.228297
C21   C     C_R   0.773840 0.291981 0.762518 -0.199488
C22   C     C_R   0.250052 0.797673 0.211777 -0.141078
C23   C     C_R   0.222915 0.270502 0.238115 -0.142181
C24   C     C_R   0.589834 0.003628 0.530531 0.066493
C25   C     C_R   0.749829 0.798141 0.788790 -0.133459
C26   C     C_R   0.243114 0.693395 0.792320 -0.144248
C27   C     C_R   0.750852 0.300780 0.212424 -0.139801
C28   C     C_R   0.721805 0.771390 0.239667 -0.143634
C29   C     C_R   0.252005 0.295120 0.787384 -0.138242
C30   C     C_R   0.804932 0.277601 0.804564 0.087776
C31   C     C_R   0.218449 0.811077 0.170682 0.054984
C32   C     C_R   0.194782 0.253036 0.192653 0.072722
C33   C     C_R   0.781432 0.810953 0.829994 0.057636
C34   C     C_R   0.271505 0.674901 0.837401 0.051305
C35   C     C_R   0.112721 0.382836 0.462316 -0.203069
C36   C     C_R   0.719153 0.314795 0.171815 0.051919
C37   C     C_R   0.693285 0.754497 0.194626 0.073408
C38   C     C_R   0.284204 0.306692 0.827825 0.056579
C39   C     C_R   0.072177 0.103429 0.936408 0.941893
C40   C     C_R   0.924998 0.900820 0.066632 0.939773
C41   C     C_R   0.928938 0.105064 0.062341 1.024757
C42   C     C_R   0.070789 0.895092 0.937145 0.896977
C43   C     C_R   0.571898 0.603644 0.936580 0.941786
C44   C     C_R   0.425410 0.400342 0.066295 0.939497
C45   C     C_R   0.428524 0.604404 0.062948 1.031226
C46   C     C_R   0.879145 0.616216 0.556299 -0.206797
C47   C     C_R   0.570473 0.394867 0.937625 0.881585
C48   C     C_R   0.520911 0.125725 0.581515 0.085868
C49   C     C_R   0.471382 0.873720 0.441502 0.094694
C50   C     C_R   0.425243 0.119320 0.567480 0.113476
C51   C     C_R   0.564763 0.879120 0.459114 0.115008
C52   C     C_R   0.021391 0.625735 0.579275 0.084700
C53   C     C_R   0.971462 0.373358 0.440854 0.090153
C54   C     C_R   0.925423 0.619057 0.566566 0.112884
C55   C     C_R   0.065015 0.378799 0.458055 0.115385
C56   C     C_R   0.484155 0.184186 0.612352 -0.178848
C57   C     C_R   0.925907 0.372089 0.429179 -0.194804
C58   C     C_R   0.504856 0.812335 0.419617 -0.194785
C59   C     C_R   0.436409 0.180574 0.606587 -0.207065
C60   C     C_R   0.550812 0.814848 0.429665 -0.187379
C61   C     C_R   0.984783 0.684361 0.609889 -0.177836
C62   C     C_R   0.005096 0.312087 0.418478 -0.196797
C63   C     C_R   0.936816 0.680562 0.604941 -0.204838
C64   C     C_R   0.051199 0.314654 0.428135 -0.187360
C65   C     C_R   0.461420 0.060427 0.537168 0.031844
C66   C     C_R   0.530246 0.939396 0.485878 0.027379
C67   C     C_R   0.508623 0.062986 0.545990 0.024744
C68   C     C_R   0.069895 0.628746 0.583381 -0.135429
C69   C     C_R   0.483613 0.937048 0.476179 0.027589
C70   C     C_R   0.961551 0.560085 0.536308 0.031359
C71   C     C_R   0.030402 0.439011 0.485022 0.027349
C72   C     C_R   0.008853 0.562719 0.544701 0.024970
C73   C     C_R   0.983698 0.436644 0.475529 0.025302
C74   C     C_R   0.949771 0.497754 0.499468 -0.028877
C75   C     C_R   0.043332 0.502026 0.519048 -0.024285
C76   C     C_R   0.449724 0.998156 0.500021 -0.026806
C77   C     C_R   0.543148 0.002351 0.520104 -0.024687
C78   C     C_R   0.891603 0.433422 0.451852 -0.008027
C79   C     C_R   0.612517 0.883192 0.463116 -0.203928
C80   C     C_R   0.104911 0.567577 0.558500 0.001755
C81   C     C_R   0.123336 0.441277 0.506972 -0.025179
C82   C     C_R   0.871292 0.558724 0.506466 -0.010328
C83   C     C_R   0.391572 0.933689 0.452300 -0.002935
C84   C     C_R   0.604588 0.067625 0.560179 -0.000614
C85   C     C_R   0.623203 0.941552 0.507732 -0.024395
C86   C     C_R   0.371269 0.059023 0.506823 -0.009253
C87   C     C_R   0.844649 0.434075 0.441497 -0.204780
C88   C     C_R   0.153911 0.566870 0.563582 -0.197728
C89   C     C_R   0.163976 0.439003 0.534417 -0.235319
C90   C     C_R   0.379091 0.116570 0.556720 -0.205451
C91   C     C_R   0.833463 0.561244 0.472771 -0.259913
C92   C     C_R   0.344617 0.934230 0.441893 -0.212984
C93   C     C_R   0.653765 0.066966 0.564661 -0.201392
C94   C     C_R   0.663946 0.939130 0.534896 -0.232847
C95   C     C_R   0.333446 0.061390 0.473046 -0.257367
C96   C     C_R   0.825397 0.499923 0.430702 0.361115
C97   C     C_R   0.173738 0.500849 0.573458 0.387823
C98   C     C_R   0.325411 0.000042 0.430979 0.360101
C99   C     C_R   0.673836 0.000925 0.573928 0.373053
C100  C     C_R   0.425907 0.872427 0.429595 -0.188244
C101  C     C_R   0.298584 0.732968 0.322851 0.992543
C102  C     C_R   0.569281 0.128526 0.586339 -0.136548
C103  C     C_R   0.724177 0.284464 0.950114 -0.015627
C104  C     C_R   0.276771 0.731302 0.047331 -0.006055
C105  C     C_R   0.276645 0.270585 0.050446 0.022180
C106  C     C_R   0.717454 0.740450 0.957976 0.028153
C107  C     C_R   0.213715 0.755168 0.960483 -0.014326
C108  C     C_R   0.784519 0.250282 0.038945 -0.002381
C109  C     C_R   0.774432 0.773948 0.052160 0.022877
C110  C     C_R   0.219793 0.236902 0.956080 0.027321
C111  C     C_R   0.779367 0.265477 0.899043 0.066466
C112  C     C_R   0.292468 0.279570 0.328532 0.963066
C113  C     C_R   0.228282 0.772481 0.091445 0.058919
C114  C     C_R   0.222984 0.245119 0.097445 0.021409
C115  C     C_R   0.767620 0.777301 0.913477 0.016704
C116  C     C_R   0.261331 0.712655 0.917399 0.060959
C117  C     C_R   0.733268 0.284214 0.086754 0.059063
C118  C     C_R   0.720963 0.747946 0.099287 0.021819
C119  C     C_R   0.270359 0.273013 0.911291 0.018833
C120  C     C_R   0.806612 0.238470 0.945388 0.057970
C121  C     C_R   0.194977 0.779892 0.049812 0.023248
C122  C     C_R   0.198793 0.217653 0.047197 0.021872
C123  C     C_R   0.700889 0.734051 0.677442 0.963982
C124  C     C_R   0.799076 0.783737 0.958210 0.010074
C125  C     C_R   0.294409 0.705022 0.958894 0.056042
C126  C     C_R   0.700376 0.291278 0.044599 0.020501
C127  C     C_R   0.696604 0.720863 0.049036 0.022363
C128  C     C_R   0.301781 0.279529 0.956295 0.009434
C129  C     C_R   0.637500 0.315057 0.956664 0.017555
C130  C     C_R   0.359405 0.682322 0.044014 0.042644
C131  C     C_R   0.358253 0.315401 0.052631 -0.008195
C132  C     C_R   0.637756 0.685976 0.957297 0.002857
C133  C     C_R   0.133882 0.808609 0.959632 0.012572
C134  C     C_R   0.201181 0.766846 0.677119 0.936605
C135  C     C_R   0.863524 0.190572 0.038918 0.048259
C136  C     C_R   0.856508 0.817907 0.053391 -0.006690
C137  C     C_R   0.139210 0.184138 0.956402 0.002606
C138  C     C_R   0.609574 0.333653 0.908296 -0.225158
C139  C     C_R   0.388083 0.664351 0.092446 -0.217154
C140  C     C_R   0.378699 0.352806 0.105542 -0.260360
C141  C     C_R   0.610613 0.665370 0.907627 -0.262274
C142  C     C_R   0.108513 0.831950 0.908250 -0.240106
C143  C     C_R   0.889717 0.167165 0.090211 -0.222018
C144  C     C_R   0.877756 0.854046 0.106018 -0.260431
C145  C     C_R   0.798758 0.233147 0.322571 0.987864
C146  C     C_R   0.111458 0.164579 0.907314 -0.261798
C147  C     C_R   0.628072 0.304361 0.822979 0.293580
C148  C     C_R   0.373348 0.698411 0.174784 0.374645
C149  C     C_R   0.347578 0.355415 0.199364 0.308808
C150  C     C_R   0.625447 0.698030 0.824847 0.374068
C151  C     C_R   0.124759 0.800508 0.823780 0.302352
C152  C     C_R   0.874317 0.199632 0.173820 0.374395
C153  C     C_R   0.847014 0.856244 0.199872 0.307506
C154  C     C_R   0.126130 0.197753 0.824971 0.374478
C155  C     C_R   0.683424 0.293217 0.770114 -0.225487
C156  C     C_R   0.792181 0.780031 0.328836 0.962159
C157  C     C_R   0.322045 0.727154 0.223654 -0.198442
C158  C     C_R   0.307081 0.305153 0.238606 -0.249948
C159  C     C_R   0.676475 0.729070 0.776869 -0.212795
C160  C     C_R   0.175915 0.770995 0.776657 -0.194253
C161  C     C_R   0.823048 0.228848 0.222616 -0.199283
C162  C     C_R   0.806352 0.806182 0.239251 -0.249826
C163  C     C_R   0.177321 0.228155 0.776579 -0.214122
C164  C     C_R   0.717150 0.294510 0.811601 0.008709
C165  C     C_R   0.292196 0.745753 0.177880 -0.000853
C166  C     C_R   0.278373 0.285296 0.192506 -0.009871
C167  C     C_R   0.201106 0.233718 0.677376 0.966160
C168  C     C_R   0.705845 0.748628 0.823597 -0.031107
C169  C     C_R   0.202720 0.747559 0.825271 0.012571
C170  C     C_R   0.794664 0.251127 0.175504 0.003034
C171  C     C_R   0.777177 0.786922 0.193627 -0.009623
C172  C     C_R   0.207452 0.246425 0.822531 -0.029478
C173  C     C_R   0.690341 0.130303 0.538772 0.979096
C174  C     C_R   0.309184 0.870237 0.463187 0.964730
C175  C     C_R   0.304682 0.127532 0.477811 0.972539
C176  C     C_R   0.694168 0.872555 0.525735 1.015799
C177  C     C_R   0.190397 0.630224 0.538438 0.965277
C178  C     C_R   0.904578 0.496866 0.485237 0.067382
C179  C     C_R   0.809197 0.370169 0.463036 0.945958
C180  C     C_R   0.804716 0.627499 0.477670 0.973018
C181  C     C_R   0.194193 0.372531 0.525591 1.019212
C182  C     C_R   0.692896 0.297557 0.906354 0.052551
C183  C     C_R   0.309113 0.718871 0.090197 0.027488
C184  C     C_R   0.304503 0.290056 0.098262 0.063674
C185  C     C_R   0.687408 0.724070 0.912341 0.045188
C186  C     C_R   0.183679 0.771151 0.914891 0.038538
C187  C     C_R   0.814095 0.229928 0.084599 0.027692
C188  C     C_R   0.802743 0.792695 0.099514 0.063923
H1    H     H_    0.075569 0.266009 0.414200 0.151325
H2    H     H_    0.850041 0.659477 0.587868 0.169052
H3    H     H_    0.919166 0.323992 0.398529 0.215201
H4    H     H_    0.078541 0.677837 0.609835 0.216970
H5    H     H_    0.640784 0.840364 0.428787 0.161445
H6    H     H_    0.349998 0.159872 0.588119 0.169285
H7    H     H_    0.419222 0.824369 0.398780 0.210531
H8    H     H_    0.577702 0.176942 0.614517 0.219628
H9    H     H_    0.623072 0.294540 0.166621 0.175507
H10   H     H_    0.367460 0.677275 0.837242 0.164358
H11   H     H_    0.380631 0.282084 0.838835 0.157733
H12   H     H_    0.909296 0.726548 0.629039 0.139172
H13   H     H_    0.636581 0.653973 0.154157 0.151638
H14   H     H_    0.120166 0.805273 0.170418 0.175198
H15   H     H_    0.871596 0.184247 0.831374 0.168875
H16   H     H_    0.877363 0.786839 0.840015 0.157630
H17   H     H_    0.138499 0.151506 0.152844 0.151760
H18   H     H_    0.795177 0.303085 0.691091 0.161664
H19   H     H_    0.243798 0.834727 0.265742 0.210693
H20   H     H_    0.199223 0.279615 0.309398 0.160928
H21   H     H_    0.758334 0.833534 0.733036 0.215351
H22   H     H_    0.250128 0.658908 0.735834 0.216622
H23   H     H_    0.995712 0.262233 0.393835 0.164846
H24   H     H_    0.742326 0.335102 0.269620 0.212032
H25   H     H_    0.698405 0.779261 0.311177 0.161467
H26   H     H_    0.260552 0.331070 0.732102 0.211687
H27   H     H_    0.798742 0.584295 0.261144 0.380652
H28   H     H_    0.190370 0.427153 0.757726 0.375206
H29   H     H_    0.299025 0.084330 0.261062 0.380291
H30   H     H_    0.688309 0.929367 0.760444 0.378960
H31   H     H_    0.581911 0.348628 0.721880 0.348748
H32   H     H_    0.431824 0.842974 0.244145 0.387381
H33   H     H_    0.256720 0.447974 0.332330 0.323977
H34   H     H_    0.993106 0.733022 0.638027 0.166241
H35   H     H_    0.562768 0.806028 0.719346 0.377282
H36   H     H_    0.080439 0.845562 0.710058 0.355495
H37   H     H_    0.931957 0.343817 0.243765 0.387939
H38   H     H_    0.756918 0.949099 0.333723 0.323355
H39   H     H_    0.063227 0.307255 0.721135 0.378008
H40   H     H_    0.540687 0.354375 0.144056 0.209016
H41   H     H_    0.535344 0.295150 0.070463 0.205820
H42   H     H_    0.449135 0.714396 0.847677 0.227481
H43   H     H_    0.444940 0.622601 0.847801 0.198749
H44   H     H_    0.457691 0.348053 0.865298 0.235236
H45   H     H_    0.574974 0.766071 0.416404 0.151787
H46   H     H_    0.460587 0.299285 0.948417 0.228580
H47   H     H_    0.538079 0.683849 0.084493 0.275419
H48   H     H_    0.549948 0.620524 0.146877 0.216058
H49   H     H_    0.040210 0.864328 0.146337 0.211882
H50   H     H_    0.031258 0.803310 0.077186 0.206730
H51   H     H_    0.957371 0.205105 0.837983 0.242492
H52   H     H_    0.941435 0.115872 0.848220 0.184749
H53   H     H_    0.954091 0.852062 0.865293 0.241935
H54   H     H_    0.958185 0.802645 0.946971 0.237535
H55   H     H_    0.039702 0.184190 0.084425 0.275736
H56   H     H_    0.408827 0.226482 0.630790 0.139080
H57   H     H_    0.051050 0.119836 0.146421 0.216137
H58   H     H_    0.871975 0.336083 0.725112 0.198912
H59   H     H_    0.875394 0.246466 0.697741 0.185276
H60   H     H_    0.202378 0.918632 0.200638 0.212980
H61   H     H_    0.153881 0.861038 0.272224 0.183233
H62   H     H_    0.120690 0.279496 0.204942 0.229775
H63   H     H_    0.120418 0.209021 0.273132 0.173941
H64   H     H_    0.822097 0.899629 0.843378 0.208624
H65   H     H_    0.858453 0.846046 0.748828 0.173824
H66   H     H_    0.334636 0.619671 0.739478 0.183961
H67   H     H_    0.495418 0.762406 0.395186 0.163756
H68   H     H_    0.282259 0.566443 0.809498 0.221039
H69   H     H_    0.694191 0.417785 0.217162 0.211786
H70   H     H_    0.650166 0.351142 0.277802 0.182912
H71   H     H_    0.618585 0.780196 0.208946 0.229167
H72   H     H_    0.619527 0.709042 0.275395 0.173668
H73   H     H_    0.325334 0.395129 0.840298 0.208207
H74   H     H_    0.361778 0.340042 0.747202 0.174394
H75   H     H_    0.492222 0.232622 0.641185 0.168730
H76   H     H_    0.140995 0.339916 0.428218 0.161257
N1    N     N_3   0.554861 0.305356 0.108215 -0.430520
N2    N     N_3   0.181022 0.870771 0.204327 -0.472468
N3    N     N_3   0.137220 0.259203 0.243658 -0.479153
N4    N     N_3   0.820793 0.868424 0.792569 -0.455832
N5    N     N_3   0.305720 0.611694 0.806871 -0.464494
N6    N     N_3   0.677060 0.368251 0.212405 -0.470126
N7    N     N_3   0.635731 0.759648 0.246618 -0.480307
N8    N     N_3   0.324241 0.363275 0.789758 -0.466276
N9    N     N_3   0.437684 0.668488 0.889387 -0.338481
N10   N     N_3   0.443803 0.301655 0.905880 -0.347417
N11   N     N_3   0.560910 0.671452 0.115285 -0.386726
N12   N     N_3   0.051987 0.813951 0.112899 -0.430622
N13   N     N_3   0.940339 0.162852 0.884752 -0.335607
N14   N     N_3   0.941043 0.805179 0.905092 -0.341573
N15   N     N_3   0.062600 0.170686 0.114770 -0.389498
N16   N     N_3   0.862444 0.283299 0.751737 -0.466466
O1    O     O_R   0.746490 0.236330 0.638080 -0.617503
O2    O     O_R   0.325830 0.813840 0.483730 -0.645285
O3    O     O_R   0.325830 0.186160 0.483730 -0.652554
O4    O     O_R   0.674170 0.813840 0.516270 -0.669195
O5    O     O_R   0.174170 0.686160 0.516270 -0.654086
O6    O     O_R   0.825830 0.313840 0.483730 -0.661901
O7    O     O_R   0.825830 0.686160 0.483730 -0.651655
O8    O     O_R   0.174170 0.313840 0.516270 -0.669191
O9    O     O_R   0.739960 0.127620 0.525000 -0.548416
O10   O     O_R   0.260040 0.872380 0.475000 -0.575695
O11   O     O_R   0.260040 0.127620 0.475000 -0.556337
O12   O     O_R   0.253510 0.763670 0.361920 -0.660498
O13   O     O_R   0.739960 0.872380 0.525000 -0.516322
O14   O     O_R   0.239960 0.627620 0.525000 -0.554747
O15   O     O_R   0.760040 0.372380 0.475000 -0.581235
O16   O     O_R   0.760040 0.627620 0.475000 -0.556761
O17   O     O_R   0.239960 0.372380 0.525000 -0.516122
O18   O     O_R   0.680700 0.294870 0.629350 -0.619237
O19   O     O_R   0.319300 0.705130 0.370650 -0.548483
O20   O     O_R   0.319300 0.294870 0.370650 -0.554195
O21   O     O_R   0.680700 0.705130 0.629350 -0.566741
O22   O     O_R   0.180700 0.794870 0.629350 -0.619891
O23   O     O_R   0.253510 0.236330 0.361920 -0.653905
O24   O     O_R   0.819300 0.205130 0.370650 -0.547401
O25   O     O_R   0.819300 0.794870 0.370650 -0.553344
O26   O     O_R   0.180700 0.205130 0.629350 -0.565869
O27   O     O_R   0.062020 0.072840 0.007170 -0.660475
O28   O     O_R   0.937980 0.927160 0.992830 -0.651182
O29   O     O_R   0.937980 0.072840 0.992830 -0.621120
O30   O     O_R   0.062020 0.927160 0.007170 -0.644497
O31   O     O_R   0.562020 0.572840 0.007170 -0.659287
O32   O     O_R   0.437980 0.427160 0.992830 -0.649488
O33   O     O_R   0.437980 0.572840 0.992830 -0.621026
O34   O     O_R   0.746490 0.763670 0.638080 -0.670936
O35   O     O_R   0.562020 0.427160 0.007170 -0.637223
O36   O     O_R   0.947860 0.073950 0.109290 -0.535717
O37   O     O_R   0.052140 0.926050 0.890710 -0.580303
O38   O     O_R   0.052140 0.073950 0.890710 -0.550753
O39   O     O_R   0.947860 0.926050 0.109290 -0.557319
O40   O     O_R   0.447860 0.573950 0.109290 -0.538751
O41   O     O_R   0.552140 0.426050 0.890710 -0.602023
O42   O     O_R   0.552140 0.573950 0.890710 -0.551650
O43   O     O_R   0.447860 0.426050 0.109290 -0.556408
O44   O     O_2   0.818124 0.439830 0.290985 -0.286362
O45   O     O_R   0.246490 0.736330 0.638080 -0.650422
O46   O     O_2   0.738179 0.503154 0.406275 -0.309674
O47   O     O_3   0.819727 0.581636 0.293754 -0.539129
O48   O     O_2   0.262743 0.496872 0.593088 -0.274489
O49   O     O_2   0.183995 0.561577 0.709563 -0.310926
O50   O     O_3   0.181471 0.419703 0.708510 -0.533362
O51   O     O_2   0.318364 0.939889 0.291064 -0.287135
O52   O     O_2   0.238335 0.003202 0.406137 -0.308841
O53   O     O_3   0.319940 0.081693 0.293797 -0.539899
O54   O     O_2   0.763598 0.995632 0.591341 -0.258374
O55   O     O_2   0.686119 0.062091 0.708057 -0.268376
O56   O     O_R   0.753510 0.263670 0.361920 -0.662336
O57   O     O_3   0.681906 0.920204 0.708771 -0.541268
O58   O     O_2   0.607987 0.192268 0.737988 -0.265946
O59   O     O_2   0.538098 0.225147 0.888003 -0.282899
O60   O     O_3   0.554021 0.311248 0.755355 -0.574843
O61   O     O_2   0.444547 0.680441 0.234831 -0.304270
O62   O     O_2   0.469165 0.762080 0.105226 -0.318962
O63   O     O_3   0.400664 0.809376 0.263546 -0.563911
O64   O     O_2   0.385278 0.431867 0.294483 -0.233662
O65   O     O_2   0.351644 0.502984 0.210110 -0.326043
O66   O     O_3   0.282155 0.441335 0.356173 -0.558802
O67   O     O_R   0.753510 0.736330 0.361920 -0.653684
O68   O     O_2   0.563738 0.660972 0.750111 -0.325348
O69   O     O_2   0.524262 0.740002 0.885091 -0.289321
O70   O     O_3   0.592484 0.797912 0.733253 -0.512763
O71   O     O_2   0.098491 0.699435 0.734616 -0.294625
O72   O     O_2   0.032560 0.728213 0.888224 -0.281637
O73   O     O_3   0.049107 0.823971 0.762955 -0.581334
O74   O     O_2   0.944778 0.180003 0.235210 -0.301927
O75   O     O_2   0.970380 0.262426 0.106104 -0.319017
O76   O     O_3   0.901261 0.309262 0.264350 -0.564105
O77   O     O_2   0.885617 0.931276 0.294644 -0.233375
O78   O     O_R   0.246490 0.263670 0.638080 -0.671834
O79   O     O_2   0.852001 0.003647 0.211186 -0.325388
O80   O     O_3   0.782476 0.942021 0.357223 -0.558018
O81   O     O_2   0.064518 0.161907 0.749906 -0.326964
O82   O     O_2   0.024810 0.239691 0.886106 -0.291918
O83   O     O_3   0.092925 0.298902 0.735029 -0.510861
O84   O     O_R   0.674170 0.186160 0.516270 -0.651790
S1    S     S_3+6 0.798791 0.504298 0.354402 0.047612
S2    S     S_3+6 0.925057 0.236683 0.194448 0.026457
S3    S     S_3+6 0.843425 0.935546 0.265368 0.059946
S4    S     S_3+6 0.074973 0.223237 0.799041 0.037351
S5    S     S_3+6 0.202204 0.496561 0.646947 0.054730
S6    S     S_3+6 0.298951 0.004367 0.354460 0.046773
S7    S     S_3+6 0.703111 0.996550 0.646264 0.073932
S8    S     S_3+6 0.581346 0.255619 0.800794 0.043958
S9    S     S_3+6 0.424315 0.736482 0.194134 0.024778
S10   S     S_3+6 0.343291 0.435176 0.264674 0.059999
S11   S     S_3+6 0.574390 0.722848 0.798321 0.039105
S12   S     S_3+6 0.075241 0.760744 0.802021 0.033110
Zn1   Zn    Zn3+2 0.792340 0.208750 0.507670 1.094048
Zn2   Zn    Zn3+2 0.494040 0.500000 0.919480 1.004765
Zn3   Zn    Zn3+2 0.005960 1.000000 0.080520 1.029556
Zn4   Zn    Zn3+2 0.994040 0.000000 0.919480 1.015851
Zn5   Zn    Zn3+2 0.207660 0.791250 0.492330 1.012508
Zn6   Zn    Zn3+2 0.207660 0.208750 0.492330 1.044002
Zn7   Zn    Zn3+2 0.792340 0.791250 0.507670 1.084312
Zn8   Zn    Zn3+2 0.292340 0.708750 0.507670 1.079485
Zn9   Zn    Zn3+2 0.707660 0.291250 0.492330 1.013713
Zn10  Zn    Zn3+2 0.707660 0.708750 0.492330 1.043128
Zn11  Zn    Zn3+2 0.292340 0.291250 0.507670 1.081284
Zn12  Zn    Zn3+2 0.505960 0.500000 0.080520 1.031690

loop_
_geom_bond_atom_site_label_1
_geom_bond_atom_site_label_2
_ccdc_geom_bond_type
O76   S2    S    
C44   O32   A    
O43   Zn12  S    
C129  C182  A    
C88   C177  S    
O67   Zn10  S    
O82   S4    D    
C41   O29   A    
C112  C158  S    
H38   O80   S    
C50   C59   A    
C123  O21   A    
H62   N3    S    
C41   C143  S    
O55   S7    D    
C52   C61   A    
C12   C126  A    
C54   C63   A    
C58   C60   A    
C45   C139  S    
C167  O26   A    
H47   N11   S    
H43   N9    S    
O79   S3    D    
H59   N16   S    
C61   C63   A    
C103  C126  A    
C95   C175  S    
H73   N8    S    
C62   C64   A    
C131  C140  A    
C91   C96   A    
C50   C90   A    
H29   O53   S    
C162  C171  A    
C41   O36   A    
C170  C187  A    
C70   C74   A    
C18   H15   S    
O56   Zn9   S    
O7    Zn7   S    
C4    C12   A    
C147  C155  A    
C24   C85   A    
C88   C97   A    
C145  O24   A    
C119  C128  A    
C177  O14   A    
C49   C69   A    
C42   O30   A    
C31   N2    S    
O59   S8    D    
C109  C118  A    
O25   Zn7   S    
C11   C20   A    
C150  C159  A    
C60   H45   S    
C165  C183  A    
C1    O18   A    
C166  C184  A    
O78   Zn11  S    
C86   C90   A    
H55   N15   S    
C71   C73   A    
C4    N1    S    
C47   O35   A    
C106  C127  A    
C82   C91   A    
H33   O66   S    
C51   C66   A    
C89   C181  S    
C35   H76   S    
C52   C72   A    
C131  C184  A    
C105  C114  A    
C146  C154  A    
O57   S7    S    
C123  O34   A    
C163  C172  A    
O84   Zn9   S    
C8    N12   S    
C40   O39   A    
C38   C119  A    
C5    C130  A    
C83   C100  A    
H42   N9    S    
C99   S7    S    
H49   N12   S    
C5    N9    S    
H54   N14   S    
O53   S6    S    
H63   N3    S    
C79   C85   A    
C152  S2    S    
H68   N5    S    
C66   C77   A    
C57   C78   A    
O72   S12   D    
C176  O13   A    
O19   Zn8   S    
O80   S3    S    
O71   S12   D    
O77   S3    D    
C156  O25   A    
C30   N16   S    
C8    C17   A    
C56   C59   A    
C181  O17   A    
C106  C115  A    
O73   S12   S    
C80   C88   A    
C23   C32   A    
C1    O1    A    
C177  O5    A    
C145  C161  S    
H72   N7    S    
O47   S1    S    
C93   C173  S    
O44   S1    D    
C105  C184  A    
C86   C95   A    
C24   C77   A    
C104  C183  A    
O65   S10   D    
C36   N6    S    
C2    C81   A    
H28   O50   S    
C101  O12   A    
C55   C71   A    
C2    C75   A    
O13   Zn7   S    
C78   C87   A    
C134  C160  S    
O3    Zn11  S    
O83   S4    S    
C39   O27   A    
O12   Zn5   S    
C67   C77   A    
O20   Zn11  S    
C42   O37   A    
C133  C142  A    
C123  C159  S    
C147  S8    S    
C32   N3    S    
C101  O19   A    
C156  O67   A    
C130  C183  A    
C3    C110  A    
C69   C76   A    
C85   C94   A    
C39   O38   A    
C61   H34   S    
C181  O8    A    
C46   C82   A    
C29   C38   A    
H30   O57   S    
O52   S6    D    
O6    Zn1   S    
O26   Zn6   S    
C149  C158  A    
C20   C122  A    
C152  C161  A    
C84   C93   A    
C135  C143  A    
O34   Zn7   S    
C48   C67   A    
C136  C188  A    
O9    Zn1   S    
C20   H17   S    
C72   C75   A    
C135  C187  A    
C141  C150  A    
C25   C168  A    
C139  C148  A    
C33   N4    S    
H44   N10   S    
C56   H75   S    
C157  C165  A    
O17   Zn11  S    
H41   N1    S    
C92   C174  S    
O75   S2    D    
O48   S5    D    
C59   H56   S    
C21   H18   S    
O11   Zn6   S    
O46   S1    D    
O70   S11   S    
C91   C180  S    
H37   O76   S    
C26   H22   S    
O51   S6    D    
O2    Zn8   S    
O41   Zn2   S    
C45   O33   A    
C9    C135  A    
C148  S9    S    
O81   S4    D    
C116  C125  A    
C118  C127  A    
H71   N7    S    
O23   Zn6   S    
C117  C126  A    
C28   H25   S    
H53   N14   S    
C145  O56   A    
C110  C119  A    
O14   Zn8   S    
C149  S10   S    
H66   N5    S    
C79   H5    S    
C175  O11   A    
C180  O7    A    
C176  O4    A    
C28   C37   A    
C47   C138  S    
C27   H24   S    
C148  C157  A    
C6    N10   S    
C16   C127  A    
C51   C79   A    
C107  C116  A    
H40   N1    S    
H74   N8    S    
C104  C113  A    
C9    C18   A    
C113  C121  A    
C167  O78   A    
O31   Zn12  S    
C51   C60   A    
C37   N7    S    
C40   O28   A    
C38   N8    S    
C140  C149  A    
C31   C113  A    
C25   C33   A    
O30   Zn3   S    
O5    Zn5   S    
O27   Zn3   S    
C73   C74   A    
C179  O15   A    
O54   S7    D    
H27   O47   S    
O38   Zn4   S    
C64   H1    S    
C107  C186  A    
C112  O20   A    
C65   C76   A    
C171  C188  A    
O37   Zn4   S    
O68   S11   D    
C169  C186  A    
C57   H3    S    
C108  C120  A    
C3    C172  A    
C153  S3    S    
C97   S5    S    
C132  C141  A    
C84   C102  A    
C63   H12   S    
H32   O63   S    
C103  C111  A    
O8    Zn6   S    
C108  C187  A    
H64   N4    S    
C104  C125  A    
C65   C67   A    
C160  C169  A    
C3    C137  A    
C93   C99   A    
C81   C89   A    
C101  C157  S    
O21   Zn10  S    
C44   C140  S    
C21   C164  A    
C180  O16   A    
C9    N13   S    
C43   O42   A    
H50   N12   S    
C130  C139  A    
C108  C117  A    
C11   N15   S    
H65   N4    S    
C174  O2    A    
C33   C115  A    
O24   Zn1   S    
C53   C57   A    
O15   Zn9   S    
C47   O41   A    
O32   Zn2   S    
C132  C185  A    
C137  C146  A    
C90   H6    S    
C10   C19   A    
C48   C102  A    
C46   C54   A    
C58   H67   S    
H57   N15   S    
O61   S9    D    
C27   C170  A    
C5    C14   A    
C17   C121  A    
C143  C152  A    
C15   C128  A    
C150  S11   S    
C43   C141  S    
C107  C121  A    
O64   S10   D    
C16   H13   S    
C158  C166  A    
C100  H7    S    
C173  O9    A    
C115  C124  A    
C78   C178  A    
C106  C185  A    
C6    C131  A    
C4    C129  A    
C27   C36   A    
C21   C30   A    
C13   C83   A    
C153  C162  A    
H48   N11   S    
H36   O73   S    
C11   C137  A    
C136  C144  A    
C110  C122  A    
O28   Zn4   S    
C29   H26   S    
O10   Zn5   S    
H51   N13   S    
C39   C146  S    
C19   H16   S    
C22   H19   S    
O62   S9    D    
O4    Zn10  S    
C17   H14   S    
H70   N6    S    
H35   O70   S    
C164  C182  A    
C154  S4    S    
O1    Zn1   S    
C94   C176  S    
C68   C80   A    
C74   C178  A    
O74   S2    D    
C23   H20   S    
C103  C182  A    
H39   O83   S    
O22   Zn5   S    
C35   C81   A    
C95   C98   A    
C92   C98   A    
C83   C92   A    
C14   H10   S    
C14   C125  A    
O66   S10   S    
C43   O31   A    
C10   C136  A    
O63   S9    S    
C7    N11   S    
C66   C69   A    
H60   N2    S    
C68   H4    S    
C34   C116  A    
C112  O23   A    
O49   S5    D    
C159  C168  A    
C144  C153  A    
C1    C155  S    
C6    C15   A    
C22   C165  A    
C26   C34   A    
C98   S6    S    
C37   C118  A    
H58   N16   S    
O45   Zn8   S    
H31   O60   S    
C54   C70   A    
C13   C86   A    
C42   C142  S    
C62   H23   S    
C34   N5    S    
C96   S1    S    
C45   O40   A    
C52   C68   A    
O33   Zn2   S    
C156  C162  S    
O60   S8    S    
C82   C178  A    
C175  O3    A    
O35   Zn12  S    
C46   H2    S    
C50   C65   A    
C109  C188  A    
C19   C124  A    
C22   C31   A    
C129  C138  A    
C173  O84   A    
C35   C55   A    
O40   Zn12  S    
C154  C163  A    
C26   C169  A    
C44   O43   A    
O50   S5    S    
C49   C58   A    
C89   C97   A    
C111  C120  A    
H61   N2    S    
O36   Zn3   S    
C163  C167  S    
C36   C117  A    
C134  O45   A    
C23   C166  A    
C15   H11   S    
C53   C62   A    
C28   C171  A    
C13   C76   A    
C138  C147  A    
C12   H9    S    
C87   C96   A    
O42   Zn2   S    
C7    C132  A    
C10   N14   S    
C25   H21   S    
C133  C186  A    
C161  C170  A    
C40   C144  S    
C18   C120  A    
C151  S12   S    
C48   C56   A    
O16   Zn10  S    
C7    C16   A    
C168  C185  A    
C105  C128  A    
C8    C133  A    
C53   C73   A    
O29   Zn4   S    
C102  H8    S    
O39   Zn3   S    
C109  C124  A    
C55   C64   A    
C155  C164  A    
C142  C151  A    
O69   S11   D    
C179  O6    A    
H46   N10   S    
C30   C111  A    
C151  C160  A    
C24   C84   A    
O58   S8    D    
C49   C100  A    
C71   C75   A    
C94   C99   A    
O18   Zn9   S    
C29   C172  A    
C2    C80   A    
C87   C179  S    
C114  C122  A    
C174  O10   A    
H52   N13   S    
C70   C72   A    
H69   N6    S    
C134  O22   A    
C32   C114  A    
