data_mof_unit_24140.cif
_audit_creation_date              2012-12-10T19:43:26-0500
_audit_creation_method            fapswitch 2.2
_symmetry_space_group_name_H-M    P1
_symmetry_Int_Tables_number       1
_space_group_crystal_system       triclinic
_cell_length_a                    10.860383
_cell_length_b                    10.875025
_cell_length_c                    9.587192
_cell_angle_alpha                 89.891616
_cell_angle_beta                  91.036804
_cell_angle_gamma                 91.803046
_cell_volume                      1131.56697391

loop_
_atom_site_label
_atom_site_type_symbol
_atom_type_description
_atom_site_fract_x
_atom_site_fract_y
_atom_site_fract_z
_atom_type_partial_charge
C1    C     C_R   0.506915 0.262419 0.501573 0.802857
C2    C     C_R   0.206220 0.724796 0.021056 -0.115582
C3    C     C_R   0.932681 0.543198 0.387139 -0.250015
C4    C     C_R   0.871574 0.495229 0.503490 -0.076018
C5    C     C_R   0.940204 0.449097 0.617671 -0.004709
C6    C     C_R   0.067887 0.453614 0.612887 -0.244782
C7    C     C_R   0.128693 0.502552 0.497087 -0.083122
C8    C     C_R   0.060389 0.547977 0.382782 -0.002452
C9    C     C_R   0.874509 0.458823 0.864808 -0.132013
C10   C     C_R   0.836447 0.400759 0.987588 -0.149173
C11   C     C_R   0.812946 0.273797 0.989341 -0.129201
C12   C     C_R   0.262543 0.502051 0.498749 0.793350
C13   C     C_R   0.825344 0.205023 0.867627 -0.157115
C14   C     C_R   0.859891 0.263391 0.743552 -0.158397
C15   C     C_R   0.884899 0.390736 0.741719 0.138288
C16   C     C_R   0.537630 0.115030 0.767922 -0.287032
C17   C     C_R   0.509644 0.053333 0.892510 0.441014
C18   C     C_R   0.453820 0.937152 0.886154 -0.136203
C19   C     C_R   0.433950 0.879554 0.758025 -0.265928
C20   C     C_R   0.473659 0.935807 0.632524 0.101536
C21   C     C_R   0.508591 0.061544 0.635923 0.061120
C22   C     C_R   0.512308 0.127773 0.507332 -0.116717
C23   C     C_R   0.490952 0.737121 0.500526 0.777602
C24   C     C_R   0.506047 0.063532 0.381038 -0.202991
C25   C     C_R   0.495963 0.936606 0.379602 -0.213360
C26   C     C_R   0.481400 0.871170 0.504262 -0.111888
C27   C     C_R   0.658283 0.667445 0.146395 -0.179975
C28   C     C_R   0.733658 0.750687 0.075321 -0.208463
C29   C     C_R   0.733554 0.750494 0.931725 -0.209468
C30   C     C_R   0.658533 0.666595 0.858464 -0.140838
C31   C     C_R   0.577492 0.582365 0.926441 0.211961
C32   C     C_R   0.577396 0.582532 0.076043 0.209827
C33   C     C_R   0.425874 0.422078 0.072572 -0.044837
C34   C     C_R   0.737538 0.496753 0.501435 0.776910
C35   C     C_R   0.425919 0.422095 0.924617 -0.085654
C36   C     C_R   0.216316 0.783743 0.150425 -0.136586
C37   C     C_R   0.172173 0.724626 0.269873 -0.117921
C38   C     C_R   0.117570 0.606221 0.259824 0.135051
C39   C     C_R   0.110532 0.546419 0.130246 -0.150468
C40   C     C_R   0.155042 0.605675 0.011192 -0.138298
Cu1   Cu    Cu3+1 0.499990 0.499990 0.640660 0.923951
Cu2   Cu    Cu3+1 0.500010 0.500010 0.359340 0.939574
H1    H     H_    0.236604 0.771723 0.928120 0.116837
H2    H     H_    0.785907 0.228630 0.085213 0.147751
H3    H     H_    0.807880 0.106484 0.869357 0.144219
H4    H     H_    0.870724 0.209083 0.650237 0.122435
H5    H     H_    0.510402 0.111689 0.282555 0.219227
H6    H     H_    0.587246 0.201757 0.777662 0.185450
H7    H     H_    0.428045 0.890212 0.981331 0.148422
H8    H     H_    0.384641 0.792032 0.759214 0.177825
H9    H     H_    0.499264 0.889806 0.280116 0.184247
H10   H     H_    0.365087 0.358205 0.126723 0.146483
H11   H     H_    0.256427 0.875926 0.157851 0.131080
H12   H     H_    0.668979 0.673369 0.256234 0.202547
H13   H     H_    0.794005 0.814636 0.132465 0.156715
H14   H     H_    0.793954 0.814122 0.876408 0.147287
H15   H     H_    0.670238 0.670430 0.749040 0.202910
H16   H     H_    0.365251 0.358116 0.868231 0.144532
H17   H     H_    0.178088 0.771802 0.369300 0.106724
H18   H     H_    0.069850 0.454542 0.121619 0.131316
H19   H     H_    0.148518 0.559956 0.911080 0.133335
H20   H     H_    0.880969 0.580587 0.300001 0.150885
H21   H     H_    0.120086 0.416035 0.699722 0.152804
H22   H     H_    0.898231 0.556223 0.866032 0.134864
H23   H     H_    0.827902 0.453713 0.082122 0.144276
N1    N     N_R   0.501190 0.501210 0.147910 -0.197109
N2    N     N_R   0.501230 0.501290 0.852040 -0.202785
O1    O     O_R   0.499990 0.319640 0.618810 -0.588676
O2    O     O_R   0.500000 0.319660 0.381240 -0.581107
O3    O     O_R   0.319640 0.500000 0.618780 -0.592162
O4    O     O_R   0.319650 0.500020 0.381210 -0.566228
O5    O     O_R   0.500000 0.680340 0.618760 -0.609240
O6    O     O_R   0.500010 0.680360 0.381190 -0.596671
O7    O     O_R   0.680350 0.499980 0.618790 -0.593487
O8    O     O_R   0.680360 0.500000 0.381220 -0.605962
O9    O     O_3   0.533150 0.105377 0.021496 -0.780944
H24   H     H_    0.564046 0.191267 0.008632 0.318365

loop_
_geom_bond_atom_site_label_1
_geom_bond_atom_site_label_2
_ccdc_geom_bond_type
C16   C21   A    
C9    H22   S    
Cu1   Cu2   S    
C19   C20   A    
C16   H6    S    
C27   H12   S    
C7    C8    A    
C14   H4    S    
C33   H10   S    
C31   N2    A    
Cu2   O8    S    
C29   C30   A    
C35   H16   S    
C36   C37   A    
C5    C6    A    
C3    H20   S    
C30   H15   S    
C1    O1    A    
C18   C19   A    
C23   C26   S    
C36   H11   S    
Cu1   O7    S    
C16   C17   A    
C17   O9    S    
C9    C10   A    
C34   O8    A    
C1    C22   S    
C21   C22   A    
C8    C38   S    
C23   O6    A    
C28   H13   S    
C33   N1    A    
Cu1   O1    S    
C7    C12   S    
C4    C34   S    
C38   C39   A    
O9    H24   S    
Cu1   N2    S    
C3    C8    A    
C39   C40   A    
C25   C26   A    
Cu2   O2    S    
C1    O2    A    
C40   H19   S    
C6    H21   S    
C25   H9    S    
C37   C38   A    
C31   C32   A    
C35   N2    A    
C2    H1    S    
C17   C18   A    
C11   H2    S    
C24   C25   A    
C37   H17   S    
C34   O7    A    
Cu1   O5    S    
C12   O4    A    
C22   C24   A    
C3    C4    A    
C32   N1    A    
C10   H23   S    
C2    C36   A    
C12   O3    A    
C28   C29   A    
Cu2   O6    S    
C27   C32   A    
C24   H5    S    
C23   O5    A    
C4    C5    A    
C6    C7    A    
C29   H14   S    
C9    C15   A    
C13   H3    S    
C11   C13   A    
C19   H8    S    
C30   C31   A    
C20   C26   A    
C39   H18   S    
Cu2   O4    S    
C33   C35   A    
C5    C15   S    
C10   C11   A    
C2    C40   A    
C20   C21   A    
C27   C28   A    
Cu2   N1    S    
C14   C15   A    
C13   C14   A    
C18   H7    S    
Cu1   O3    S    
