data_mof_unit_50394.cif
_audit_creation_date              2012-12-10T20:57:52-0500
_audit_creation_method            fapswitch 2.2
_symmetry_space_group_name_H-M    P1
_symmetry_Int_Tables_number       1
_space_group_crystal_system       triclinic
_cell_length_a                    18.233063
_cell_length_b                    18.309361
_cell_length_c                    18.402825
_cell_angle_alpha                 120.063839
_cell_angle_beta                  89.916014
_cell_angle_gamma                 120.021438
_cell_volume                      4341.70472534

loop_
_atom_site_label
_atom_site_type_symbol
_atom_type_description
_atom_site_fract_x
_atom_site_fract_y
_atom_site_fract_z
_atom_type_partial_charge
C1    C     C_R   0.361256 0.220292 0.361270 0.819322
C2    C     C_3   0.792049 0.942033 0.684613 0.226718
C3    C     C_3   0.798203 0.676363 0.081181 -0.825187
C4    C     C_3   0.296851 0.893996 0.664127 -0.804621
C5    C     C_3   0.088196 0.521077 0.474937 -0.810493
C6    C     C_3   0.362431 0.377210 0.739987 -0.732645
C7    C     C_3   0.698785 0.897458 0.698095 -0.004620
C8    C     C_R   0.640971 0.780914 0.639217 0.879050
C9    C     C_3   0.799293 0.102433 0.803069 0.027605
C10   C     C_3   0.773547 0.058772 0.860242 0.202405
C11   C     C_3   0.849997 0.061871 0.745526 -0.400314
C12   C     C_3   0.638967 0.423106 0.201256 -0.394875
C13   C     C_3   0.698757 0.427986 0.142865 -0.435264
C14   C     C_3   0.763619 0.610430 0.324833 0.213230
C15   C     C_3   0.754248 0.463893 0.316752 0.150392
C16   C     C_3   0.291150 0.590341 0.358478 -0.485818
C17   C     C_3   0.697599 0.499339 0.301436 0.026985
C18   C     C_3   0.799462 0.499281 0.200060 0.024255
C19   C     C_3   0.823861 0.610088 0.265090 -0.578087
C20   C     C_R   0.358054 0.499036 0.639676 0.835985
C21   C     C_3   0.814360 0.463159 0.256115 0.229913
C22   C     C_R   0.459362 0.182045 0.562179 -0.126008
C23   C     C_R   0.420222 0.142184 0.474453 -0.159461
C24   C     C_R   0.330479 0.105861 0.443400 0.063123
C25   C     C_R   0.280906 0.113775 0.503321 0.470822
C26   C     C_R   0.320073 0.149483 0.589701 -0.136524
C27   C     C_3   0.303655 0.502200 0.300563 -0.075766
C28   C     C_R   0.408857 0.184026 0.619232 -0.238841
C29   C     C_R   0.232763 0.945829 0.292012 0.147191
C30   C     C_R   0.201449 0.892943 0.198226 -0.072869
C31   C     C_R   0.230223 0.949237 0.160085 0.020151
C32   C     C_R   0.640493 0.500196 0.359342 0.914206
C33   C     C_R   0.281619 0.055768 0.215279 -0.233825
C34   C     C_R   0.309671 0.108386 0.307541 -0.089178
C35   C     C_R   0.288994 0.053706 0.346720 -0.084127
C36   C     C_R   0.275215 0.879738 0.026878 0.486885
C37   C     C_R   0.260299 0.831433 0.934923 -0.256778
C38   C     C_3   0.199554 0.500943 0.199565 -0.024432
C39   C     C_R   0.185878 0.804033 0.879611 -0.207292
C40   C     C_R   0.125725 0.824892 0.915105 -0.079954
C41   C     C_R   0.138818 0.873184 0.006663 0.187424
C42   C     C_R   0.214427 0.900913 0.063139 0.030813
C43   C     C_R   0.905802 0.611696 0.554575 -0.250802
C44   C     C_R   0.642213 0.502053 0.641563 0.839767
C45   C     C_R   0.844919 0.552229 0.580850 0.172090
C46   C     C_R   0.838398 0.602488 0.666332 -0.013962
C47   C     C_R   0.891376 0.711526 0.723312 0.172992
C48   C     C_R   0.953067 0.770431 0.696684 0.333832
C49   C     C_3   0.143888 0.403955 0.202272 -0.218979
C50   C     C_R   0.959118 0.720632 0.610489 0.117388
C51   C     C_R   0.837815 0.532392 0.751950 0.390791
C52   C     C_R   0.800496 0.499250 0.805446 -0.147821
C53   C     C_R   0.714261 0.473720 0.809326 -0.175857
C54   C     C_R   0.665739 0.482736 0.759898 0.164800
C55   C     C_R   0.700390 0.509788 0.702501 -0.139992
C56   C     C_R   0.359511 0.501262 0.359330 0.895139
C57   C     C_R   0.789558 0.543505 0.704001 -0.104713
C58   C     C_R   0.616574 0.332567 0.825925 -0.161203
C59   C     C_R   0.562714 0.294629 0.869078 -0.140914
C60   C     C_3   0.240554 0.598305 0.298430 0.241662
C61   C     C_R   0.562727 0.362642 0.950999 -0.181575
C62   C     C_R   0.618971 0.469071 0.991546 -0.193190
C63   C     C_R   0.676725 0.509172 0.950953 0.278071
C64   C     C_R   0.672700 0.439343 0.865371 0.114010
C65   C     C_R   0.378756 0.802594 0.721803 0.431195
C66   C     C_R   0.366453 0.738131 0.747716 0.429812
C67   C     C_R   0.290914 0.633762 0.696345 -0.105183
C68   C     C_3   0.350916 0.522800 0.233301 0.277879
C69   C     C_R   0.228604 0.595963 0.620763 -0.230783
C70   C     C_R   0.238454 0.659899 0.594702 0.191125
C71   C     C_3   0.653304 0.940287 0.676338 -0.386389
C72   C     C_R   0.314897 0.764099 0.645422 0.001158
C73   C     C_R   0.218715 0.562084 0.777601 -0.255254
C74   C     C_R   0.189430 0.492668 0.800673 -0.101140
C75   C     C_R   0.209468 0.418775 0.765324 -0.029652
C76   C     C_R   0.264982 0.421571 0.713043 0.141977
C77   C     C_R   0.297891 0.495412 0.692904 -0.109209
C78   C     C_R   0.270908 0.563294 0.723058 -0.013199
C79   C     C_R   0.221391 0.352075 0.851655 -0.261458
C80   C     C_3   0.279417 0.504697 0.165316 0.295891
C81   C     C_R   0.191313 0.270737 0.861024 0.347614
C82   C     C_3   0.711333 0.059611 0.738475 -0.493343
C83   C     C_R   0.110450 0.173033 0.798164 0.490545
C84   C     C_R   0.062937 0.158308 0.726905 -0.231693
C85   C     C_R   0.093422 0.239089 0.717969 -0.264652
C86   C     C_R   0.172954 0.336143 0.779980 0.146665
C87   C     C_R   0.857035 0.499823 0.142688 0.858825
C88   C     C_R   0.136923 0.498087 0.860345 0.828040
C89   C     C_R   0.856793 0.219048 0.861641 0.787799
C90   C     C_R   0.140043 0.780126 0.141634 0.808261
C91   C     C_R   0.856057 0.499557 0.861720 0.867582
C92   C     C_3   0.208006 0.397074 0.250119 0.177582
C93   C     C_3   0.716318 0.938000 0.798290 0.170640
C94   C     C_R   0.139714 0.499897 0.142732 0.939927
C95   C     C_3   0.441504 0.470220 0.142744 -0.765372
C96   C     C_3   0.480877 0.696404 0.261058 -0.585743
C97   C     C_3   0.266769 0.864641 0.345222 -0.660675
C98   C     C_3   0.987558 0.805565 0.013529 -0.755435
C99   C     C_3   0.023461 0.731949 0.493474 -0.818991
C100  C     C_3   0.836001 0.392900 0.493617 -0.813571
C101  C     C_3   0.828079 0.794654 0.819106 -0.693904
C102  C     C_3   0.593395 0.570050 0.826827 -0.769227
C103  C     C_3   0.098472 0.252776 0.042336 -0.669557
H1    H     H_    0.185569 0.601452 0.323200 0.104036
H2    H     H_    0.913361 0.090394 0.789439 0.219501
H3    H     H_    0.416588 0.727194 0.832954 0.331440
H4    H     H_    0.167065 0.675629 0.520331 0.231213
H5    H     H_    0.046061 0.506447 0.419223 0.233587
H6    H     H_    0.051406 0.517977 0.522647 0.243126
H7    H     H_    0.099870 0.459669 0.446102 0.280618
H8    H     H_    0.233273 0.271955 0.645471 0.255968
H9    H     H_    0.339448 0.326315 0.763125 0.213914
H10   H     H_    0.399512 0.458786 0.799209 0.229376
H11   H     H_    0.408666 0.367470 0.703508 0.284705
H12   H     H_    0.295488 0.355865 0.965265 0.324497
H13   H     H_    0.755056 0.912736 0.812922 0.166927
H14   H     H_    0.114835 0.111151 0.857310 0.383252
H15   H     H_    0.318270 0.748036 0.366507 0.316320
H16   H     H_    0.592844 0.440929 0.187457 0.174730
H17   H     H_    0.595717 0.342685 0.182494 0.235905
H18   H     H_    0.677612 0.348543 0.089654 0.204528
H19   H     H_    0.688747 0.459857 0.109296 0.200154
H20   H     H_    0.816450 0.639048 0.226981 0.206045
H21   H     H_    0.798528 0.521374 0.387400 0.067400
H22   H     H_    0.885606 0.519893 0.300611 0.107073
H23   H     H_    0.808461 0.662322 0.395147 0.154057
H24   H     H_    0.104395 0.421328 0.246370 0.178693
H25   H     H_    0.895603 0.664241 0.307948 0.177010
H26   H     H_    0.438613 0.212985 0.686672 0.151190
H27   H     H_    0.528397 0.209615 0.585458 0.135773
H28   H     H_    0.459234 0.137612 0.429929 0.143048
H29   H     H_    0.250119 0.427597 0.102584 0.086605
H30   H     H_    0.281570 0.151565 0.634631 0.157290
H31   H     H_    0.301102 0.097763 0.185185 0.177449
H32   H     H_    0.306309 0.814812 0.906048 0.167287
H33   H     H_    0.174969 0.766809 0.808931 0.161530
H34   H     H_    0.069016 0.803956 0.871005 0.152436
H35   H     H_    0.585375 0.909273 0.682812 0.198823
H36   H     H_    0.214081 0.334208 0.202445 0.120742
H37   H     H_    0.910676 0.571626 0.489611 0.171192
H38   H     H_    0.612382 0.278514 0.760185 0.130862
H39   H     H_    0.519029 0.212189 0.837772 0.144281
H40   H     H_    0.519316 0.332957 0.983443 0.148871
H41   H     H_    0.617109 0.520207 0.054764 0.137367
H42   H     H_    0.171196 0.516148 0.583799 0.183828
H43   H     H_    0.199915 0.615592 0.801263 0.189858
H44   H     H_    0.283573 0.427057 0.898709 0.130079
H45   H     H_    0.252038 0.573930 0.401065 0.235454
H46   H     H_    0.643310 0.914492 0.605896 0.223722
H47   H     H_    0.002189 0.083170 0.677524 0.166117
H48   H     H_    0.056133 0.225486 0.661629 0.161154
H49   H     H_    0.356904 0.665692 0.405050 0.198629
H50   H     H_    0.318836 0.371510 0.144019 0.211542
H51   H     H_    0.446440 0.403650 0.106522 0.231307
H52   H     H_    0.508147 0.538273 0.194098 0.251920
H53   H     H_    0.424265 0.482710 0.094167 0.214554
H54   H     H_    0.120443 0.302564 0.275040 0.337871
H55   H     H_    0.603776 0.922193 0.811752 0.388240
H56   H     H_    0.478846 0.638345 0.333823 0.203442
H57   H     H_    0.727647 0.090952 0.697750 0.199573
H58   H     H_    0.551883 0.756881 0.305770 0.191817
H59   H     H_    0.450069 0.737464 0.267420 0.299753
H60   H     H_    0.481623 0.654432 0.192482 0.225725
H61   H     H_    0.838714 0.918144 0.586178 0.343456
H62   H     H_    0.870422 0.164876 0.974518 0.339693
H63   H     H_    0.686181 0.615017 0.255662 0.335923
H64   H     H_    0.332045 0.548194 0.089935 0.309871
H65   H     H_    0.736511 0.358139 0.330249 0.373598
H66   H     H_    0.737946 0.313571 0.164063 0.376767
H67   H     H_    0.177831 0.071399 0.420988 0.329728
H68   H     H_    0.671747 0.084880 0.776853 0.198671
H69   H     H_    0.183754 0.914417 0.383344 0.239002
H70   H     H_    0.233738 0.810241 0.364396 0.229577
H71   H     H_    0.330843 0.934747 0.399469 0.213446
H72   H     H_    0.280853 0.826842 0.283149 0.274298
H73   H     H_    0.383500 0.885857 0.046806 0.342909
H74   H     H_    0.100837 0.953374 0.107625 0.225357
H75   H     H_    0.942238 0.830150 0.034492 0.230600
H76   H     H_    0.989161 0.768168 0.045297 0.236404
H77   H     H_    0.959663 0.748578 0.940110 0.261184
H78   H     H_    0.018492 0.845725 0.601246 0.254024
H79   H     H_    0.733209 0.083797 0.897856 0.125950
H80   H     H_    0.075202 0.791607 0.485505 0.250267
H81   H     H_    0.958058 0.687364 0.442584 0.219056
H82   H     H_    0.043953 0.680765 0.483554 0.243827
H83   H     H_    0.733553 0.404141 0.534469 0.227155
H84   H     H_    0.874945 0.409185 0.552469 0.250013
H85   H     H_    0.881548 0.419697 0.459314 0.245477
H86   H     H_    0.786269 0.307991 0.446220 0.249406
H87   H     H_    0.949483 0.821584 0.859285 0.264689
H88   H     H_    0.826784 0.830255 0.888366 0.227611
H89   H     H_    0.758648 0.727645 0.773823 0.239696
H90   H     H_    0.827380 0.915730 0.703582 0.124854
H91   H     H_    0.852219 0.852549 0.803591 0.259452
H92   H     H_    0.062753 0.905744 0.743037 0.353988
H93   H     H_    0.937684 0.566021 0.703034 0.329650
H94   H     H_    0.543953 0.419346 0.785008 0.225944
H95   H     H_    0.578263 0.580790 0.888537 0.235590
H96   H     H_    0.544902 0.567948 0.788134 0.247318
H97   H     H_    0.661977 0.637900 0.846172 0.236152
H98   H     H_    0.025248 0.254539 0.128810 0.244518
H99   H     H_    0.039035 0.171888 0.994261 0.262229
H100  H     H_    0.153836 0.249568 0.061067 0.212707
H101  H     H_    0.868886 0.093116 0.704791 0.187219
H102  H     H_    0.115083 0.289129 0.006213 0.281502
H103  H     H_    0.763735 0.642424 0.955716 0.236240
H104  H     H_    0.840196 0.759847 0.108856 0.246372
H105  H     H_    0.842709 0.650268 0.075698 0.224877
H106  H     H_    0.762831 0.667270 0.128258 0.244760
H107  H     H_    0.312080 0.795947 0.551867 0.225060
H108  H     H_    0.222619 0.845141 0.646058 0.253698
H109  H     H_    0.315291 0.947061 0.643821 0.242586
H110  H     H_    0.327946 0.941350 0.737512 0.262514
H111  H     H_    0.461793 0.937896 0.743813 0.342014
N1    N     N_2   0.372894 0.447877 0.183803 -0.305849
N2    N     N_2   0.734649 0.618399 0.994418 -0.314001
N3    N     N_2   0.328940 0.830368 0.619541 -0.327314
N4    N     N_2   0.172767 0.621785 0.518810 -0.312142
N5    N     N_2   0.286832 0.348548 0.679961 -0.266021
N6    N     N_2   0.434803 0.628668 0.289167 -0.258958
N7    N     N_2   0.207319 0.890268 0.331431 -0.287820
N8    N     N_2   0.076790 0.895075 0.040805 -0.320978
N9    N     N_2   0.017504 0.781600 0.581726 -0.303086
N10   N     N_2   0.789469 0.442149 0.520329 -0.292997
N11   N     N_2   0.887241 0.762206 0.810807 -0.303186
N12   N     N_2   0.585184 0.473562 0.773404 -0.281368
N13   N     N_2   0.075678 0.305244 0.118488 -0.315997
O1    O     O_3   0.500000 0.500000 0.500000 -0.501544
O2    O     O_R   0.113800 0.731630 0.056520 -0.649690
O3    O     O_R   0.819390 0.439310 0.886160 -0.657802
O4    O     O_R   0.383400 0.268380 0.323710 -0.643868
O5    O     O_R   0.115110 0.560720 0.179280 -0.642781
O6    O     O_R   0.941380 0.560750 0.885620 -0.582964
O7    O     O_R   0.115110 0.439270 0.057830 -0.644273
O8    O     O_R   0.942690 0.268390 0.886930 -0.630705
O9    O     O_R   0.114340 0.731630 0.178520 -0.611482
O10   O     O_R   0.820160 0.439310 0.057830 -0.642378
O11   O     O_R   0.113800 0.560730 0.885620 -0.631683
O12   O     O_R   0.383400 0.560740 0.616060 -0.634274
O13   O     O_R   0.555060 0.731630 0.615290 -0.633306
O14   O     O_R   0.383950 0.439280 0.616600 -0.615310
O15   O     O_R   0.677590 0.560710 0.444390 -0.651892
O16   O     O_R   0.556370 0.439260 0.616600 -0.618614
O17   O     O_R   0.382640 0.439290 0.322940 -0.641871
O18   O     O_R   0.678360 0.560700 0.616060 -0.656590
O19   O     O_R   0.382640 0.560750 0.444390 -0.644782
O20   O     O_3   0.173572 0.375729 0.310804 -0.779462
O21   O     O_3   0.636038 0.893427 0.815939 -0.722958
O22   O     O_3   0.780979 0.906147 0.594914 -0.745373
O23   O     O_R   0.555060 0.439270 0.322940 -0.640056
O24   O     O_3   0.851121 0.096479 0.921047 -0.774153
O25   O     O_3   0.717899 0.651775 0.319353 -0.748904
O26   O     O_3   0.316174 0.577035 0.144318 -0.726262
O27   O     O_3   0.697945 0.366589 0.301715 -0.748167
O28   O     O_3   0.801862 0.366932 0.202236 -0.756362
O29   O     O_3   0.194373 0.085778 0.480121 -0.806089
O30   O     O_3   0.348143 0.906428 0.082553 -0.762424
O31   O     O_3   0.007422 0.876585 0.757641 -0.757783
O32   O     O_3   0.922116 0.554097 0.749171 -0.760694
O33   O     O_3   0.454594 0.903329 0.773448 -0.754203
O34   O     O_R   0.383950 0.268380 0.445700 -0.640772
O35   O     O_3   0.430431 0.780575 0.823302 -0.706707
O36   O     O_3   0.240440 0.284225 0.929106 -0.823017
O37   O     O_3   0.076000 0.089985 0.803340 -0.767589
O38   O     O_3   0.298541 0.689350 0.303923 -0.706328
O39   O     O_R   0.677590 0.731610 0.615290 -0.647458
O40   O     O_3   0.997750 0.500010 0.002220 -0.499019
O41   O     O_R   0.942690 0.560750 0.179280 -0.655767
O42   O     O_R   0.114340 0.439270 0.886160 -0.641311
O43   O     O_R   0.820160 0.268410 0.886930 -0.650022
Zn1   Zn    Zn3+2 0.456040 0.586770 0.543190 0.996431
Zn2   Zn    Zn3+2 0.456820 0.413240 0.543960 0.984125
Zn3   Zn    Zn3+2 0.631110 0.586750 0.543190 0.989139
Zn4   Zn    Zn3+2 0.456040 0.413240 0.369660 0.992842
Zn5   Zn    Zn3+2 0.041710 0.413240 0.959030 0.984132
Zn6   Zn    Zn3+2 0.866640 0.413270 0.959030 0.961726
Zn7   Zn    Zn3+2 0.040930 0.586780 0.958260 0.996093
Zn8   Zn    Zn3+2 0.041710 0.586770 0.132560 0.982498

loop_
_geom_bond_atom_site_label_1
_geom_bond_atom_site_label_2
_ccdc_geom_bond_type
C68   C80   S    
C76   N5    S    
C3    H106  S    
C97   H72   S    
C31   C42   S    
C32   O23   A    
H78   N9    S    
C18   C21   S    
C69   H42   S    
C41   C42   A    
H66   O28   S    
C36   C42   A    
C100  H86   S    
C58   H38   S    
C5    H5    S    
H3    O35   S    
C60   O38   S    
C30   C90   S    
C101  H89   S    
C94   O5    A    
C7    C8    S    
C38   C49   S    
C53   C54   A    
C52   C53   A    
C29   N7    S    
C72   N3    S    
O40   Zn5   S    
C70   N4    S    
C4    H108  S    
H8    N5    S    
C13   C18   S    
O9    Zn8   S    
C3    H105  S    
C28   H26   S    
O13   Zn1   S    
O18   Zn3   S    
C36   C37   A    
C68   N6    S    
C18   C19   S    
C102  H95   S    
C10   O24   S    
C7    C71   S    
C30   C31   A    
C34   C35   A    
C53   C64   S    
H73   O30   S    
C14   O25   S    
C5    H7    S    
C100  N10   S    
O39   Zn3   S    
C103  N13   S    
C80   H29   S    
H87   N11   S    
O41   Zn8   S    
C19   H25   S    
C102  N12   S    
C82   H57   S    
C96   H58   S    
C101  N11   S    
C95   H53   S    
C16   C60   S    
O5    Zn8   S    
C97   N7    S    
C68   N1    S    
O16   Zn2   S    
C54   N12   S    
O34   Zn2   S    
C51   O32   S    
H69   N7    S    
C87   O10   A    
C54   C55   A    
H14   O37   S    
C33   H31   S    
C61   H40   S    
C6    H11   S    
C47   C48   A    
C59   H39   S    
O1    Zn4   S    
C12   C17   S    
C11   H2    S    
C73   C78   A    
C31   C33   A    
C90   O2    A    
C51   C57   A    
C63   N2    S    
C98   H75   S    
C9    C10   S    
C99   H80   S    
C41   N8    S    
C52   C91   S    
C77   C78   A    
C87   O41   A    
C71   C82   S    
C32   O15   A    
H94   N12   S    
O11   Zn7   S    
C16   C27   S    
C48   C50   A    
C66   C67   A    
C56   O17   A    
C5    N4    S    
C88   O11   A    
C12   H17   S    
O8    Zn5   S    
C22   H27   S    
O17   Zn4   S    
C100  H85   S    
C14   C17   S    
H111  O33   S    
C83   O37   S    
C69   C70   A    
C67   C78   S    
H55   O21   S    
H54   O20   S    
C7    C93   S    
C2    C11   S    
C26   C28   A    
C81   C83   A    
C92   O20   S    
C1    C34   S    
C71   H35   S    
C39   H33   S    
C8    O13   A    
C73   C74   A    
C58   C64   A    
C20   O14   A    
C49   H24   S    
C99   N9    S    
C50   N9    S    
C59   C61   A    
C24   C35   S    
C97   H70   S    
C80   O26   S    
O42   Zn5   S    
C91   O3    A    
C23   H28   S    
C89   O43   A    
H56   N6    S    
O43   Zn6   S    
C27   C92   S    
C65   O33   S    
C24   C25   A    
C8    O39   A    
O19   Zn1   S    
C74   C75   A    
C2    O22   S    
C9    C89   S    
C39   C40   A    
C79   C81   A    
C27   C56   S    
C94   O7    A    
C79   H44   S    
C10   C93   S    
C3    N2    S    
C96   N6    S    
C19   H20   S    
C56   O19   A    
O40   Zn7   S    
H63   O25   S    
O7    Zn5   S    
C51   C52   A    
O4    Zn4   S    
C97   H71   S    
C67   C69   A    
C93   H13   S    
C25   O29   S    
H93   O32   S    
C75   C76   A    
C85   H48   S    
C6    H10   S    
C29   C30   A    
C93   O21   S    
C102  H97   S    
C21   O28   S    
H4    N4    S    
C13   H18   S    
C1    O4    A    
C75   C86   S    
C83   C84   A    
C47   N11   S    
O1    Zn3   S    
C23   C24   A    
H65   O27   S    
C40   H34   S    
C38   C94   S    
C62   C63   A    
C37   H32   S    
C33   C34   A    
C99   H81   S    
C90   O9    A    
C43   H37   S    
C16   H49   S    
C46   C47   A    
C36   O30   S    
C76   C77   A    
H107  N3    S    
C85   C86   A    
H12   O36   S    
C44   O18   A    
C38   C60   S    
C100  H84   S    
C20   C77   S    
C15   H21   S    
C4    N3    S    
C9    C11   S    
C46   C57   S    
O1    Zn2   S    
H74   N8    S    
C1    O34   A    
C58   C59   A    
O10   Zn6   S    
C49   N13   S    
C49   C92   S    
C21   H22   S    
C65   C72   A    
H50   N1    S    
C101  H91   S    
H103  N2    S    
H98   N13   S    
H83   N10   S    
C82   H68   S    
C40   C41   A    
C4    H110  S    
O3    Zn6   S    
H62   O24   S    
C45   N10   S    
C6    H9    S    
C14   C19   S    
C66   O35   S    
C84   C85   A    
C103  H102  S    
O15   Zn3   S    
C62   H41   S    
C101  H88   S    
O1    Zn1   S    
C14   H23   S    
C48   O31   S    
C70   C72   A    
O14   Zn2   S    
C43   C50   A    
C15   C17   S    
O12   Zn1   S    
C20   O12   A    
O6    Zn7   S    
C29   C35   A    
C9    C82   S    
O40   Zn8   S    
H15   O38   S    
C18   C87   S    
C4    H109  S    
C96   H60   S    
H67   O29   S    
C73   H43   S    
C16   H45   S    
C95   H51   S    
C3    H104  S    
C89   O8    A    
C55   C57   A    
C91   O6    A    
C25   C26   A    
C103  H99   S    
C43   C45   A    
C26   H30   S    
C74   C88   S    
C102  H96   S    
O40   Zn6   S    
C2    H90   S    
C13   H19   S    
C44   C55   S    
C71   H46   S    
C38   C80   S    
C10   H79   S    
C95   N1    S    
C98   N8    S    
O2    Zn7   S    
C99   H82   S    
C96   H59   S    
H61   O22   S    
C95   H52   S    
C11   H101  S    
C12   H16   S    
C61   C62   A    
C103  H100  S    
C63   C64   A    
H92   O31   S    
C45   C46   A    
C88   O42   A    
C15   C21   S    
C6    N5    S    
C2    C7    S    
C37   C39   A    
C65   C66   A    
H64   O26   S    
C17   C32   S    
C22   C23   A    
O23   Zn4   S    
C22   C28   A    
C5    H6    S    
C27   C68   S    
C12   C13   S    
C98   H76   S    
C60   H1    S    
C92   H36   S    
C98   H77   S    
C15   O27   S    
C79   C86   A    
C44   O16   A    
C81   O36   S    
C84   H47   S    
