data_mof_unit_39302.cif
_audit_creation_date              2012-12-10T19:44:26-0500
_audit_creation_method            fapswitch 2.2
_symmetry_space_group_name_H-M    P1
_symmetry_Int_Tables_number       1
_space_group_crystal_system       triclinic
_cell_length_a                    10.898456
_cell_length_b                    12.580663
_cell_length_c                    13.292722
_cell_angle_alpha                 117.351255
_cell_angle_beta                  72.144086
_cell_angle_gamma                 101.896796
_cell_volume                      1536.23553792

loop_
_atom_site_label
_atom_site_type_symbol
_atom_type_description
_atom_site_fract_x
_atom_site_fract_y
_atom_site_fract_z
_atom_type_partial_charge
C1    C     C_R   0.511410 0.854700 0.286145 0.920775
C2    C     C_R   0.618021 0.830390 0.803752 -0.095420
C3    C     C_R   0.030774 0.954412 0.565116 -0.228336
C4    C     C_R   0.129837 0.004593 0.501133 -0.063697
C5    C     C_R   0.100094 0.056377 0.437009 0.111194
C6    C     C_R   0.973871 0.038138 0.424217 0.101237
C7    C     C_R   0.872416 0.999557 0.499040 -0.086444
C8    C     C_R   0.902268 0.956654 0.569977 -0.008385
C9    C     C_R   0.165163 0.273201 0.477334 0.163271
C10   C     C_R   0.237960 0.362081 0.443161 -0.202819
C11   C     C_R   0.334735 0.331530 0.340210 -0.273529
C12   C     C_R   0.737334 0.001009 0.500590 0.832105
C13   C     C_R   0.357601 0.211822 0.267202 0.284337
C14   C     C_R   0.281690 0.120346 0.296340 0.252773
C15   C     C_R   0.187221 0.150459 0.404003 -0.004516
C16   C     C_R   0.307495 0.286391 0.028858 -0.102906
C17   C     C_R   0.454280 0.226842 0.838431 -0.053705
C18   C     C_R   0.642767 0.791115 0.084875 -0.125243
C19   C     C_R   0.700875 0.700664 0.980917 0.188117
C20   C     C_R   0.645521 0.583466 0.949189 -0.142799
C21   C     C_R   0.527329 0.555119 0.017911 0.008008
C22   C     C_R   0.467321 0.648866 0.124031 0.002287
C23   C     C_R   0.480863 0.144359 0.713993 0.736716
C24   C     C_R   0.468941 0.435441 0.984191 0.060196
C25   C     C_R   0.359035 0.407263 0.061536 0.101928
C26   C     C_R   0.297473 0.500646 0.165029 0.080928
C27   C     C_R   0.345290 0.620800 0.188968 0.266372
C28   C     C_R   0.512908 0.343582 0.872223 -0.211731
C29   C     C_R   0.355914 0.197181 0.919120 -0.161047
C30   C     C_R   0.531616 0.767525 0.160837 -0.054305
C31   C     C_R   0.709848 0.341973 0.320523 -0.257415
C32   C     C_R   0.330533 0.763989 0.659481 0.301288
C33   C     C_R   0.333716 0.699945 0.721181 0.211044
C34   C     C_R   0.262520 0.002095 0.502768 0.819700
C35   C     C_R   0.418266 0.611235 0.671094 -0.279522
C36   C     C_R   0.488844 0.572875 0.554664 -0.074122
C37   C     C_R   0.508996 0.658662 0.505591 0.170631
C38   C     C_R   0.549269 0.458996 0.490338 -0.004261
C39   C     C_R   0.647683 0.446496 0.389823 -0.001802
C40   C     C_R   0.684356 0.536256 0.353128 -0.225508
C41   C     C_R   0.618367 0.638795 0.404033 0.271306
C42   C     C_R   0.512739 0.352932 0.513808 0.279914
C43   C     C_R   0.670117 0.242890 0.342957 0.450712
C44   C     C_R   0.620040 0.948027 0.818680 -0.043333
C45   C     C_R   0.713558 0.990227 0.743767 -0.112846
C46   C     C_R   0.803230 0.913214 0.650635 0.128107
C47   C     C_R   0.799868 0.794538 0.635421 -0.122415
C48   C     C_R   0.707573 0.753523 0.711862 -0.183484
Cu1   Cu    Cu3+1 0.529370 0.098270 0.475420 0.981141
Cu2   Cu    Cu3+1 0.470630 0.901730 0.524580 0.984858
H1    H     H_    0.546522 0.798516 0.862912 0.188650
H2    H     H_    0.391847 0.401716 0.316682 0.194285
H3    H     H_    0.309427 0.107092 0.894567 0.159076
H4    H     H_    0.225349 0.259375 0.084634 0.157524
H5    H     H_    0.586608 0.361946 0.805581 0.137389
H6    H     H_    0.693872 0.877566 0.111403 0.211123
H7    H     H_    0.700525 0.515754 0.872798 0.129325
H8    H     H_    0.548732 0.006307 0.887887 0.197570
H9    H     H_    0.765780 0.521277 0.277243 0.201634
H10   H     H_    0.786089 0.334464 0.242958 0.184202
H11   H     H_    0.429970 0.575963 0.727019 0.190098
H12   H     H_    0.715192 0.082169 0.757266 0.109024
H13   H     H_    0.868210 0.733807 0.564073 0.151064
H14   H     H_    0.705226 0.662018 0.699748 0.148145
H15   H     H_    0.052674 0.920708 0.618598 0.149868
H16   H     H_    0.221833 0.456031 0.497685 0.169631
N1    N     N_R   0.573890 0.246290 0.438210 -0.204821
N2    N     N_R   0.426890 0.754320 0.561170 -0.206596
O1    O     O_R   0.536940 0.972510 0.318130 -0.516905
O2    O     O_R   0.487330 0.806530 0.359650 -0.541819
O3    O     O_R   0.705160 0.082990 0.479250 -0.572955
O4    O     O_R   0.655550 0.917010 0.520760 -0.538108
O5    O     O_R   0.512670 0.193470 0.640350 -0.592354
O6    O     O_R   0.463060 0.027490 0.681870 -0.591452
O7    O     O_R   0.344450 0.082990 0.479240 -0.599125
O8    O     O_R   0.294840 0.917010 0.520750 -0.567108
Br1   Br    Br    0.493592 0.178270 0.127859 -0.512258
Br2   Br    Br    0.301050 0.956739 0.184058 -0.400097
C49   C     C_3   0.172742 0.473587 0.243241 -0.805695
H17   H     H_    0.181923 0.399672 0.262794 0.219785
H18   H     H_    0.146456 0.549758 0.330057 0.261438
H19   H     H_    0.092294 0.448188 0.199627 0.247712
C50   C     C_3   0.829680 0.728765 0.910642 -0.812137
H20   H     H_    0.903586 0.755272 0.961495 0.281455
H21   H     H_    0.861583 0.650444 0.826420 0.221309
H22   H     H_    0.823831 0.804583 0.891822 0.245288
Br3   Br    Br    0.223968 0.741203 0.285022 -0.472861
Br4   Br    Br    0.749922 0.104197 0.224260 -0.554467
C51   C     C_3   0.403575 0.355868 0.617589 -0.753780
H23   H     H_    0.355931 0.269187 0.610708 0.263859
H24   H     H_    0.440305 0.396249 0.697549 0.207677
H25   H     H_    0.322476 0.403372 0.628854 0.221599
C52   C     C_3   0.219227 0.838603 0.698944 -0.764522
H26   H     H_    0.146154 0.835454 0.776665 0.234197
H27   H     H_    0.251209 0.933967 0.720863 0.240278
H28   H     H_    0.167975 0.800038 0.628144 0.219572
Br5   Br    Br    0.229076 0.731182 0.876258 -0.506191
Br6   Br    Br    0.716572 0.724403 0.311384 -0.520228
C53   C     C_3   0.949803 0.058897 0.329407 -0.696688
H29   H     H_    0.037962 0.054197 0.258768 0.245293
H30   H     H_    0.880616 0.986123 0.286575 0.269975
H31   H     H_    0.914162 0.149197 0.367739 0.241899
C54   C     C_3   0.065021 0.310984 0.592377 -0.868903
H32   H     H_    0.067038 0.410227 0.641675 0.241757
H33   H     H_    0.966795 0.277648 0.577406 0.235583
H34   H     H_    0.083822 0.274227 0.647414 0.232431

loop_
_geom_bond_atom_site_label_1
_geom_bond_atom_site_label_2
_ccdc_geom_bond_type
C52   H26   S    
C26   C49   S    
C17   C29   A    
C19   C20   A    
C7    C8    A    
C45   C46   A    
C26   C27   A    
C17   C23   S    
C31   C43   A    
C50   H20   S    
C43   Br4   S    
C36   C37   A    
C38   C42   A    
Cu2   O6    S    
C47   H13   S    
C5    C6    A    
C48   H14   S    
C37   N2    A    
C45   H12   S    
C18   C19   A    
Cu2   O4    S    
C11   H2    S    
C53   H29   S    
C2    C44   A    
Cu1   O7    S    
C18   C30   A    
C51   H24   S    
C22   C30   A    
C9    C10   A    
C18   H6    S    
C34   O7    A    
C32   N2    A    
C32   C52   S    
C12   O4    A    
C52   H27   S    
C40   H9    S    
Cu1   O1    S    
C21   C22   A    
C37   C41   A    
C3    H15   S    
C23   O5    A    
C19   C50   S    
C28   H5    S    
C13   Br1   S    
C10   H16   S    
C7    C12   S    
C4    C34   S    
C24   C25   A    
C54   H33   S    
C3    C8    A    
C10   C11   A    
C44   H8    S    
C39   C40   A    
C49   H18   S    
C2    C48   A    
C16   C29   A    
C1    O1    A    
C35   C36   A    
C31   H10   S    
Cu2   O8    S    
C47   C48   A    
C9    C54   S    
C50   H22   S    
C35   H11   S    
C51   H25   S    
C27   Br3   S    
C40   C41   A    
C53   H30   S    
C12   O3    A    
C52   H28   S    
C22   C27   A    
C42   N1    A    
Cu1   O5    S    
C23   O6    A    
C3    C4    A    
C51   H23   S    
C44   C45   A    
C16   C25   A    
C46   C47   A    
Cu1   N1    S    
C50   H21   S    
C41   Br6   S    
C17   C28   A    
C24   C28   A    
C4    C5    A    
C49   H19   S    
C6    C7    A    
C1    O2    A    
C42   C51   S    
C6    C53   S    
C36   C38   A    
C25   C26   A    
C32   C33   A    
C11   C13   A    
C38   C39   A    
C29   H3    S    
C1    C30   S    
C33   C35   A    
C31   C39   A    
C54   H34   S    
C33   Br5   S    
C14   Br2   S    
Cu2   O2    S    
C16   H4    S    
C5    C15   S    
C2    H1    S    
C49   H17   S    
C53   H31   S    
C20   C21   A    
C43   N1    A    
Cu1   Cu2   S    
Cu1   O3    S    
C21   C24   A    
C54   H32   S    
C14   C15   A    
C8    C46   S    
C20   H7    S    
C13   C14   A    
Cu2   N2    S    
C9    C15   A    
C34   O8    A    
