data_mof_unit_13116.cif
_audit_creation_date              2012-12-11T16:27:31-0500
_audit_creation_method            fapswitch 2.2
_symmetry_space_group_name_H-M    P1
_symmetry_Int_Tables_number       1
_space_group_crystal_system       triclinic
_cell_length_a                    21.663084
_cell_length_b                    6.911281
_cell_length_c                    14.777618
_cell_angle_alpha                 90.219653
_cell_angle_beta                  105.745524
_cell_angle_gamma                 90.571469
_cell_volume                      2129.32398997

loop_
_atom_site_label
_atom_site_type_symbol
_atom_type_description
_atom_site_fract_x
_atom_site_fract_y
_atom_site_fract_z
_atom_type_partial_charge
O1    O     O_R   0.835850 0.638310 0.002120 -0.534274
O2    O     O_R   0.164150 0.361690 0.997880 -0.534275
O3    O     O_R   0.664150 0.138310 0.997880 -0.532417
O4    O     O_R   0.335850 0.861690 0.002120 -0.532417
O5    O     O_R   0.717530 0.306070 0.861970 -0.523275
O6    O     O_R   0.282470 0.693930 0.138030 -0.523275
O7    O     O_R   0.782470 0.806070 0.138030 -0.527318
O8    O     O_R   0.217530 0.193930 0.861970 -0.527318
C1    C     C_R   0.705288 0.476164 0.824494 0.704964
C2    C     C_R   0.294712 0.523836 0.175506 0.704964
C3    C     C_R   0.794554 0.978076 0.175462 0.704342
C4    C     C_R   0.205446 0.021924 0.824538 0.704342
O9    O     O_R   0.838690 0.308440 0.993250 -0.537791
O10   O     O_R   0.161310 0.691560 0.006750 -0.537791
O11   O     O_R   0.661310 0.808440 0.006750 -0.540016
O12   O     O_R   0.338690 0.191560 0.993250 -0.540017
O13   O     O_R   0.786170 0.140510 0.130090 -0.521361
O14   O     O_R   0.213830 0.859490 0.869910 -0.521361
O15   O     O_R   0.713830 0.640510 0.869910 -0.524630
O16   O     O_R   0.286170 0.359490 0.130090 -0.524630
C5    C     C_R   0.866017 0.478036 0.002040 0.771934
C6    C     C_R   0.133983 0.521964 0.997960 0.771934
C7    C     C_R   0.634037 0.975920 0.998766 0.768311
C8    C     C_R   0.365963 0.024080 0.001234 0.768311
O17   O     O_3   0.732630 0.472520 0.044740 -0.361213
O18   O     O_3   0.267370 0.527480 0.955260 -0.361213
O19   O     O_3   0.767370 0.972520 0.955260 -0.360224
O20   O     O_3   0.232630 0.027480 0.044740 -0.360224
V1    V     V_3+5 0.753220 0.196740 0.991700 1.530755
V2    V     V_3+5 0.246780 0.803260 0.008300 1.530755
V3    V     V_3+5 0.746780 0.696740 0.008300 1.523328
V4    V     V_3+5 0.253220 0.303260 0.991700 1.523328
H1    H     H_    0.619999 0.849267 0.313583 0.133997
H2    H     H_    0.380001 0.150733 0.686417 0.133997
H3    H     H_    0.873554 0.597767 0.684187 0.132098
H4    H     H_    0.126446 0.402233 0.315813 0.132098
C9    C     C_R   0.528594 0.038065 0.821512 0.202405
C10   C     C_R   0.471406 0.961935 0.178488 0.202405
C11   C     C_R   0.973718 0.452349 0.179685 0.199429
C12   C     C_R   0.026282 0.547651 0.820315 0.199429
C13   C     C_R   0.479396 0.087238 0.742477 -0.121281
C14   C     C_R   0.520603 0.912762 0.257523 -0.121281
C15   C     C_R   0.024952 0.425153 0.259387 -0.119219
C16   C     C_R   0.975048 0.574847 0.740613 -0.119219
C17   C     C_R   0.417627 0.114377 0.748683 -0.181111
C18   C     C_R   0.582373 0.885623 0.251316 -0.181111
C19   C     C_R   0.087378 0.422941 0.253133 -0.180920
C20   C     C_R   0.912622 0.577059 0.746867 -0.180920
C21   C     C_R   0.403489 0.090170 0.833885 -0.150703
C22   C     C_R   0.596510 0.909830 0.166114 -0.150703
C23   C     C_R   0.100052 0.450782 0.167151 -0.143720
C24   C     C_R   0.899948 0.549218 0.832849 -0.143720
C25   C     C_R   0.451646 0.043956 0.916968 0.035987
C26   C     C_R   0.548354 0.956044 0.083031 0.035987
C27   C     C_R   0.050032 0.477390 0.083635 0.036303
C28   C     C_R   0.949968 0.522610 0.916365 0.036303
C29   C     C_R   0.516412 0.022004 0.912313 0.022690
C30   C     C_R   0.483588 0.977996 0.087687 0.022690
C31   C     C_R   0.984869 0.473333 0.088416 0.020101
C32   C     C_R   0.015130 0.526667 0.911583 0.020101
C33   C     C_R   0.434961 0.017785 0.002987 -0.168005
C34   C     C_R   0.565039 0.982214 0.997013 -0.168005
C35   C     C_R   0.065229 0.508066 0.996850 -0.167292
C36   C     C_R   0.934770 0.491934 0.003149 -0.167292
H5    H     H_    0.488803 0.100951 0.674400 0.161292
H6    H     H_    0.511197 0.899049 0.325600 0.161292
H7    H     H_    0.016432 0.407859 0.327866 0.161443
H8    H     H_    0.983567 0.592141 0.672134 0.161443
H9    H     H_    0.353897 0.108878 0.833153 0.096712
H10   H     H_    0.646103 0.891122 0.166847 0.096712
H11   H     H_    0.149991 0.450149 0.167407 0.089592
H12   H     H_    0.850009 0.549851 0.832593 0.089592
C37   C     C_R   0.177296 0.009104 0.723064 0.001048
C38   C     C_R   0.822704 0.990896 0.276936 0.001048
C39   C     C_R   0.322795 0.520328 0.277198 0.000124
C40   C     C_R   0.677205 0.479672 0.722802 0.000124
C41   C     C_R   0.187707 0.941563 0.567727 -0.152613
C42   C     C_R   0.812293 0.058436 0.432273 -0.152613
C43   C     C_R   0.312948 0.572047 0.434171 -0.154679
C44   C     C_R   0.687052 0.427953 0.565829 -0.154679
C45   C     C_R   0.215570 0.965572 0.663724 -0.174859
C46   C     C_R   0.784430 0.034428 0.336276 -0.174859
C47   C     C_R   0.284995 0.559937 0.337723 -0.173117
C48   C     C_R   0.715004 0.440063 0.662277 -0.173117
C49   C     C_R   0.111006 0.027897 0.686667 -0.128942
C50   C     C_R   0.888993 0.972103 0.313333 -0.128942
C51   C     C_R   0.388887 0.495354 0.312985 -0.131742
C52   C     C_R   0.611112 0.504646 0.687015 -0.131742
C53   C     C_R   0.081162 0.001966 0.589462 0.083883
C54   C     C_R   0.918838 0.998033 0.410538 0.083883
C55   C     C_R   0.418882 0.509646 0.410727 0.082866
C56   C     C_R   0.581118 0.490354 0.589273 0.082866
C57   C     C_R   0.121085 0.958123 0.530292 0.137998
C58   C     C_R   0.878915 0.041877 0.469708 0.137998
C59   C     C_R   0.379335 0.548684 0.471022 0.139034
C60   C     C_R   0.620665 0.451316 0.528978 0.139033
C61   C     C_R   0.013322 0.015621 0.549421 0.055664
C62   C     C_R   0.986677 0.984379 0.450579 0.055664
C63   C     C_R   0.486564 0.489724 0.450273 0.056236
C64   C     C_R   0.513436 0.510276 0.549727 0.056236
C65   C     C_R   0.028735 0.940836 0.395132 -0.178451
C66   C     C_R   0.971264 0.059164 0.604868 -0.178451
C67   C     C_R   0.471751 0.549730 0.606253 -0.179515
C68   C     C_R   0.528249 0.450270 0.393746 -0.179515
C69   C     C_R   0.094402 0.928736 0.434347 -0.204298
C70   C     C_R   0.905598 0.071264 0.565653 -0.204298
C71   C     C_R   0.406213 0.567472 0.567531 -0.206054
C72   C     C_R   0.593787 0.432528 0.432468 -0.206054
H13   H     H_    0.124647 0.894570 0.388913 0.129314
H14   H     H_    0.875353 0.105430 0.611087 0.129314
H15   H     H_    0.376248 0.598027 0.613815 0.129457
H16   H     H_    0.623752 0.401972 0.386184 0.129457
H17   H     H_    0.915600 0.941587 0.263174 0.117589
H18   H     H_    0.084400 0.058413 0.736826 0.117589
H19   H     H_    0.584660 0.529101 0.737967 0.120045
H20   H     H_    0.415340 0.470899 0.262033 0.120045
H21   H     H_    0.733143 0.051473 0.308150 0.099346
H22   H     H_    0.266857 0.948527 0.691850 0.099346
H23   H     H_    0.765987 0.416367 0.689796 0.098253
H24   H     H_    0.234013 0.583633 0.310204 0.098253
H25   H     H_    0.218223 0.907562 0.522720 0.113128
H26   H     H_    0.781777 0.092438 0.477280 0.113128
H27   H     H_    0.282738 0.602948 0.480013 0.112778
H28   H     H_    0.717262 0.397052 0.519987 0.112778
H29   H     H_    0.012696 0.914297 0.320593 0.141457
H30   H     H_    0.987304 0.085703 0.679407 0.141457
H31   H     H_    0.488007 0.568751 0.681299 0.143504
H32   H     H_    0.511993 0.431248 0.318700 0.143504
Br1   Br    Br    0.607021 0.980460 0.790011 -0.589261
Br2   Br    Br    0.392979 0.019540 0.209988 -0.589261
Br3   Br    Br    0.893177 0.470655 0.210519 -0.589103
Br4   Br    Br    0.106823 0.529345 0.789480 -0.589103

loop_
_geom_bond_atom_site_label_1
_geom_bond_atom_site_label_2
_ccdc_geom_bond_type
O17   V3    S    
C16   C20   A    
O1    C5    A    
C8    C33   S    
C12   C32   A    
C27   C31   A    
O19   V1    S    
O13   V1    S    
O3    C7    A    
C56   C60   A    
C44   C48   A    
O15   V3    S    
C40   C48   A    
C61   C62   A    
C29   C34   A    
O7    C3    A    
C31   C36   A    
C22   C26   A    
C50   H17   S    
C10   Br2   S    
O9    V1    S    
C49   H18   S    
O10   V2    S    
C10   C14   A    
C51   C55   A    
C9    C13   A    
C44   H28   S    
O4    C8    A    
O1    V3    S    
H4    C19   S    
O2    V4    S    
C14   C18   A    
O3    V1    S    
C5    C36   S    
C57   C69   A    
C6    C35   S    
C10   C30   A    
C25   C33   A    
C1    O15   A    
C7    C34   S    
C58   C70   A    
C52   C56   A    
C2    O16   A    
C27   C35   A    
O2    C6    A    
C65   H29   S    
C28   C36   A    
O14   V2    S    
C1    C40   S    
C17   C21   A    
C44   C60   A    
C67   H31   S    
C40   C52   A    
C12   C16   A    
C61   C66   A    
C30   C33   A    
O11   C7    A    
C63   C68   A    
C60   C72   A    
O12   C8    A    
C21   H9    S    
C4    C37   S    
C53   C57   A    
H1    C18   S    
C23   H11   S    
C38   C46   A    
H3    C20   S    
C37   C45   A    
C54   C58   A    
O5    V1    S    
C65   C69   A    
O7    V3    S    
O19   V3    S    
O8    V4    S    
O20   V4    S    
C50   C54   A    
C25   C29   A    
O18   V4    S    
C13   H5    S    
C26   C34   A    
C43   H27   S    
C45   H22   S    
C64   C67   A    
C72   H16   S    
C53   C61   A    
C47   H24   S    
C15   H7    S    
C43   C59   A    
C24   H12   S    
C2    C39   S    
C42   C46   A    
C63   C64   A    
C68   H32   S    
C41   C45   A    
O8    C4    A    
C11   C31   A    
C26   C30   A    
O9    C5    A    
H2    C17   S    
C38   C50   A    
C37   C49   A    
C51   H20   S    
C59   C71   A    
C39   C51   A    
O6    V2    S    
O18   V2    S    
C32   C35   A    
C16   H8    S    
C68   C72   A    
C56   C64   A    
O16   V4    S    
C69   H13   S    
C3    O13   A    
C49   C53   A    
C71   H15   S    
O5    C1    A    
C66   H30   S    
C3    C38   S    
O6    C2    A    
C19   C23   A    
O11   V3    S    
O12   V4    S    
C62   C65   A    
C18   C22   A    
O10   C6    A    
C52   H19   S    
O20   V2    S    
C22   H10   S    
O17   V1    S    
C43   C47   A    
C39   C47   A    
C11   Br3   S    
C42   C58   A    
C48   H23   S    
C21   C25   A    
C41   C57   A    
C9    Br1   S    
C66   C70   A    
C23   C27   A    
C12   Br4   S    
C42   H26   S    
O4    V2    S    
C41   H25   S    
C55   C59   A    
C28   C32   A    
C20   C24   A    
C11   C15   A    
C70   H14   S    
C4    O14   A    
C14   H6    S    
C13   C17   A    
C67   C71   A    
C46   H21   S    
C55   C63   A    
C15   C19   A    
C54   C62   A    
C9    C29   A    
C24   C28   A    
