data_mof_unit_54201.cif
_audit_creation_date              2012-12-11T17:43:39-0500
_audit_creation_method            fapswitch 2.2
_symmetry_space_group_name_H-M    P1
_symmetry_Int_Tables_number       1
_space_group_crystal_system       triclinic
_cell_length_a                    15.038123
_cell_length_b                    15.269075
_cell_length_c                    16.939647
_cell_angle_alpha                 108.930746
_cell_angle_beta                  105.780781
_cell_angle_gamma                 109.403852
_cell_volume                      3140.25280336

loop_
_atom_site_label
_atom_site_type_symbol
_atom_type_description
_atom_site_fract_x
_atom_site_fract_y
_atom_site_fract_z
_atom_type_partial_charge
C1    C     C_R   0.087780 0.277060 0.045772 0.557400
C2    C     C_R   0.071521 0.058510 0.950624 -0.351935
C3    C     C_R   0.999795 0.894962 0.953133 0.096740
C4    C     C_R   0.996322 0.079711 0.974678 0.115027
C5    C     C_R   0.074968 0.966195 0.940666 0.144831
C6    C     C_R   0.918488 0.005591 0.983131 0.137049
C7    C     C_R   0.727044 0.958362 0.934701 0.509594
C8    C     C_R   0.264015 0.007556 0.978461 0.474056
C9    C     C_R   0.670641 0.044787 0.043633 -0.333265
C10   C     C_R   0.307207 0.903899 0.866977 -0.292988
C11   C     C_R   0.604226 0.933360 0.202103 -0.161582
C12   C     C_R   0.915329 0.709721 0.920705 0.565113
C13   C     C_R   0.510134 0.183030 0.914133 -0.110476
C14   C     C_R   0.598826 0.838175 0.149286 -0.069504
C15   C     C_R   0.533401 0.284295 0.972435 -0.193671
C16   C     C_R   0.936157 0.453294 0.734835 -0.075004
C17   C     C_R   0.064036 0.481877 0.253639 -0.118637
C18   C     C_R   0.555034 0.751025 0.163568 0.212148
C19   C     C_R   0.517054 0.350844 0.935591 0.225860
C20   C     C_R   0.517616 0.761181 0.231989 -0.190784
C21   C     C_R   0.474670 0.313688 0.839620 -0.078676
C22   C     C_R   0.522268 0.856179 0.283955 -0.105678
C23   C     C_R   0.028301 0.467285 0.725411 0.039283
C24   C     C_R   0.447809 0.211009 0.781468 -0.155341
C25   C     C_R   0.565562 0.942217 0.269025 -0.083611
C26   C     C_R   0.465713 0.145816 0.818694 -0.085976
C27   C     C_R   0.636991 0.640703 0.105978 0.605047
C28   C     C_R   0.441189 0.462003 0.996961 0.566295
C29   C     C_R   0.626868 0.543662 0.050364 -0.139389
C30   C     C_R   0.451154 0.558982 0.051519 -0.182612
C31   C     C_R   0.529684 0.453537 0.996452 -0.221026
C32   C     C_R   0.547562 0.649163 0.106508 -0.223580
C33   C     C_R   0.647832 0.972405 0.956374 -0.108942
C34   C     C_R   0.972875 0.423358 0.256110 0.070776
C35   C     C_R   0.337820 0.985857 0.952146 -0.140300
C36   C     C_R   0.964098 0.385433 0.324141 0.164976
C37   C     C_R   0.036641 0.422333 0.638574 0.129011
C38   C     C_R   0.139890 0.436493 0.551498 -0.224143
C39   C     C_R   0.859451 0.318457 0.397134 -0.230983
C40   C     C_R   0.726969 0.211199 0.820053 -0.084352
C41   C     C_R   0.219970 0.795351 0.187983 -0.112409
C42   C     C_R   0.134121 0.452705 0.635301 -0.160944
C43   C     C_R   0.866454 0.338436 0.324304 -0.216627
C44   C     C_R   0.945568 0.361106 0.556141 -0.272026
C45   C     C_R   0.677111 0.207154 0.736365 0.102493
C46   C     C_R   0.054181 0.405625 0.394976 -0.264203
C47   C     C_R   0.950567 0.353202 0.473824 0.190568
C48   C     C_R   0.048605 0.394675 0.472051 0.164162
C49   C     C_R   0.575850 0.123383 0.663199 -0.055073
C50   C     C_R   0.269448 0.891540 0.361626 -0.072843
C51   C     C_R   0.373047 0.079207 0.452023 -0.343906
C52   C     C_R   0.440195 0.944692 0.588171 -0.369679
C53   C     C_R   0.295587 0.992977 0.369055 0.625098
C54   C     C_R   0.538706 0.021317 0.655235 0.591877
C55   C     C_R   0.301396 0.880912 0.442197 -0.306711
C56   C     C_R   0.231436 0.799220 0.273637 0.077427
C57   C     C_R   0.516255 0.144262 0.598915 -0.321677
C58   C     C_R   0.385297 0.964099 0.520756 0.125104
C59   C     C_R   0.423668 0.063892 0.525176 0.108571
C60   C     C_R   0.772958 0.103102 0.111028 -0.290535
C61   C     C_R   0.201965 0.842388 0.806551 -0.255178
C62   C     C_R   0.854294 0.090203 0.092058 0.659985
C63   C     C_R   0.126327 0.863656 0.830025 0.638926
C64   C     C_R   0.299856 0.590826 0.999462 -0.161182
C65   C     C_R   0.750264 0.471830 0.057974 -0.268107
C66   C     C_R   0.832276 0.019339 0.002940 -0.270681
C67   C     C_R   0.357156 0.559869 0.051309 -0.017497
C68   C     C_R   0.156427 0.945748 0.916646 -0.260566
C69   C     C_R   0.732378 0.303688 0.741719 -0.170130
C70   C     C_R   0.211710 0.699626 0.263793 -0.121885
C71   C     C_R   0.295512 0.501880 0.080535 0.568742
C72   C     C_R   0.744422 0.557031 0.973194 0.501013
C73   C     C_R   0.109868 0.537064 0.812048 -0.106499
C74   C     C_R   0.891679 0.397856 0.176598 -0.136394
C75   C     C_R   0.914918 0.194006 0.960334 -0.201720
C76   C     C_R   0.086883 0.797219 0.003667 -0.227234
C77   C     C_R   0.000755 0.179363 0.990391 -0.098792
C78   C     C_R   0.715908 0.538817 0.039424 0.096935
C79   C     C_R   0.002292 0.802582 0.953630 -0.059141
C80   C     C_3   0.780237 0.734665 0.242663 -0.286355
C81   C     C_3   0.317004 0.302670 0.967053 -0.183258
C82   C     C_3   0.657981 0.961272 0.668200 -0.208062
C83   C     C_3   0.152151 0.987495 0.274120 -0.280793
C84   C     C_3   0.970513 0.120044 0.228311 -0.247568
C85   C     C_3   0.996346 0.837567 0.705511 -0.265347
C86   C     C_R   0.922640 0.914629 0.973743 -0.322941
H1    H     H_    0.569394 0.015822 0.309471 0.116218
H2    H     H_    0.411480 0.181525 0.707535 0.135893
H3    H     H_    0.129928 0.439718 0.395355 0.125463
H4    H     H_    0.869695 0.331234 0.556354 0.116597
H5    H     H_    0.795443 0.321680 0.270826 0.120506
H6    H     H_    0.205988 0.495531 0.697425 0.126114
H7    H     H_    0.215710 0.466784 0.550793 0.137636
H8    H     H_    0.783710 0.286290 0.397667 0.133919
H9    H     H_    0.857706 0.406342 0.681887 0.091866
H10   H     H_    0.142468 0.502298 0.297173 0.108582
H11   H     H_    0.567846 0.927211 0.904740 0.148989
H12   H     H_    0.444049 0.066070 0.773726 0.126881
H13   H     H_    0.419625 0.031814 0.999151 0.136247
H14   H     H_    0.543367 0.221395 0.603144 0.150742
H15   H     H_    0.274644 0.805458 0.441097 0.144434
H16   H     H_    0.399663 0.156416 0.455984 0.163910
H17   H     H_    0.412212 0.866985 0.583226 0.162054
H18   H     H_    0.608693 0.055463 0.059233 0.161714
H19   H     H_    0.365249 0.887501 0.848115 0.165253
H20   H     H_    0.788862 0.158073 0.178284 0.154851
H21   H     H_    0.178839 0.778105 0.741040 0.155612
H22   H     H_    0.695767 0.159168 0.847077 0.150602
H23   H     H_    0.638136 0.000321 0.191124 0.129418
H24   H     H_    0.232324 0.858627 0.170431 0.169132
H25   H     H_    0.328417 0.645308 0.973614 0.128077
H26   H     H_    0.735728 0.437648 0.102641 0.134248
H27   H     H_    0.707891 0.333828 0.694977 0.105404
H28   H     H_    0.213136 0.672349 0.314932 0.098186
H29   H     H_    0.192066 0.566067 0.830130 0.100649
H30   H     H_    0.811761 0.339409 0.148512 0.097069
H31   H     H_    0.834710 0.135767 0.918488 0.140513
H32   H     H_    0.167910 0.852498 0.031380 0.145109
H33   H     H_    0.866076 0.859519 0.984780 0.176707
H34   H     H_    0.524204 0.132582 0.942805 0.116092
H35   H     H_    0.128202 0.114396 0.940642 0.140579
H36   H     H_    0.182599 0.234286 0.104850 0.321848
H37   H     H_    0.828216 0.722218 0.821715 0.335228
H38   H     H_    0.760137 0.889350 0.835711 0.313056
H39   H     H_    0.241950 0.084747 0.082098 0.327980
H40   H     H_    0.793201 0.665607 0.236823 0.139075
H41   H     H_    0.732995 0.743708 0.282305 0.141068
H42   H     H_    0.857503 0.804829 0.282317 0.174596
H43   H     H_    0.317508 0.231909 0.921480 0.162218
H44   H     H_    0.236480 0.280019 0.960773 0.165915
H45   H     H_    0.627952 0.832208 0.096885 0.142908
H46   H     H_    0.368428 0.328546 0.040125 0.147643
H47   H     H_    0.707696 0.022715 0.655387 0.116706
H48   H     H_    0.606948 0.887665 0.602657 0.138911
H49   H     H_    0.710967 0.945537 0.714922 0.187345
H50   H     H_    0.145356 0.038739 0.333768 0.137261
H51   H     H_    0.102214 0.903931 0.252648 0.143566
H52   H     H_    0.122113 0.003196 0.215450 0.187615
H53   H     H_    0.946313 0.034794 0.199769 0.132637
H54   H     H_    0.928300 0.141412 0.269848 0.147196
H55   H     H_    0.054643 0.161881 0.275636 0.177984
H56   H     H_    0.561691 0.309996 0.046021 0.113325
H57   H     H_    0.040219 0.831155 0.662326 0.136678
H58   H     H_    0.009980 0.919552 0.740056 0.138027
H59   H     H_    0.912143 0.788660 0.658817 0.177142
H60   H     H_    0.404601 0.501523 0.172169 0.291913
H61   H     H_    0.687138 0.546347 0.853555 0.345179
H62   H     H_    0.485023 0.695726 0.245271 0.126251
H63   H     H_    0.458868 0.362960 0.810003 0.129059
H64   H     H_    0.492540 0.863157 0.335969 0.122572
N1    N     N_R   0.055660 0.348550 0.045620 -0.072046
N2    N     N_R   0.185200 0.638170 0.176300 -0.045967
N3    N     N_R   0.201680 0.494570 0.045620 -0.085357
N4    N     N_R   0.798320 0.505430 0.954380 -0.113353
N5    N     N_R   0.068420 0.560530 0.871650 -0.042113
N6    N     N_R   0.931580 0.439470 0.128350 -0.039426
N7    N     N_R   0.948070 0.295860 0.997670 -0.068057
N8    N     N_R   0.051930 0.704140 0.002330 -0.072604
N9    N     N_R   0.944340 0.651450 0.954380 -0.088467
N10   N     N_R   0.960830 0.507850 0.823700 -0.039116
N11   N     N_R   0.039170 0.492150 0.176300 -0.044984
N12   N     N_R   0.811290 0.303410 0.871650 -0.053893
N13   N     N_R   0.188710 0.696590 0.128350 -0.055261
N14   N     N_R   0.205200 0.552990 0.997670 -0.081326
N15   N     N_R   0.794800 0.447010 0.002330 -0.061910
N16   N     N_R   0.814800 0.361830 0.823700 -0.046896
Ni1   Ni    Ni4+2 0.119340 0.493420 0.109960 0.282642
Ni2   Ni    Ni4+2 0.880660 0.506580 0.890040 0.243502
Ni3   Ni    Ni4+2 0.872590 0.372590 0.000000 0.207574
Ni4   Ni    Ni4+2 0.127410 0.627410 0.000000 0.205834
O1    O     O_3   0.183809 0.300003 0.106471 -0.713077
O2    O     O_3   0.022210 0.800430 0.770053 -0.611736
O3    O     O_3   0.329357 0.480899 0.152987 -0.723562
O4    O     O_3   0.694829 0.588501 0.915731 -0.729770
O5    O     O_3   0.824283 0.669132 0.844005 -0.758711
O6    O     O_3   0.697809 0.885620 0.846266 -0.737976
O7    O     O_3   0.300563 0.087470 0.065430 -0.754510
O8    O     O_3   0.733588 0.728065 0.155220 -0.611442
O9    O     O_3   0.342783 0.379137 0.935956 -0.627168
O10   O     O_3   0.598592 0.994330 0.710948 -0.627665
O11   O     O_3   0.256903 0.009713 0.294461 -0.623948
O12   O     O_3   0.956392 0.151411 0.158116 -0.611066

loop_
_geom_bond_atom_site_label_1
_geom_bond_atom_site_label_2
_ccdc_geom_bond_type
C17   N11   A    
N16   Ni2   S    
C22   H64   S    
C52   H17   S    
C11   H23   S    
C1    C77   A    
C14   C18   A    
N14   Ni4   S    
C75   H31   S    
C27   O8    S    
C64   N14   A    
C19   C31   S    
C85   H57   S    
C63   O2    S    
H61   O4    S    
C60   H20   S    
C39   H8    S    
C46   H3    S    
C70   H28   S    
C51   H16   S    
C15   C19   A    
C76   N8    A    
C6    C66   S    
N1    N7    A    
C19   C21   A    
C85   H59   S    
C38   C42   A    
C11   C14   A    
C57   C59   A    
C27   C29   A    
C11   C25   A    
C49   C54   A    
C71   N3    A    
C12   C79   A    
C65   N15   A    
N6    Ni3   S    
C25   H1    S    
C49   C57   A    
N9    Ni2   S    
C83   O11   S    
C18   C20   A    
C60   C62   A    
C37   C42   A    
C61   C63   A    
N13   Ni4   S    
C69   N16   A    
C43   H5    S    
C72   C78   A    
N7    Ni3   S    
N12   N16   A    
C8    O7    S    
C29   C78   S    
C84   H53   S    
C22   C25   A    
C20   H62   S    
N4    N15   A    
C36   C46   A    
C10   C35   A    
C72   O4    S    
C67   C71   A    
C30   C67   S    
C44   C47   A    
C40   H22   S    
C75   N7    A    
C27   C32   A    
C3    C79   S    
N3    Ni1   S    
C3    C86   A    
C9    C33   A    
C7    C33   A    
N4    Ni2   S    
C23   C73   A    
C5    C68   S    
C35   H13   S    
C85   H58   S    
C52   C54   A    
C14   H45   S    
N15   Ni3   S    
C40   C45   A    
C46   C48   A    
C50   C53   A    
C72   N4    A    
C62   C66   A    
N3    N14   A    
C45   C69   A    
C85   O2    S    
C64   C67   A    
C70   N2    A    
C81   O9    S    
C4    C6    A    
N8    Ni4   S    
C64   H25   S    
C39   C43   A    
C80   H42   S    
C3    C5    A    
C58   C59   A    
C23   C37   S    
C57   H14   S    
C1    O1    S    
C76   H32   S    
C71   O3    S    
C51   C53   A    
C8    C35   A    
C80   O8    S    
C82   H48   S    
C2    C4    A    
C41   C56   A    
C40   N12   A    
C53   O11   S    
H60   O3    S    
C62   O12   S    
C15   H56   S    
C24   H2    S    
C81   H43   S    
C47   C48   A    
C13   C15   A    
C45   C49   S    
C74   H30   S    
C7    O6    S    
C73   N5    A    
C36   C43   A    
C74   N6    A    
C17   H10   S    
N11   Ni1   S    
C75   C77   A    
C83   H50   S    
C86   H33   S    
C52   C58   A    
C34   C74   A    
C12   O5    S    
C26   H12   S    
N6    N11   A    
C8    C68   A    
C16   C23   A    
C21   H63   S    
C41   H24   S    
C41   N13   A    
H39   O7    S    
N8    N9    A    
C13   C26   A    
C21   C24   A    
C10   C61   A    
C18   C32   S    
C17   C34   A    
C65   H26   S    
C83   H51   S    
N2    Ni1   S    
C44   H4    S    
C39   C47   A    
C2    H35   S    
C63   C68   A    
C16   H9    S    
C65   C78   A    
C42   H6    S    
N5    N10   A    
C38   C48   A    
C28   C31   A    
C24   C26   A    
C20   C22   A    
C81   H46   S    
C6    C86   A    
H37   O5    S    
H38   O6    S    
C80   H41   S    
C55   H15   S    
C56   C70   A    
C50   C55   A    
C73   H29   S    
C9    C60   A    
C82   H47   S    
C84   O12   S    
C82   H49   S    
C4    C77   S    
C29   C31   A    
C7    C66   A    
C30   C32   A    
N5    Ni4   S    
C81   H44   S    
N12   Ni3   S    
C80   H40   S    
C84   H55   S    
C37   C44   A    
C9    H18   S    
N1    Ni1   S    
C38   H7    S    
C28   C30   A    
C54   O10   S    
C1    N1    A    
C34   C36   S    
N10   Ni2   S    
C12   N9    A    
C61   H21   S    
C28   O9    S    
C50   C56   S    
N2    N13   A    
C2    C5    A    
C69   H27   S    
C76   C79   A    
C51   C59   A    
C16   N10   A    
C84   H54   S    
H36   O1    S    
C55   C58   A    
C82   O10   S    
C10   H19   S    
C13   H34   S    
C33   H11   S    
C83   H52   S    
