data_mof_unit_32735.cif
_audit_creation_date              2012-12-10T17:24:15-0500
_audit_creation_method            fapswitch 2.2
_symmetry_space_group_name_H-M    P1
_symmetry_Int_Tables_number       1
_space_group_crystal_system       triclinic
_cell_length_a                    10.107964
_cell_length_b                    10.815883
_cell_length_c                    15.401244
_cell_angle_alpha                 90.761112
_cell_angle_beta                  77.965482
_cell_angle_gamma                 94.792002
_cell_volume                      1640.98849472

loop_
_atom_site_label
_atom_site_type_symbol
_atom_type_description
_atom_site_fract_x
_atom_site_fract_y
_atom_site_fract_z
_atom_type_partial_charge
C1    C     C_R   0.556661 0.732527 0.491946 0.934546
C2    C     C_R   0.518092 0.500452 0.340455 0.891400
C3    C     C_R   0.482001 0.535339 0.754138 -0.205805
C4    C     C_R   0.529742 0.528926 0.244411 -0.204145
C5    C     C_R   0.606155 0.578971 0.776200 -0.291126
C6    C     C_R   0.407394 0.531389 0.214347 -0.272013
C7    C     C_R   0.609333 0.650255 0.853008 0.501575
C8    C     C_R   0.399585 0.604216 0.140859 0.511180
C9    C     C_R   0.486632 0.677005 0.908674 -0.073587
C10   C     C_R   0.516875 0.672629 0.095422 -0.079659
C11   C     C_R   0.364060 0.619695 0.893657 -0.212619
C12   C     C_R   0.443877 0.267389 0.502737 0.951298
C13   C     C_R   0.642553 0.654158 0.115699 -0.199195
C14   C     C_R   0.360411 0.546217 0.818284 0.377404
C15   C     C_R   0.651450 0.581410 0.188859 0.378187
C16   C     C_2   0.483259 0.789722 0.964413 0.278379
C17   C     C_2   0.503517 0.788528 0.049013 0.362858
C18   C     C_2   0.589630 0.863883 0.478401 -0.329434
C19   C     C_2   0.413036 0.135731 0.495399 -0.321215
C20   C     C_2   0.490731 0.933562 0.469600 -0.120189
C21   C     C_2   0.515573 0.065661 0.467323 -0.147497
C22   C     C_2   0.927367 0.511814 0.507756 -0.067399
C23   C     C_2   0.072423 0.487595 0.492727 -0.086284
C24   C     C_R   0.482920 0.503864 0.659468 0.931608
H1    H     H_    0.700719 0.568217 0.729542 0.172162
H2    H     H_    0.888209 0.583665 0.553554 0.150957
H3    H     H_    0.113735 0.620524 0.574779 0.198785
H4    H     H_    0.886680 0.380879 0.424025 0.193540
H5    H     H_    0.805468 0.742454 0.285130 0.350277
H6    H     H_    0.119045 0.646692 0.783999 0.355098
H7    H     H_    0.518315 0.963684 0.251714 0.383918
H8    H     H_    0.661749 0.009707 0.888829 0.374941
H9    H     H_    0.204186 0.567229 0.157476 0.380808
H10   H     H_    0.806356 0.677327 0.824742 0.354751
H11   H     H_    0.314407 0.487214 0.253742 0.171164
H12   H     H_    0.269840 0.639874 0.937544 0.231156
H13   H     H_    0.732450 0.706700 0.079235 0.223559
H14   H     H_    0.620334 0.104967 0.449181 0.196235
H15   H     H_    0.387586 0.894092 0.471263 0.197739
H16   H     H_    0.308565 0.095970 0.513737 0.167979
H17   H     H_    0.692470 0.903779 0.476926 0.162798
H18   H     H_    0.111340 0.415081 0.447470 0.157027
N1    N     N_2   0.846390 0.448330 0.467170 -0.153441
N2    N     N_2   0.153610 0.551670 0.532830 -0.158201
O1    O     O_R   0.430310 0.692580 0.506610 -0.609688
O2    O     O_2   0.923621 0.612168 0.132859 -0.240845
O3    O     O_3   0.833543 0.660634 0.298973 -0.517449
O4    O     O_2   0.219795 0.353959 0.757460 -0.231337
O5    O     O_2   0.110863 0.449321 0.896058 -0.217642
O6    O     O_3   0.126334 0.569081 0.749073 -0.548941
O7    O     O_2   0.642687 0.000844 0.079974 -0.237179
O8    O     O_2   0.394361 0.000602 0.112120 -0.183099
O9    O     O_3   0.505846 0.884297 0.220447 -0.578692
O10   O     O_2   0.459222 0.901617 0.813823 -0.305280
O11   O     O_2   0.318446 0.967654 0.952280 -0.164841
O12   O     O_R   0.569690 0.307420 0.493390 -0.609879
O13   O     O_3   0.574911 0.041912 0.918645 -0.426304
O14   O     O_3   0.276654 0.620619 0.118657 -0.725242
O15   O     O_3   0.729764 0.704646 0.870194 -0.758712
O16   O     O_R   0.652740 0.659410 0.485540 -0.588877
O17   O     O_R   0.347260 0.340590 0.514460 -0.591968
O18   O     O_R   0.375640 0.518570 0.627580 -0.522385
O19   O     O_R   0.624360 0.481430 0.372420 -0.514740
O20   O     O_R   0.598070 0.485390 0.606510 -0.614598
O21   O     O_R   0.401930 0.514610 0.393490 -0.615150
O22   O     O_2   0.831676 0.438314 0.233081 -0.245573
S1    S     S_3+6 0.814970 0.570582 0.211766 0.073264
S2    S     S_3+6 0.201177 0.474578 0.806314 0.089446
S3    S     S_3+6 0.511377 0.924663 0.114491 0.098681
S4    S     S_3+6 0.455742 0.926877 0.910502 0.125831
Zn1   Zn    Zn3+2 0.351480 0.522150 0.514070 1.018948
Zn2   Zn    Zn3+2 0.648520 0.477850 0.485930 1.022734

loop_
_geom_bond_atom_site_label_1
_geom_bond_atom_site_label_2
_ccdc_geom_bond_type
C2    C4    S    
C17   S3    S    
N1    Zn2   S    
O5    S2    D    
C3    C14   A    
O13   S4    S    
O1    Zn1   S    
H4    N1    S    
C13   H13   S    
C22   N1    D    
O10   S4    D    
O4    S2    D    
C3    C5    A    
C2    O21   A    
C15   S1    S    
O17   Zn1   S    
C4    C15   A    
O20   Zn2   S    
O22   S1    D    
H6    O6    S    
O9    S3    S    
O2    S1    D    
C24   O20   A    
C12   O12   A    
C20   C21   S    
C24   O18   A    
C12   O17   A    
C9    C11   A    
C1    O1    A    
C1    C18   S    
H9    O14   S    
C23   H18   S    
H8    O13   S    
H5    O3    S    
C5    H1    S    
C12   C19   S    
O3    S1    S    
C11   H12   S    
C19   C21   D    
C9    C16   S    
O18   Zn1   S    
C18   C20   D    
C13   C15   A    
H10   O15   S    
C11   C14   A    
O19   Zn2   S    
C18   H17   S    
O11   S4    D    
C19   H16   S    
O16   Zn2   S    
C10   C17   S    
C7    C9    A    
C16   S4    S    
C6    H11   S    
N2    Zn1   S    
C4    C6    A    
C22   H2    S    
C1    O16   A    
C7    O15   S    
C5    C7    A    
C20   H15   S    
C14   S2    S    
C2    O19   A    
C21   H14   S    
C6    C8    A    
O8    S3    D    
O7    S3    D    
C8    O14   S    
C22   C23   S    
O6    S2    S    
H3    N2    S    
C8    C10   A    
H7    O9    S    
C23   N2    D    
C3    C24   S    
O21   Zn1   S    
C16   C17   D    
O12   Zn2   S    
C10   C13   A    
