data_mof_unit_54790.cif
_audit_creation_date              2012-12-11T15:08:45-0500
_audit_creation_method            fapswitch 2.2
_symmetry_space_group_name_H-M    P1
_symmetry_Int_Tables_number       1
_space_group_crystal_system       triclinic
_cell_length_a                    19.548066
_cell_length_b                    11.495844
_cell_length_c                    18.672401
_cell_angle_alpha                 90.547598
_cell_angle_beta                  91.414402
_cell_angle_gamma                 90.174315
_cell_volume                      4194.59766619

loop_
_atom_site_label
_atom_site_type_symbol
_atom_type_description
_atom_site_fract_x
_atom_site_fract_y
_atom_site_fract_z
_atom_type_partial_charge
C1    C     C_R   0.273953 0.041363 0.854467 0.535833
C2    C     C_3   0.692548 0.520909 0.955514 -0.229628
C3    C     C_R   0.229606 0.548841 0.351195 0.526957
C4    C     C_R   0.466776 0.821794 0.645774 0.545710
C5    C     C_R   0.550973 0.821568 0.361674 0.533264
C6    C     C_R   0.966776 0.321794 0.645774 0.545709
C7    C     C_R   0.050973 0.321568 0.361674 0.533265
C8    C     C_R   0.261911 0.644712 0.642334 0.540864
C9    C     C_R   0.740410 0.635669 0.353898 0.519250
C10   C     C_R   0.761912 0.144712 0.642334 0.540863
C11   C     C_R   0.240410 0.135669 0.353899 0.519250
C12   C     C_3   0.460102 0.911649 0.032007 -0.108513
C13   C     C_3   0.816025 0.039754 0.047522 -0.220793
C14   C     C_3   0.516879 0.929868 0.977483 -0.123693
C15   C     C_3   0.960101 0.411647 0.032007 -0.108516
C16   C     C_3   0.016878 0.429869 0.977483 -0.123690
C17   C     C_3   0.431636 0.808451 0.986026 -0.092748
C18   C     C_3   0.561943 0.842278 0.018854 -0.093043
C19   C     C_3   0.931636 0.308449 0.986027 -0.092752
C20   C     C_3   0.061942 0.342279 0.018854 -0.093032
C21   C     C_3   0.488898 0.827030 0.932408 0.061957
C22   C     C_3   0.504752 0.824398 0.071815 0.069907
C23   C     C_3   0.988897 0.327030 0.932408 0.061959
C24   C     C_3   0.192548 0.020910 0.955514 -0.229630
C25   C     C_3   0.004752 0.324398 0.071815 0.069904
C26   C     C_2   0.280197 0.778508 0.116497 0.174200
C27   C     C_2   0.713797 0.767270 0.884254 0.170070
C28   C     C_2   0.780196 0.278508 0.116496 0.174199
C29   C     C_2   0.213795 0.267270 0.884254 0.170063
C30   C     C_1   0.474930 0.027180 0.420173 0.189626
C31   C     C_1   0.571872 0.985619 0.614437 0.162386
C32   C     C_1   0.974930 0.527180 0.420173 0.189626
C33   C     C_1   0.071872 0.485619 0.614437 0.162386
C34   C     C_2   0.304951 0.412683 0.590734 0.185215
C35   C     C_3   0.323324 0.561773 0.966733 -0.234913
C36   C     C_2   0.652224 0.444370 0.418051 0.203586
C37   C     C_2   0.804952 0.912684 0.590734 0.185214
C38   C     C_2   0.152224 0.944370 0.418051 0.203586
C39   C     C_3   0.687221 0.529540 0.037522 -0.254454
C40   C     C_3   0.823323 0.061770 0.966732 -0.234915
C41   C     C_3   0.187221 0.029539 0.037521 -0.254453
C42   C     C_3   0.189551 0.521320 0.019841 -0.256781
C43   C     C_3   0.823456 0.539388 0.975108 -0.240675
C44   C     C_3   0.689551 0.021318 0.019842 -0.256781
C45   C     C_R   0.726534 0.040237 0.145267 0.535478
C46   C     C_3   0.323456 0.039390 0.975108 -0.240671
C47   C     C_3   0.235563 0.709212 0.064232 -0.069016
C48   C     C_3   0.757346 0.708182 0.940936 -0.082959
C49   C     C_3   0.735562 0.209211 0.064231 -0.069017
C50   C     C_3   0.257344 0.208183 0.940936 -0.082960
C51   C     C_3   0.243586 0.577587 0.071754 0.063857
C52   C     C_3   0.760340 0.576595 0.929019 0.065577
C53   C     C_3   0.743585 0.077586 0.071754 0.063860
C54   C     C_3   0.260340 0.076596 0.929019 0.065571
C55   C     C_3   0.260962 0.631811 0.936484 0.028816
C56   C     C_R   0.773953 0.541362 0.854468 0.535845
C57   C     C_3   0.742789 0.614692 0.066334 0.032607
C58   C     C_3   0.760961 0.131807 0.936483 0.028818
C59   C     C_3   0.242789 0.114691 0.066334 0.032606
C60   C     C_3   0.198107 0.553449 0.941198 -0.231845
C61   C     C_3   0.813527 0.562767 0.054758 -0.255702
C62   C     C_3   0.698106 0.053447 0.941199 -0.231852
C63   C     C_3   0.313528 0.062766 0.054758 -0.255703
C64   C     C_3   0.243386 0.738873 0.984519 -0.212265
C65   C     C_3   0.736934 0.726623 0.020257 -0.217748
C66   C     C_3   0.743385 0.238870 0.984518 -0.212262
C67   C     C_R   0.226534 0.540237 0.145267 0.535477
C68   C     C_3   0.236933 0.226623 0.020258 -0.217740
C69   C     C_3   0.507891 0.706191 0.462001 -0.245411
C70   C     C_3   0.499883 0.702211 0.541074 -0.236845
C71   C     C_3   0.007890 0.206191 0.462001 -0.245410
C72   C     C_3   0.999883 0.202211 0.541074 -0.236845
C73   C     C_R   0.468508 0.821249 0.855486 0.563450
C74   C     C_R   0.528419 0.820534 0.147093 0.565429
C75   C     C_R   0.968508 0.321248 0.855486 0.563451
C76   C     C_R   0.028420 0.320534 0.147094 0.565429
C77   C     C_3   0.583173 0.886131 0.491082 -0.248057
C78   C     C_3   0.533607 0.739511 0.973415 -0.089356
C79   C     C_3   0.447095 0.908058 0.526216 -0.232315
C80   C     C_3   0.083173 0.386131 0.491082 -0.248057
C81   C     C_3   0.947095 0.408058 0.526216 -0.232315
C82   C     C_3   0.463774 0.906598 0.445786 -0.117159
C83   C     C_3   0.565865 0.876790 0.571778 -0.132185
C84   C     C_3   0.963773 0.406597 0.445786 -0.117159
C85   C     C_3   0.065864 0.376790 0.571778 -0.132185
C86   C     C_3   0.527630 0.831008 0.437877 0.026436
C87   C     C_3   0.493849 0.827106 0.573007 0.037300
C88   C     C_3   0.027630 0.331008 0.437877 0.026436
C89   C     C_3   0.477051 0.721880 0.027317 -0.107157
C90   C     C_3   0.993849 0.327106 0.573007 0.037301
C91   C     C_3   0.187525 0.660323 0.454388 -0.233670
C92   C     C_3   0.825244 0.615934 0.535159 -0.237205
C93   C     C_3   0.687524 0.160324 0.454388 -0.233669
C94   C     C_3   0.325244 0.115934 0.535160 -0.237206
C95   C     C_3   0.189931 0.667962 0.533710 -0.242323
C96   C     C_3   0.822754 0.610124 0.454831 -0.255616
C97   C     C_3   0.689931 0.167963 0.533710 -0.242323
C98   C     C_3   0.322753 0.110125 0.454831 -0.255616
C99   C     C_3   0.250472 0.466436 0.468575 -0.192035
C100  C     C_3   0.033607 0.239512 0.973415 -0.089349
C101  C     C_3   0.735531 0.453357 0.527391 -0.188299
C102  C     C_3   0.750472 0.966437 0.468575 -0.192034
C103  C     C_3   0.235532 0.953357 0.527390 -0.188299
C104  C     C_3   0.312676 0.646194 0.442183 -0.265472
C105  C     C_3   0.703282 0.652693 0.554770 -0.256652
C106  C     C_3   0.812676 0.146194 0.442183 -0.265471
C107  C     C_3   0.203281 0.152691 0.554770 -0.256651
C108  C     C_3   0.245738 0.581585 0.426710 0.033025
C109  C     C_3   0.759516 0.565276 0.567884 0.024607
C110  C     C_3   0.745738 0.081586 0.426710 0.033025
C111  C     C_3   0.977052 0.221880 0.027317 -0.107160
C112  C     C_3   0.259516 0.065275 0.567883 0.024607
C113  C     C_3   0.255763 0.613099 0.565452 0.045315
C114  C     C_3   0.747798 0.596303 0.429065 0.039888
C115  C     C_3   0.755763 0.113099 0.565452 0.045313
C116  C     C_3   0.247798 0.096304 0.429065 0.039888
C117  C     C_3   0.250274 0.481941 0.551143 -0.106342
C118  C     C_3   0.725017 0.470920 0.444910 -0.090649
C119  C     C_3   0.750274 0.981942 0.551143 -0.106342
C120  C     C_3   0.225018 0.970920 0.444910 -0.090650
C121  C     C_R   0.270280 0.670029 0.860759 0.529015
C122  C     C_3   0.316026 0.539755 0.047523 -0.220792
C123  C     C_R   0.736066 0.646494 0.143663 0.535342
C124  C     C_R   0.770279 0.170024 0.860758 0.529019
C125  C     C_R   0.236066 0.146493 0.143663 0.535340
C126  C     C_3   0.319881 0.657590 0.524930 -0.215583
C127  C     C_3   0.702394 0.676293 0.473727 -0.214440
C128  C     C_3   0.819881 0.157590 0.524930 -0.215583
C129  C     C_3   0.202394 0.176292 0.473727 -0.214440
C130  C     C_R   0.273233 0.040883 0.644976 0.530046
C131  C     C_R   0.729606 0.048841 0.351195 0.526957
C132  C     C_R   0.773233 0.540883 0.644976 0.530047
Cr1   Cr    Cr6+3 0.229620 0.836040 0.749110 1.027249
Cr2   Cr    Cr6+3 0.613980 0.676590 0.250790 1.004785
Cr3   Cr    Cr6+3 0.886020 0.176590 0.749210 1.029901
Cr4   Cr    Cr6+3 0.113980 0.176590 0.250790 1.004785
Cr5   Cr    Cr6+3 0.770380 0.836040 0.250890 1.017783
Cr6   Cr    Cr6+3 0.729620 0.336040 0.749110 1.027251
Cr7   Cr    Cr6+3 0.270380 0.336040 0.250890 1.017783
Cr8   Cr    Cr6+3 0.387630 0.990680 0.750730 1.033117
Cr9   Cr    Cr6+3 0.612370 0.990680 0.249270 1.027132
Cr10  Cr    Cr6+3 0.887630 0.490680 0.750730 1.033118
Cr11  Cr    Cr6+3 0.112370 0.490680 0.249270 1.027132
Cr12  Cr    Cr6+3 0.386020 0.676590 0.749210 1.029904
H1    H     H_    0.380414 0.786794 0.966538 0.108074
H2    H     H_    0.683260 0.748600 0.020072 0.144055
H3    H     H_    0.185511 0.932181 0.936828 0.125438
H4    H     H_    0.356514 0.585291 0.078855 0.185173
H5    H     H_    0.648853 0.565167 0.929525 0.161028
H6    H     H_    0.856514 0.085292 0.078853 0.185174
H7    H     H_    0.148854 0.065169 0.929526 0.161019
H8    H     H_    0.372843 0.602868 0.955858 0.131622
H9    H     H_    0.635210 0.560857 0.050871 0.136566
H10   H     H_    0.872842 0.102865 0.955856 0.131623
H11   H     H_    0.135210 0.060856 0.050871 0.136566
H12   H     H_    0.325345 0.476185 0.938448 0.116986
H13   H     H_    0.776658 0.311671 0.977514 0.112289
H14   H     H_    0.693759 0.443107 0.062110 0.110600
H15   H     H_    0.825343 0.976181 0.938448 0.116982
H16   H     H_    0.193760 0.943107 0.062110 0.110600
H17   H     H_    0.698127 0.929806 0.022300 0.117138
H18   H     H_    0.335899 0.950586 0.964040 0.114401
H19   H     H_    0.198127 0.429807 0.022298 0.117143
H20   H     H_    0.835897 0.450583 0.964042 0.114400
H21   H     H_    0.704449 0.976784 0.906725 0.163708
H22   H     H_    0.319856 0.982930 0.085968 0.169600
H23   H     H_    0.204452 0.476787 0.906724 0.163721
H24   H     H_    0.183260 0.248600 0.020074 0.144058
H25   H     H_    0.819856 0.482931 0.085970 0.169599
H26   H     H_    0.256271 0.827834 0.158907 0.110268
H27   H     H_    0.738480 0.803326 0.837928 0.121085
H28   H     H_    0.756270 0.327836 0.158905 0.110268
H29   H     H_    0.238476 0.303308 0.837922 0.121092
H30   H     H_    0.292730 0.372514 0.641233 0.119623
H31   H     H_    0.643126 0.424794 0.361658 0.135694
H32   H     H_    0.792732 0.872517 0.641234 0.119623
H33   H     H_    0.143126 0.924794 0.361658 0.135694
H34   H     H_    0.191906 0.766435 0.966224 0.100534
H35   H     H_    0.769293 0.794620 0.045132 0.111690
H36   H     H_    0.691905 0.266432 0.966223 0.100535
H37   H     H_    0.269292 0.294619 0.045133 0.111690
H38   H     H_    0.636915 0.044263 0.036117 0.134753
H39   H     H_    0.370372 0.086950 0.959063 0.134198
H40   H     H_    0.136915 0.544265 0.036115 0.134751
H41   H     H_    0.608898 0.856612 0.049028 0.094184
H42   H     H_    0.870372 0.586946 0.959063 0.134198
H43   H     H_    0.150644 0.596857 0.921090 0.145768
H44   H     H_    0.853922 0.624914 0.073981 0.136803
H45   H     H_    0.650643 0.096855 0.921091 0.145765
H46   H     H_    0.353922 0.124913 0.073982 0.136803
H47   H     H_    0.544880 0.638288 0.447368 0.195367
H48   H     H_    0.458027 0.644512 0.552706 0.164156
H49   H     H_    0.044880 0.138288 0.447368 0.195366
H50   H     H_    0.958028 0.144511 0.552706 0.164157
H51   H     H_    0.459179 0.679397 0.434876 0.136927
H52   H     H_    0.880414 0.286791 0.966541 0.108079
H53   H     H_    0.543939 0.656084 0.566048 0.142478
H54   H     H_    0.959179 0.179396 0.434876 0.136927
H55   H     H_    0.043939 0.156085 0.566048 0.142477
H56   H     H_    0.627552 0.836376 0.486705 0.081475
H57   H     H_    0.392473 0.891884 0.533221 0.084665
H58   H     H_    0.127552 0.336377 0.486705 0.081475
H59   H     H_    0.892472 0.391884 0.533221 0.084664
H60   H     H_    0.601935 0.815959 0.599011 0.095715
H61   H     H_    0.420198 0.868259 0.414075 0.098329
H62   H     H_    0.101935 0.315960 0.599011 0.095714
H63   H     H_    0.108898 0.356615 0.049027 0.094185
H64   H     H_    0.920198 0.368258 0.414075 0.098328
H65   H     H_    0.435613 0.981746 0.062373 0.121446
H66   H     H_    0.534117 0.014012 0.955481 0.113357
H67   H     H_    0.935612 0.481744 0.062374 0.121447
H68   H     H_    0.034115 0.514013 0.955481 0.113358
H69   H     H_    0.459208 0.996036 0.547098 0.154625
H70   H     H_    0.594265 0.976365 0.476789 0.131031
H71   H     H_    0.959208 0.496036 0.547098 0.154625
H72   H     H_    0.094265 0.476365 0.476789 0.131031
H73   H     H_    0.134656 0.634396 0.438474 0.177147
H74   H     H_    0.182117 0.732505 0.078267 0.089628
H75   H     H_    0.870853 0.576048 0.555551 0.149410
H76   H     H_    0.634657 0.134396 0.438475 0.177147
H77   H     H_    0.370853 0.076049 0.555551 0.149411
H78   H     H_    0.194290 0.746042 0.430951 0.138482
H79   H     H_    0.831517 0.706774 0.552318 0.194231
H80   H     H_    0.694289 0.246041 0.430951 0.138482
H81   H     H_    0.331516 0.206775 0.552318 0.194230
H82   H     H_    0.181664 0.756670 0.550385 0.161898
H83   H     H_    0.849214 0.689422 0.435926 0.192114
H84   H     H_    0.681665 0.256672 0.550384 0.161896
H85   H     H_    0.809175 0.747290 0.935200 0.084651
H86   H     H_    0.349214 0.189424 0.435927 0.192112
H87   H     H_    0.145049 0.623279 0.553010 0.156978
H88   H     H_    0.850420 0.533559 0.435507 0.122056
H89   H     H_    0.645049 0.123282 0.553011 0.156980
H90   H     H_    0.350420 0.033561 0.435507 0.122057
H91   H     H_    0.704923 0.923377 0.449193 0.084681
H92   H     H_    0.272710 0.884713 0.537380 0.089055
H93   H     H_    0.204923 0.423376 0.449192 0.084682
H94   H     H_    0.772708 0.384713 0.537381 0.089056
H95   H     H_    0.701102 0.949540 0.571208 0.073477
H96   H     H_    0.682116 0.232504 0.078266 0.089628
H97   H     H_    0.259182 0.910406 0.416167 0.053790
H98   H     H_    0.201101 0.449540 0.571207 0.073476
H99   H     H_    0.759181 0.410406 0.416168 0.053790
H100  H     H_    0.355820 0.595432 0.420265 0.138870
H101  H     H_    0.653504 0.617356 0.571584 0.141576
H102  H     H_    0.855820 0.095432 0.420265 0.138871
H103  H     H_    0.153503 0.117353 0.571584 0.141579
H104  H     H_    0.313005 0.733013 0.416802 0.102519
H105  H     H_    0.712919 0.733673 0.586140 0.089053
H106  H     H_    0.813005 0.233013 0.416802 0.102519
H107  H     H_    0.309174 0.247293 0.935199 0.084653
H108  H     H_    0.212918 0.233671 0.586140 0.089051
H109  H     H_    0.560000 0.666244 0.948124 0.152461
H110  H     H_    0.462616 0.636566 0.049471 0.120874
H111  H     H_    0.060000 0.166245 0.948123 0.152459
H112  H     H_    0.962616 0.136565 0.049471 0.120874
H113  H     H_    0.335950 0.743314 0.542965 0.089738
H114  H     H_    0.725757 0.759266 0.467741 0.111634
H115  H     H_    0.835950 0.243315 0.542965 0.089739
H116  H     H_    0.225757 0.259265 0.467743 0.111634
H117  H     H_    0.361244 0.600483 0.540761 0.198507
H118  H     H_    0.276659 0.811674 0.977516 0.112292
H119  H     H_    0.650059 0.672007 0.451649 0.150597
H120  H     H_    0.861245 0.100484 0.540761 0.198506
H121  H     H_    0.150059 0.172007 0.451649 0.150596
H122  H     H_    0.295748 0.415184 0.451821 0.181498
H123  H     H_    0.686588 0.430348 0.551917 0.186637
H124  H     H_    0.795747 0.915184 0.451820 0.181500
H125  H     H_    0.186590 0.930345 0.551917 0.186636
H126  H     H_    0.326320 0.447354 0.058335 0.108282
H127  H     H_    0.685512 0.432179 0.936828 0.125435
H128  H     H_    0.826320 0.947354 0.058335 0.108283
N1    N     N_1   0.483901 0.121025 0.400413 -0.276158
N2    N     N_1   0.574677 0.068460 0.650197 -0.262493
N3    N     N_1   0.983901 0.621025 0.400413 -0.276158
N4    N     N_1   0.074676 0.568461 0.650197 -0.262493
O1    O     O_R   0.214130 0.708570 0.829890 -0.517551
O2    O     O_R   0.542830 0.717300 0.331620 -0.522544
O3    O     O_R   0.957170 0.217300 0.668380 -0.523847
O4    O     O_R   0.042830 0.217300 0.331620 -0.522544
O5    O     O_R   0.320870 0.624890 0.673130 -0.494851
O6    O     O_R   0.679130 0.624890 0.326870 -0.530065
O7    O     O_R   0.820870 0.124890 0.673130 -0.494853
O8    O     O_R   0.179130 0.124890 0.326870 -0.530065
O9    O     O_3   0.334430 0.834430 0.749680 -0.308423
O10   O     O_3   0.665570 0.834430 0.250320 -0.296280
O11   O     O_3   0.834430 0.334430 0.749680 -0.308422
O12   O     O_R   0.785870 0.708570 0.170110 -0.525959
O13   O     O_3   0.165570 0.334430 0.250320 -0.296279
O14   O     O_R   0.236050 0.959150 0.825270 -0.517908
O15   O     O_R   0.763950 0.959150 0.174730 -0.512734
O16   O     O_R   0.736050 0.459150 0.825270 -0.517905
O17   O     O_R   0.263950 0.459150 0.174730 -0.512734
O18   O     O_R   0.332100 0.076650 0.832310 -0.537891
O19   O     O_R   0.667900 0.076650 0.167690 -0.540019
O20   O     O_R   0.832100 0.576650 0.832310 -0.537892
O21   O     O_R   0.167900 0.576650 0.167690 -0.540018
O22   O     O_R   0.446500 0.918620 0.826240 -0.504328
O23   O     O_R   0.714130 0.208570 0.829890 -0.517552
O24   O     O_R   0.553500 0.918620 0.173760 -0.509536
O25   O     O_R   0.946500 0.418620 0.826240 -0.504328
O26   O     O_R   0.053500 0.418620 0.173760 -0.509536
O27   O     O_R   0.457310 0.715830 0.831280 -0.519517
O28   O     O_R   0.542690 0.715830 0.168720 -0.517130
O29   O     O_R   0.957310 0.215830 0.831280 -0.519520
O30   O     O_R   0.042690 0.215830 0.168720 -0.517130
O31   O     O_R   0.321000 0.623520 0.824130 -0.510711
O32   O     O_R   0.679000 0.623520 0.175870 -0.514985
O33   O     O_R   0.821000 0.123520 0.824130 -0.510713
O34   O     O_R   0.285870 0.208570 0.170110 -0.525959
O35   O     O_R   0.179000 0.123520 0.175870 -0.514985
O36   O     O_R   0.213990 0.710040 0.667000 -0.507440
O37   O     O_R   0.786010 0.710040 0.333000 -0.518448
O38   O     O_R   0.713990 0.210040 0.667000 -0.507440
O39   O     O_R   0.286010 0.210040 0.333000 -0.518448
O40   O     O_R   0.235920 0.960520 0.674260 -0.511730
O41   O     O_R   0.764080 0.960520 0.325740 -0.508769
O42   O     O_R   0.735920 0.460520 0.674260 -0.511729
O43   O     O_R   0.264080 0.460520 0.325740 -0.508769
O44   O     O_R   0.331960 0.078120 0.669410 -0.522013
O45   O     O_R   0.446360 0.919990 0.675230 -0.491532
O46   O     O_R   0.668040 0.078120 0.330590 -0.528729
O47   O     O_R   0.831960 0.578120 0.669410 -0.522013
O48   O     O_R   0.168040 0.578120 0.330590 -0.528729
O49   O     O_2   0.342381 0.779059 0.113444 -0.553909
O50   O     O_2   0.651763 0.771785 0.887169 -0.552793
O51   O     O_2   0.842380 0.279059 0.113443 -0.553909
O52   O     O_2   0.151762 0.271802 0.887177 -0.552800
O53   O     O_2   0.363285 0.404940 0.569171 -0.529898
O54   O     O_2   0.603886 0.441298 0.458195 -0.535234
O55   O     O_2   0.863286 0.904939 0.569168 -0.529899
O56   O     O_R   0.553640 0.919990 0.324770 -0.480714
O57   O     O_2   0.103886 0.941297 0.458196 -0.535233
O58   O     O_R   0.946360 0.419990 0.675230 -0.491532
O59   O     O_R   0.053640 0.419990 0.324770 -0.480715
O60   O     O_R   0.457170 0.717300 0.668380 -0.523845

loop_
_geom_bond_atom_site_label_1
_geom_bond_atom_site_label_2
_ccdc_geom_bond_type
C27   C48   S    
C103  H92   S    
C107  C112  S    
C107  C129  S    
C129  H116  S    
C69   H47   S    
C79   C87   S    
C70   H48   S    
C80   H72   S    
C4    C87   S    
C2    H127  S    
C36   O54   D    
C1    O18   A    
C93   H76   S    
Cr11  O48   S    
C14   C21   S    
C121  O1    A    
Cr5   O37   S    
Cr4   O13   S    
Cr10  O58   S    
C72   H50   S    
C92   C109  S    
Cr10  O20   S    
Cr1   O1    S    
C44   C53   S    
Cr11  O13   S    
C63   H22   S    
C79   H57   S    
C94   H77   S    
C3    O43   A    
C48   C65   S    
C97   C115  S    
C93   C110  S    
C24   C41   S    
C45   O19   A    
C96   C114  S    
C11   O8    A    
C76   O26   A    
Cr6   O38   S    
C77   H70   S    
Cr7   O43   S    
C78   C89   S    
Cr8   O44   S    
C40   C58   S    
C17   C89   S    
C13   H128  S    
C23   C75   S    
C47   C64   S    
C61   H44   S    
C17   C21   S    
C103  C112  S    
C91   H73   S    
C19   C23   S    
C34   H30   S    
C24   H7    S    
C57   C123  S    
C7    C88   S    
C16   H68   S    
C16   C20   S    
C109  C132  S    
C127  H114  S    
C124  O33   A    
Cr2   O6    S    
C124  O23   A    
C2    C52   S    
C26   C47   S    
C81   C90   S    
Cr10  O25   S    
Cr9   O46   S    
C61   H25   S    
C35   H8    S    
C9    C114  S    
Cr7   O13   S    
C43   C61   S    
C35   C122  S    
C84   C88   S    
C83   H60   S    
Cr12  O60   S    
C85   C90   S    
C57   C61   S    
C33   N4    T    
C19   C111  S    
C59   C63   S    
C25   C76   S    
C106  H106  S    
C80   C88   S    
Cr7   O34   S    
C49   C53   S    
Cr2   O10   S    
C22   C89   S    
C120  H97   S    
C69   C70   S    
Cr4   O8    S    
C123  O12   A    
Cr3   O33   S    
C71   C88   S    
Cr4   O30   S    
C48   C52   S    
C97   H84   S    
C26   H26   S    
C30   N1    T    
Cr12  O5    S    
Cr1   O40   S    
C31   N2    T    
C24   C54   S    
C102  C119  S    
C55   C121  S    
C40   H15   S    
C74   O24   A    
C99   C108  S    
C27   O50   D    
C107  H108  S    
C101  C118  S    
C12   H65   S    
C43   C52   S    
C15   C25   S    
C21   C73   S    
C92   C96   S    
C33   C85   S    
C94   H81   S    
Cr2   O32   S    
C98   H86   S    
C28   H28   S    
C98   H90   S    
C38   O57   D    
C75   O25   A    
Cr1   O36   S    
Cr12  O31   S    
Cr10  O11   S    
C43   H20   S    
C56   O20   A    
C23   C100  S    
C45   C53   S    
C19   H52   S    
C121  O31   A    
C38   H33   S    
Cr5   O41   S    
C70   C87   S    
C9    O37   A    
Cr9   O24   S    
C130  O40   A    
C60   H23   S    
C49   C66   S    
C105  C127  S    
C132  O42   A    
C113  C126  S    
C42   H40   S    
C6    C90   S    
Cr6   O11   S    
Cr11  O59   S    
C115  C128  S    
C116  C120  S    
C126  H117  S    
C123  O32   A    
C21   C78   S    
C92   H75   S    
Cr10  O47   S    
C99   C117  S    
C41   H16   S    
C72   C90   S    
C28   C49   S    
C84   H64   S    
C37   C119  S    
C8    O36   A    
C45   O15   A    
C51   C67   S    
C91   H78   S    
C105  H101  S    
Cr6   O42   S    
C100  C111  S    
Cr7   O39   S    
C48   H85   S    
C68   H24   S    
Cr12  O27   S    
C16   C23   S    
C122  H4    S    
C89   H110  S    
C39   H14   S    
C4    O45   A    
Cr8   O9    S    
C113  C117  S    
C22   C74   S    
C93   C97   S    
C71   H54   S    
C105  C109  S    
C18   C22   S    
C78   H109  S    
C5    O2    A    
C24   H3    S    
C79   C82   S    
C3    C108  S    
C59   C125  S    
C63   H46   S    
C18   H41   S    
C115  C119  S    
C46   C63   S    
C29   O52   D    
C125  O34   A    
C71   C72   S    
C72   H55   S    
C119  H95   S    
C81   H71   S    
Cr5   O10   S    
C94   C112  S    
C9    O6    A    
C77   H56   S    
C131  O46   A    
C25   C111  S    
C91   C95   S    
C36   H31   S    
C20   H63   S    
C112  C130  S    
C65   H2    S    
C66   H13   S    
C41   H11   S    
C58   C62   S    
C83   C87   S    
C99   H122  S    
Cr8   O45   S    
C103  C120  S    
C15   C19   S    
C44   H17   S    
C50   C54   S    
C39   H9    S    
Cr3   O3    S    
C103  H125  S    
Cr4   O4    S    
C95   H87   S    
C13   H6    S    
C64   H118  S    
C71   H49   S    
C28   O51   D    
C20   C25   S    
C94   C98   S    
C101  C109  S    
C106  C128  S    
C13   C40   S    
Cr6   O16   S    
Cr11  O26   S    
C80   H58   S    
C104  H104  S    
C12   C17   S    
C73   O27   A    
C74   O28   A    
C36   C118  S    
C76   O30   A    
C38   C120  S    
C117  H98   S    
C101  H94   S    
C102  H91   S    
C55   C60   S    
C67   O21   A    
C6    O3    A    
C62   H45   S    
C13   C53   S    
C32   C84   S    
C47   H74   S    
C68   H37   S    
C34   O53   D    
Cr2   O2    S    
C128  H115  S    
Cr3   O7    S    
C26   O49   D    
C47   C51   S    
C65   H35   S    
Cr5   O12   S    
C82   C86   S    
C66   H36   S    
C10   O7    A    
C17   H1    S    
C80   C85   S    
C64   H34   S    
C56   O16   A    
C20   C100  S    
C46   C54   S    
C11   C116  S    
C8    C113  S    
Cr4   O35   S    
C10   O38   A    
C130  O44   A    
C60   H43   S    
Cr1   O9    S    
C131  O41   A    
C102  C110  S    
C7    O4    A    
C44   H38   S    
C104  C108  S    
C129  H121  S    
Cr11  O21   S    
C111  H112  S    
C126  H113  S    
C73   O22   A    
C91   C108  S    
C92   H79   S    
C57   C65   S    
Cr9   O56   S    
Cr1   O14   S    
C37   O55   D    
C105  H105  S    
C32   N3    T    
C37   H32   S    
C114  C127  S    
C127  H119  S    
C1    O14   A    
C93   H80   S    
C128  H120  S    
C122  H126  S    
C99   H93   S    
C125  O35   A    
C51   C122  S    
Cr6   O23   S    
C50   C68   S    
C50   H107  S    
C132  O47   A    
C30   C82   S    
C12   C22   S    
C14   C18   S    
C69   H51   S    
C81   H59   S    
C107  H103  S    
C95   C113  S    
Cr8   O18   S    
C75   O29   A    
Cr9   O19   S    
C77   C83   S    
C15   C16   S    
C39   C57   S    
C31   C83   S    
C7    O59   A    
Cr5   O15   S    
C15   H67   S    
C2    C39   S    
C58   C66   S    
C116  C129  S    
C100  H111  S    
C18   C78   S    
C42   C51   S    
C2    H5    S    
C101  H123  S    
C102  H124  S    
C40   H10   S    
Cr2   O28   S    
C49   H96   S    
C85   H62   S    
C29   C50   S    
C14   H66   S    
C35   C55   S    
C96   H83   S    
C110  C131  S    
C35   H12   S    
C41   C59   S    
C42   C60   S    
Cr7   O17   S    
C42   H19   S    
Cr8   O22   S    
C43   H42   S    
C44   C62   S    
C104  H100  S    
C46   H39   S    
C1    C54   S    
C59   C68   S    
C98   C116  S    
C3    O48   A    
C97   H89   S    
C55   C64   S    
C67   O17   A    
C106  H102  S    
C114  C118  S    
C5    C86   S    
C12   C14   S    
C77   C86   S    
C4    O60   A    
C70   H53   S    
C6    O58   A    
Cr3   O11   S    
C27   H27   S    
Cr9   O10   S    
C81   C84   S    
C118  H99   S    
Cr3   O29   S    
C106  C110  S    
Cr12  O9    S    
C29   H29   S    
C58   C124  S    
C95   H82   S    
C8    O5    A    
C34   C117  S    
C11   O39   A    
C96   H88   S    
C10   C115  S    
C79   H69   S    
C62   H21   S    
C104  C126  S    
C46   H18   S    
C82   H61   S    
C69   C86   S    
C52   C56   S    
C5    O56   A    
