data_mof_unit_68071.cif
_audit_creation_date              2012-12-11T14:45:29-0500
_audit_creation_method            fapswitch 2.2
_symmetry_space_group_name_H-M    P1
_symmetry_Int_Tables_number       1
_space_group_crystal_system       triclinic
_cell_length_a                    24.915581
_cell_length_b                    7.399258
_cell_length_c                    14.792631
_cell_angle_alpha                 89.990502
_cell_angle_beta                  101.875791
_cell_angle_gamma                 90.625425
_cell_volume                      2668.58600901

loop_
_atom_site_label
_atom_site_type_symbol
_atom_type_description
_atom_site_fract_x
_atom_site_fract_y
_atom_site_fract_z
_atom_type_partial_charge
O1    O     O_R   0.319150 0.364170 0.330530 -0.560422
O2    O     O_R   0.680850 0.635830 0.669470 -0.551663
O3    O     O_R   0.180850 0.864170 0.169470 -0.559307
O4    O     O_R   0.819150 0.135830 0.830530 -0.533674
O5    O     O_R   0.210330 0.696850 0.354180 -0.563595
O6    O     O_R   0.789670 0.303150 0.645820 -0.532263
O7    O     O_R   0.289670 0.196850 0.145820 -0.565818
O8    O     O_R   0.710330 0.803150 0.854180 -0.530468
C1    C     C_R   0.197166 0.525040 0.377266 0.772856
C2    C     C_R   0.803725 0.475396 0.623708 0.771361
C3    C     C_R   0.304027 0.026995 0.124302 0.768219
C4    C     C_R   0.698229 0.974657 0.879437 0.751845
O9    O     O_R   0.320550 0.694110 0.341970 -0.533321
O10   O     O_R   0.679450 0.305890 0.658030 -0.543173
O11   O     O_R   0.179450 0.194110 0.158030 -0.538425
O12   O     O_R   0.820550 0.805890 0.841970 -0.559476
O13   O     O_R   0.291860 0.861000 0.157170 -0.524751
O14   O     O_R   0.708140 0.139000 0.842830 -0.549572
O15   O     O_R   0.208140 0.361000 0.342830 -0.524624
O16   O     O_R   0.791860 0.639000 0.657170 -0.559774
C5    C     C_R   0.342374 0.527008 0.356970 0.813871
C6    C     C_R   0.659141 0.474530 0.636366 0.789070
C7    C     C_R   0.158594 0.025357 0.139314 0.803672
C8    C     C_R   0.841634 0.975566 0.860444 0.791517
O17   O     O_3   0.240460 0.529330 0.189380 -0.405011
O18   O     O_3   0.759540 0.470670 0.810620 -0.403779
O19   O     O_3   0.259540 0.029330 0.310620 -0.405553
O20   O     O_3   0.740460 0.970670 0.689380 -0.406334
V1    V     V_3+5 0.251770 0.805510 0.261240 1.380550
V2    V     V_3+5 0.748230 0.194490 0.738760 1.381027
V3    V     V_3+5 0.248230 0.305510 0.238760 1.375940
V4    V     V_3+5 0.751770 0.694490 0.761240 1.347209
C9    C     C_R   0.103147 0.015367 0.076809 -0.273712
C10   C     C_R   0.898252 0.986901 0.920010 -0.282107
C11   C     C_R   0.398453 0.519142 0.416507 -0.284382
C12   C     C_R   0.603293 0.486475 0.572796 -0.274443
C13   C     C_R   0.951696 0.007952 0.078784 0.343224
C14   C     C_R   0.050300 0.014365 0.916941 0.340466
C15   C     C_R   0.550261 0.512758 0.412949 0.345901
C16   C     C_R   0.451826 0.509027 0.574151 0.366366
C17   C     C_R   0.902242 0.029688 0.013310 0.312608
C18   C     C_R   0.099982 0.044129 0.982364 0.299943
C19   C     C_R   0.600373 0.527489 0.479352 0.303412
C20   C     C_R   0.402446 0.545125 0.510813 0.282777
C21   C     C_R   0.947621 0.968688 0.885623 0.365154
C22   C     C_R   0.054120 0.988852 0.110499 0.360879
C23   C     C_R   0.553246 0.467321 0.604173 0.370239
C24   C     C_R   0.447093 0.490557 0.381657 0.374324
C25   C     C_R   0.999873 0.991809 0.948841 -0.203914
C26   C     C_R   0.002012 0.994432 0.046907 -0.202389
C27   C     C_R   0.501752 0.492260 0.541556 -0.194707
C28   C     C_R   0.499635 0.499719 0.444255 -0.206329
C29   C     C_R   0.668643 0.989985 0.957751 -0.251865
C30   C     C_R   0.339949 0.032102 0.055680 -0.260995
C31   C     C_R   0.837116 0.494771 0.551523 -0.259462
C32   C     C_R   0.165833 0.521850 0.452255 -0.258602
C33   C     C_R   0.659617 0.142434 0.099311 -0.240704
C34   C     C_R   0.358436 0.162369 0.914505 -0.237016
C35   C     C_R   0.850153 0.650792 0.413437 -0.234043
C36   C     C_R   0.156400 0.638476 0.600697 -0.232194
C37   C     C_R   0.691738 0.090531 0.036904 0.374207
C38   C     C_R   0.321567 0.117889 0.970355 0.378620
C39   C     C_R   0.815928 0.591333 0.470865 0.368827
C40   C     C_R   0.189307 0.595086 0.538557 0.364602
C41   C     C_R   0.615202 0.919647 0.951767 0.448789
C42   C     C_R   0.395436 0.979587 0.080147 0.434882
C43   C     C_R   0.892807 0.444794 0.568061 0.461425
C44   C     C_R   0.110599 0.465776 0.436051 0.466023
C45   C     C_R   0.580854 0.988071 0.009382 -0.061680
C46   C     C_R   0.433563 0.034808 0.025874 -0.043888
C47   C     C_R   0.928238 0.515762 0.512120 -0.044313
C48   C     C_R   0.075851 0.524199 0.495125 -0.051059
C49   C     C_R   0.605417 0.080060 0.090392 -0.151541
C50   C     C_R   0.412945 0.105956 0.937686 -0.145293
C51   C     C_R   0.904547 0.593943 0.427069 -0.147357
C52   C     C_R   0.100315 0.591533 0.583226 -0.143385
C53   C     C_R   0.522708 0.989419 0.984242 -0.093438
C54   C     C_R   0.491531 0.015783 0.054104 -0.107696
C55   C     C_R   0.986369 0.517137 0.538954 -0.107922
C56   C     C_R   0.017651 0.521733 0.468168 -0.107871
C57   C     C_R   0.519162 0.054535 0.146524 0.353786
C58   C     C_R   0.496483 0.013812 0.890522 0.329075
C59   C     C_R   0.990839 0.554065 0.373984 0.350633
C60   C     C_R   0.012659 0.549726 0.633180 0.352450
C61   C     C_R   0.575616 0.106518 0.161049 0.362079
C62   C     C_R   0.445242 0.101268 0.870557 0.367887
C63   C     C_R   0.934802 0.608672 0.356405 0.348663
C64   C     C_R   0.068835 0.607185 0.652313 0.343710
H1    H     H_    0.679024 0.226989 0.156228 0.168497
H2    H     H_    0.342329 0.226803 0.849002 0.175150
H3    H     H_    0.831912 0.732763 0.355348 0.168861
H4    H     H_    0.176944 0.702450 0.663661 0.166582
O21   O     O_3   0.054733 0.997798 0.204737 -0.551349
C65   C     C_3   0.091766 0.879331 0.259407 -0.125903
H5    H     H_    0.130039 0.952473 0.290490 0.133072
H6    H     H_    0.100355 0.756450 0.222759 0.141056
H7    H     H_    0.074511 0.835477 0.318537 0.162981
O22   O     O_3   0.947604 0.963124 0.791173 -0.547085
C66   C     C_3   0.906112 0.856176 0.736585 -0.112561
H8    H     H_    0.869332 0.937824 0.709837 0.126563
H9    H     H_    0.896438 0.731907 0.771546 0.143829
H10   H     H_    0.920089 0.812138 0.674310 0.159627
O23   O     O_3   0.445646 0.486709 0.287226 -0.548966
C67   C     C_3   0.408025 0.359081 0.238800 -0.114333
H11   H     H_    0.368947 0.425311 0.208809 0.119084
H12   H     H_    0.401397 0.239205 0.280107 0.143794
H13   H     H_    0.423060 0.312274 0.177912 0.159928
O24   O     O_3   0.551524 0.396303 0.689980 -0.565277
C68   C     C_3   0.589283 0.472375 0.764139 -0.256885
H14   H     H_    0.598604 0.615812 0.753236 0.187244
H15   H     H_    0.626800 0.390068 0.781672 0.147552
H16   H     H_    0.570511 0.461688 0.825163 0.175567
O25   O     O_3   0.147889 0.091276 0.954414 -0.544507
C69   C     C_3   0.146296 0.275352 0.927249 0.096564
H17   H     H_    0.104431 0.333311 0.911852 0.043805
H18   H     H_    0.163862 0.281176 0.864643 0.148502
C70   C     C_3   0.181446 0.399334 0.998105 -0.574680
H19   H     H_    0.219382 0.331675 0.031519 0.283345
H20   H     H_    0.193836 0.522301 0.964372 0.130330
H21   H     H_    0.157652 0.443706 0.049667 0.198552
O26   O     O_3   0.855691 0.086920 0.040657 -0.539634
C71   C     C_3   0.859910 0.274862 0.060311 0.064188
H22   H     H_    0.902693 0.329133 0.078097 0.049819
H23   H     H_    0.839957 0.296575 0.119419 0.152480
C72   C     C_3   0.828572 0.387303 0.982204 -0.557824
H24   H     H_    0.822958 0.526432 0.006414 0.136740
H25   H     H_    0.852003 0.397881 0.926241 0.205144
H26   H     H_    0.787513 0.325592 0.957796 0.274097
O27   O     O_3   0.356136 0.601744 0.540261 -0.539666
C73   C     C_3   0.361891 0.787013 0.565503 0.117255
H27   H     H_    0.402618 0.847893 0.562287 0.053063
H28   H     H_    0.354734 0.795667 0.636517 0.141667
C74   C     C_3   0.319674 0.906885 0.505506 -0.568417
H29   H     H_    0.311268 0.026046 0.545788 0.119665
H30   H     H_    0.336408 0.958638 0.446463 0.204713
H31   H     H_    0.280629 0.834272 0.480315 0.273768
O28   O     O_3   0.648547 0.569687 0.452249 -0.539323
C75   C     C_3   0.649976 0.756797 0.432656 0.074574
H32   H     H_    0.609010 0.819547 0.413524 0.045088
H33   H     H_    0.671448 0.770952 0.374850 0.161877
C76   C     C_3   0.682146 0.865763 0.512544 -0.565723
H34   H     H_    0.694967 0.998177 0.488364 0.136609
H35   H     H_    0.655930 0.891915 0.563269 0.198788
H36   H     H_    0.719634 0.793114 0.544378 0.281291
O29   O     O_3   0.947896 0.958893 0.168624 -0.519108
C77   C     C_3   0.951082 0.108864 0.228711 0.236687
H37   H     H_    0.913272 0.187399 0.214675 0.056407
H38   H     H_    0.986919 0.192602 0.225024 0.176682
C78   C     C_3   0.958011 0.050528 0.329070 -0.628528
H39   H     H_    0.988579 0.941745 0.345003 0.239577
H40   H     H_    0.972268 0.167078 0.375346 0.153384
H41   H     H_    0.918139 0.004289 0.343652 0.208824
O30   O     O_3   0.054329 0.966455 0.827271 -0.512489
C79   C     C_3   0.046739 0.114034 0.765319 0.256500
H42   H     H_    0.082826 0.203479 0.776441 0.042862
H43   H     H_    0.009478 0.188349 0.769639 0.176577
C80   C     C_3   0.040025 0.050754 0.665679 -0.615259
H44   H     H_    0.010874 0.935343 0.651949 0.243370
H45   H     H_    0.024204 0.162531 0.617929 0.154731
H46   H     H_    0.080242 0.011172 0.651073 0.208101
O31   O     O_3   0.553208 0.463094 0.323060 -0.506946
C81   C     C_3   0.550115 0.611097 0.262103 0.248442
H47   H     H_    0.587621 0.694445 0.277392 0.054428
H48   H     H_    0.513291 0.691525 0.262541 0.171902
C82   C     C_3   0.546054 0.545786 0.163396 -0.654887
H49   H     H_    0.515103 0.435828 0.146479 0.235394
H50   H     H_    0.533978 0.659073 0.114579 0.156644
H51   H     H_    0.586488 0.497242 0.153940 0.216360
O32   O     O_3   0.448635 0.464310 0.664228 -0.518119
C83   C     C_3   0.455995 0.617148 0.723134 0.270182
H52   H     H_    0.453816 0.747619 0.686896 0.052595
H53   H     H_    0.496994 0.614999 0.767408 0.199491
C84   C     C_3   0.415554 0.611386 0.787901 -0.691076
H54   H     H_    0.429927 0.517446 0.846026 0.234152
H55   H     H_    0.412520 0.746460 0.818323 0.159309
H56   H     H_    0.374274 0.568005 0.750702 0.219637
O33   O     O_3   0.598977 0.205052 0.239067 -0.526253
C85   C     C_3   0.641070 0.107436 0.296036 -0.258432
H57   H     H_    0.680721 0.177790 0.301192 0.134158
H58   H     H_    0.645898 0.967994 0.271295 0.089046
H59   H     H_    0.632581 0.106088 0.366420 0.156070
O34   O     O_3   0.430046 0.202212 0.791184 -0.543886
C86   C     C_3   0.395195 0.101570 0.722531 -0.221289
H60   H     H_    0.370115 0.196608 0.673987 0.176426
H61   H     H_    0.366467 0.009765 0.749403 0.094846
H62   H     H_    0.420578 0.026603 0.683264 0.137351
O35   O     O_3   0.912675 0.699509 0.275419 -0.534381
C87   C     C_3   0.868950 0.602271 0.219963 -0.265525
H63   H     H_    0.830410 0.678538 0.212328 0.138461
H64   H     H_    0.862440 0.464020 0.245847 0.095715
H65   H     H_    0.877289 0.595311 0.149644 0.153007
O36   O     O_3   0.088161 0.714012 0.729350 -0.529778
C88   C     C_3   0.130754 0.632706 0.793157 -0.236193
H66   H     H_    0.166736 0.724648 0.806989 0.148635
H67   H     H_    0.143629 0.500415 0.769918 0.086465
H68   H     H_    0.117688 0.620591 0.859892 0.152946
O37   O     O_3   0.408664 0.835583 0.138950 -0.532583
C89   C     C_3   0.399750 0.676260 0.084364 -0.200946
H69   H     H_    0.431921 0.579509 0.112360 0.172369
H70   H     H_    0.402771 0.692677 0.010459 0.100712
H71   H     H_    0.358742 0.618064 0.085969 0.144018
O38   O     O_3   0.602424 0.754127 0.910284 -0.538884
C90   C     C_3   0.621504 0.616559 0.975901 -0.270756
H72   H     H_    0.640602 0.664101 0.047122 0.117127
H73   H     H_    0.652563 0.534804 0.950767 0.157236
H74   H     H_    0.586560 0.526487 0.982133 0.149695
O39   O     O_3   0.094730 0.317003 0.380571 -0.526223
C91   C     C_3   0.106024 0.161117 0.436933 -0.209219
H75   H     H_    0.073254 0.060304 0.414443 0.152075
H76   H     H_    0.106714 0.182445 0.511914 0.096334
H77   H     H_    0.146113 0.104405 0.430474 0.140376
O40   O     O_3   0.908983 0.293020 0.620101 -0.532063
C92   C     C_3   0.896140 0.141329 0.560506 -0.225786
H78   H     H_    0.927189 0.036987 0.581664 0.154109
H79   H     H_    0.896858 0.168065 0.486449 0.100413
H80   H     H_    0.855166 0.085689 0.564618 0.145698
O41   O     O_3   0.266327 0.138238 0.935184 -0.552244
C93   C     C_3   0.248052 0.987710 0.877656 -0.203158
H81   H     H_    0.206758 0.015655 0.836051 0.182344
H82   H     H_    0.245248 0.865364 0.920231 0.142484
H83   H     H_    0.274398 0.960243 0.826874 0.100872
O42   O     O_3   0.747714 0.110318 0.063329 -0.548717
C94   C     C_3   0.767265 0.965842 0.123860 -0.174264
H84   H     H_    0.770998 0.841946 0.083170 0.143733
H85   H     H_    0.741447 0.935970 0.175462 0.087457
H86   H     H_    0.808304 0.001755 0.165244 0.188833
O43   O     O_3   0.245450 0.599148 0.568521 -0.544655
C95   C     C_3   0.260748 0.434049 0.614407 -0.191574
H87   H     H_    0.305276 0.436576 0.643012 0.186982
H88   H     H_    0.252028 0.317679 0.565689 0.126573
H89   H     H_    0.240324 0.412962 0.673929 0.107085
O44   O     O_3   0.760304 0.602865 0.438972 -0.552506
C96   C     C_3   0.743842 0.455459 0.378320 -0.196020
H90   H     H_    0.742069 0.329730 0.418860 0.139797
H91   H     H_    0.770712 0.435144 0.327563 0.094747
H92   H     H_    0.702525 0.481767 0.336235 0.195941
O45   O     O_3   0.487275 0.082343 0.213005 -0.547008
C97   C     C_3   0.513439 0.041437 0.305003 0.230926
H93   H     H_    0.529684 0.164815 0.342220 0.213860
H94   H     H_    0.547903 0.950110 0.308381 0.042232
C98   C     C_3   0.473203 0.957765 0.358677 -0.789400
H95   H     H_    0.496309 0.883384 0.419269 0.164087
H96   H     H_    0.449669 0.063623 0.385900 0.198179
H97   H     H_    0.444281 0.863130 0.314866 0.284191
O46   O     O_3   0.517056 0.931401 0.820758 -0.567128
C99   C     C_3   0.539314 0.059818 0.768810 0.159312
H98   H     H_    0.569351 0.147268 0.815102 0.116465
H99   H     H_    0.506311 0.139352 0.726806 0.237866
C100  C     C_3   0.568723 0.967321 0.701138 -0.714977
H100  H     H_    0.542649 0.858426 0.662748 0.190653
H101  H     H_    0.578212 0.066654 0.650280 0.206984
H102  H     H_    0.608082 0.911574 0.738364 0.213495
O47   O     O_3   0.023961 0.566106 0.307822 -0.557873
C101  C     C_3   0.997354 0.543530 0.214228 0.182533
H103  H     H_    0.986003 0.675625 0.183200 0.231987
H104  H     H_    0.960107 0.460258 0.206583 0.074092
C102  C     C_3   0.035399 0.457331 0.157545 -0.780911
H105  H     H_    0.010769 0.375779 0.100483 0.168626
H106  H     H_    0.057191 0.560959 0.124249 0.187736
H107  H     H_    0.065905 0.368810 0.201001 0.292580
O48   O     O_3   0.978653 0.562285 0.697839 -0.556252
C103  C     C_3   0.004293 0.540764 0.791794 0.199060
H108  H     H_    0.016049 0.673456 0.823375 0.230418
H109  H     H_    0.041075 0.458247 0.800099 0.058622
C104  C     C_3   0.965263 0.452525 0.846809 -0.801379
H110  H     H_    0.989221 0.373941 0.905050 0.171167
H111  H     H_    0.942667 0.555536 0.877993 0.194260
H112  H     H_    0.935410 0.360565 0.802698 0.281014

loop_
_geom_bond_atom_site_label_1
_geom_bond_atom_site_label_2
_ccdc_geom_bond_type
C34   C38   A    
C59   C63   A    
C90   H72   S    
C86   H62   S    
O1    C5    A    
C80   H44   S    
C91   H76   S    
O19   V1    S    
O13   V1    S    
O32   C83   S    
O3    C7    A    
C94   H84   S    
C48   C52   A    
O15   V3    S    
C103  C104  S    
C95   H88   S    
O31   C81   S    
C94   H86   S    
C14   C25   A    
C92   H78   S    
O7    C3    A    
C90   H73   S    
C97   C98   S    
C100  H100  S    
C82   H49   S    
C72   H24   S    
C33   H1    S    
C59   O47   S    
C87   H65   S    
C9    C18   A    
O9    V1    S    
C14   C18   A    
C21   O22   S    
C78   H40   S    
O47   C101  S    
O4    C8    A    
O22   C66   S    
C84   H56   S    
C46   C54   A    
C83   H52   S    
C17   O26   S    
C77   C78   S    
C97   H94   S    
O1    V3    S    
O24   C68   S    
C12   C23   A    
O2    V4    S    
C102  H105  S    
C33   C49   A    
C33   C37   A    
O3    V1    S    
O34   C86   S    
C16   O32   S    
C101  H104  S    
C102  H107  S    
C37   O42   S    
C29   C37   A    
C1    O15   A    
C23   C27   A    
C41   O38   S    
C66   H8    S    
C87   H64   S    
C2    O16   A    
C91   H75   S    
C88   H67   S    
C31   C39   A    
C46   C50   A    
C72   H26   S    
C32   C40   A    
C45   C49   A    
C89   H69   S    
O14   V2    S    
C15   O31   S    
C29   C41   A    
C104  H110  S    
C68   H16   S    
C16   C20   A    
C79   H43   S    
C4    C29   S    
C44   C48   A    
O11   C7    A    
C15   C28   A    
C19   O28   S    
O12   C8    A    
C84   H54   S    
O46   C99   S    
C74   H30   S    
C9    C22   A    
C65   H5    S    
C10   C17   A    
O10   V2    S    
C56   C59   A    
C11   C24   A    
C67   H12   S    
C95   H87   S    
C96   H92   S    
C57   C61   A    
O29   C77   S    
C77   H38   S    
C84   H55   S    
C15   C19   A    
C90   H74   S    
C99   H99   S    
C100  H101  S    
O7    V3    S    
O38   C90   S    
C77   H37   S    
O39   C91   S    
C69   C70   S    
C38   O41   S    
C85   H57   S    
C42   O37   S    
C79   C80   S    
C97   H93   S    
C70   H21   S    
C1    C32   S    
C70   H20   S    
O18   V4    S    
C95   H89   S    
C63   O35   S    
C30   C38   A    
C65   H7    S    
C7    C9    S    
C20   O27   S    
C53   C54   A    
C24   O23   S    
C36   C52   A    
C76   H36   S    
C8    C10   S    
C47   C55   A    
C27   C28   A    
C87   H63   S    
C98   H96   S    
C76   H35   S    
O8    V4    S    
C80   H45   S    
C73   H28   S    
C86   H60   S    
C13   O29   S    
O5    C1    A    
C55   C60   A    
C2    C31   S    
C74   H31   S    
C81   C82   S    
C96   H91   S    
C18   O25   S    
C69   H18   S    
O43   C95   S    
C21   C25   A    
O8    C4    A    
C88   H68   S    
C44   O39   S    
C79   H42   S    
O9    C5    A    
C43   O40   S    
O21   C65   S    
C35   H3    S    
C50   C62   A    
C65   H6    S    
C11   C20   A    
C34   H2    S    
C49   C61   A    
O26   C71   S    
C3    C30   S    
C10   C21   A    
O33   C85   S    
C30   C42   A    
C61   O33   S    
C66   H9    S    
C88   H66   S    
C82   H51   S    
C76   H34   S    
C91   H77   S    
C74   H29   S    
C25   C26   A    
C60   O48   S    
C78   H41   S    
C73   C74   S    
O12   V4    S    
C71   H23   S    
O5    V1    S    
C35   C51   A    
C104  H111  S    
C34   C50   A    
C93   H83   S    
C72   H25   S    
O25   C69   S    
O16   V4    S    
C92   H80   S    
C51   C63   A    
C64   O36   S    
C52   C64   A    
C99   H98   S    
C3    O13   A    
C100  H102  S    
C58   O46   S    
O6    V2    S    
O17   V3    S    
C60   C64   A    
C89   H70   S    
C75   C76   S    
C67   H11   S    
O6    C2    A    
C85   H58   S    
C94   H85   S    
O11   V3    S    
C103  H108  S    
C75   H33   S    
C80   H46   S    
C81   H47   S    
C16   C27   A    
C6    C12   S    
O28   C75   S    
C22   C26   A    
C35   C39   A    
C101  C102  S    
C93   H82   S    
C36   C40   A    
C98   H97   S    
C32   C44   A    
O36   C88   S    
O10   C6    A    
C101  H103  S    
C68   H15   S    
C5    C11   S    
O27   C73   S    
C92   H79   S    
C31   C43   A    
C48   C56   A    
C81   H48   S    
C58   C62   A    
C78   H39   S    
C47   C51   A    
C13   C26   A    
C54   C57   A    
C45   C53   A    
C93   H81   S    
C42   C46   A    
C22   O21   S    
C83   H53   S    
C53   C58   A    
C71   C72   S    
C98   H95   S    
C41   C45   A    
O41   C93   S    
O20   V2    S    
O2    C6    A    
C57   O45   S    
C73   H27   S    
C89   H71   S    
C43   C47   A    
C69   H17   S    
C67   H13   S    
C13   C17   A    
O37   C89   S    
C104  H112  S    
O45   C97   S    
C85   H59   S    
C75   H32   S    
C55   C56   A    
C68   H14   S    
C24   C28   A    
C66   H10   S    
O40   C92   S    
C86   H61   S    
C82   H50   S    
C23   O24   S    
C103  H109  S    
C4    O14   A    
O23   C67   S    
C62   O34   S    
O48   C103  S    
C12   C19   A    
O35   C87   S    
C14   O30   S    
C102  H106  S    
C71   H22   S    
C70   H19   S    
C36   H4    S    
O42   C94   S    
C83   C84   S    
C40   O43   S    
O4    V2    S    
C96   H90   S    
O44   C96   S    
C39   O44   S    
O30   C79   S    
C99   C100  S    
