data_mof_unit_11552.cif
_audit_creation_date              2012-12-10T17:23:44-0500
_audit_creation_method            fapswitch 2.2
_symmetry_space_group_name_H-M    P1
_symmetry_Int_Tables_number       1
_space_group_crystal_system       triclinic
_cell_length_a                    9.60852
_cell_length_b                    10.802402
_cell_length_c                    16.905353
_cell_angle_alpha                 92.825753
_cell_angle_beta                  85.672306
_cell_angle_gamma                 91.472126
_cell_volume                      1747.1369491

loop_
_atom_site_label
_atom_site_type_symbol
_atom_type_description
_atom_site_fract_x
_atom_site_fract_y
_atom_site_fract_z
_atom_type_partial_charge
C1    C     C_R   0.501978 0.737520 0.495657 0.802211
C2    C     C_R   0.339865 0.454426 0.777392 -0.199513
C3    C     C_R   0.418858 0.426291 0.139559 -0.105559
C4    C     C_R   0.409582 0.464732 0.219731 -0.185151
C5    C     C_R   0.660537 0.452748 0.221326 -0.180253
C6    C     C_R   0.669678 0.413298 0.141408 -0.106010
C7    C     C_R   0.548738 0.395181 0.100169 0.116781
C8    C     C_2   0.448598 0.339497 0.973105 0.325906
C9    C     C_2   0.560688 0.346186 0.016170 0.014778
C10   C     C_R   0.530019 0.475186 0.261886 -0.037762
C11   C     C_R   0.280554 0.876971 0.428549 -0.268908
C12   C     C_R   0.481242 0.497371 0.650981 0.818476
C13   C     C_R   0.150335 0.930011 0.427429 0.346117
C14   C     C_R   0.120404 0.037310 0.474854 0.324661
C15   C     C_R   0.226858 0.100048 0.514608 0.092898
C16   C     C_R   0.365576 0.057774 0.501874 -0.031874
C17   C     C_R   0.384348 0.934752 0.473115 -0.000574
C18   C     C_R   0.503630 0.872609 0.493122 -0.073054
C19   C     C_R   0.613899 0.940613 0.525134 -0.116422
C20   C     C_R   0.606983 0.068591 0.535124 -0.117590
C21   C     C_R   0.486376 0.129167 0.519187 -0.088247
C22   C     C_R   0.866834 0.342131 0.389669 -0.108231
C23   C     C_R   0.496193 0.263194 0.507916 0.801406
C24   C     C_R   0.944694 0.268835 0.333800 -0.119101
C25   C     C_R   0.087951 0.267329 0.334925 -0.170867
C26   C     C_R   0.154177 0.340039 0.391403 -0.154129
C27   C     C_R   0.079818 0.421826 0.446305 0.240419
C28   C     C_R   0.930395 0.422342 0.445938 0.239136
C29   C     C_R   0.921546 0.574627 0.551002 -0.011537
C30   C     C_R   0.069374 0.574716 0.550905 -0.009919
C31   C     C_R   0.518683 0.496485 0.348881 0.772101
C32   C     C_R   0.470173 0.476623 0.736779 -0.111724
C33   C     C_R   0.591220 0.467774 0.777125 -0.149811
C34   C     C_R   0.583101 0.428533 0.854473 -0.193093
C35   C     C_R   0.453796 0.394337 0.893403 0.005007
C36   C     C_R   0.330659 0.415005 0.855273 0.454220
Cu1   Cu    Cu3+1 0.359340 0.500010 0.500010 0.963727
Cu2   Cu    Cu3+1 0.640660 0.499990 0.499990 0.975515
H1    H     H_    0.693272 0.487275 0.748110 0.177458
H2    H     H_    0.771949 0.395899 0.112299 0.175771
H3    H     H_    0.705305 0.895103 0.542429 0.194448
H4    H     H_    0.299419 0.790373 0.394930 0.205451
H5    H     H_    0.694390 0.121038 0.557012 0.221151
H6    H     H_    0.862686 0.635906 0.592799 0.136077
H7    H     H_    0.757401 0.330169 0.386640 0.192004
H8    H     H_    0.892840 0.209588 0.291036 0.178466
H9    H     H_    0.307534 0.482719 0.249149 0.168804
H10   H     H_    0.148131 0.206885 0.293098 0.177712
H11   H     H_    0.263440 0.326973 0.390004 0.195788
H12   H     H_    0.120717 0.636063 0.592642 0.143657
H13   H     H_    0.755661 0.461839 0.251811 0.164296
H14   H     H_    0.323432 0.417784 0.109410 0.184336
H15   H     H_    0.244677 0.465142 0.748149 0.194588
H16   H     H_    0.679839 0.422097 0.882480 0.190960
N1    N     N_R   0.852190 0.498790 0.499250 -0.199268
N2    N     N_R   0.148060 0.498710 0.499220 -0.197734
O1    O     O_R   0.381190 0.680360 0.500010 -0.579667
O2    O     O_R   0.618760 0.680340 0.500000 -0.563924
O3    O     O_R   0.367440 0.500030 0.613600 -0.568177
O4    O     O_R   0.605010 0.500010 0.613590 -0.584079
O5    O     O_R   0.381240 0.319660 0.500000 -0.584561
O6    O     O_R   0.618810 0.319640 0.499990 -0.587180
O7    O     O_R   0.394990 0.499990 0.386410 -0.604179
O8    O     O_R   0.632560 0.499970 0.386400 -0.592538
Cl1   Cl    Cl    0.021847 0.851641 0.373888 -0.553976
Cl2   Cl    Cl    0.948600 0.088741 0.487174 -0.612845
I1    I     I_    0.166754 0.216660 0.617364 -0.234391
I2    I     I_    0.719128 0.213997 0.982776 -0.187465
Cl3   Cl    Cl    0.162068 0.399806 0.903109 -0.523492
Cl4   Cl    Cl    0.332087 0.213321 0.992426 -0.481519

loop_
_geom_bond_atom_site_label_1
_geom_bond_atom_site_label_2
_ccdc_geom_bond_type
C4    H9    S    
Cu1   O5    S    
C3    H14   S    
C16   C21   A    
Cu1   O1    S    
C29   C30   A    
C1    O1    A    
C18   C19   A    
C27   N2    A    
C8    Cl4   S    
C19   C20   A    
C14   C15   A    
C15   I1    S    
C32   C33   A    
C20   H5    S    
C33   C34   A    
C30   H12   S    
C9    I2    S    
C24   H8    S    
C5    C10   A    
C22   C28   A    
C1    O2    A    
C12   C32   S    
C11   C13   A    
C25   H10   S    
C1    C18   S    
Cu1   O3    S    
Cu2   O4    S    
C10   C31   S    
C2    C32   A    
Cu1   O7    S    
Cu1   Cu2   S    
C28   N1    A    
C34   H16   S    
C6    C7    A    
C3    C7    A    
C21   C23   S    
C29   H6    S    
C26   C27   A    
C5    C6    A    
C22   C24   A    
C12   O3    A    
C16   C17   A    
C15   C16   A    
C4    C10   A    
C3    C4    A    
C12   O4    A    
C20   C21   A    
C31   O7    A    
C23   O5    A    
C6    H2    S    
C22   H7    S    
C24   C25   A    
C14   Cl2   S    
C11   H4    S    
C17   C18   A    
C34   C35   A    
C26   H11   S    
C2    C36   A    
C27   C28   A    
C7    C9    S    
C36   Cl3   S    
Cu2   O8    S    
C5    H13   S    
C13   Cl1   S    
C35   C36   A    
C29   N1    A    
C13   C14   A    
C25   C26   A    
Cu2   O2    S    
Cu1   N2    S    
C30   N2    A    
C31   O8    A    
C33   H1    S    
C23   O6    A    
C11   C17   A    
Cu2   N1    S    
C19   H3    S    
C2    H15   S    
C8    C9    D    
Cu2   O6    S    
C8    C35   S    
