data_mof_unit_26611.cif
_audit_creation_date              2012-12-11T14:56:20-0500
_audit_creation_method            fapswitch 2.2
_symmetry_space_group_name_H-M    P1
_symmetry_Int_Tables_number       1
_space_group_crystal_system       triclinic
_cell_length_a                    10.464147
_cell_length_b                    10.654279
_cell_length_c                    17.090387
_cell_angle_alpha                 80.145419
_cell_angle_beta                  89.822422
_cell_angle_gamma                 118.691155
_cell_volume                      1638.73609548

loop_
_atom_site_label
_atom_site_type_symbol
_atom_type_description
_atom_site_fract_x
_atom_site_fract_y
_atom_site_fract_z
_atom_type_partial_charge
C1    C     C_R   0.278546 0.888028 0.132868 0.546337
C2    C     C_1   0.685675 0.403649 0.709974 -0.086384
C3    C     C_R   0.627963 0.712883 0.804566 0.053246
C4    C     C_R   0.610694 0.208988 0.102547 0.579530
C5    C     C_R   0.610576 0.698830 0.725943 -0.155695
C6    C     C_R   0.669091 0.822490 0.664762 0.030533
C7    C     C_R   0.752318 0.961816 0.681152 0.116923
C8    C     C_R   0.767804 0.978510 0.759915 0.052779
C9    C     C_R   0.694743 0.853631 0.822353 0.039229
C10   C     C_R   0.275315 0.995622 0.745805 0.081641
C11   C     C_R   0.260015 0.978830 0.666417 0.073544
C12   C     C_R   0.733311 0.263944 0.305513 -0.136842
C13   C     C_R   0.202242 0.838941 0.648554 0.017282
C14   C     C_R   0.208078 0.727629 0.702736 0.096164
C15   C     C_R   0.231526 0.743896 0.782267 0.115490
C16   C     C_R   0.640767 0.858042 0.125201 0.545462
C17   C     C_R   0.255920 0.876290 0.805349 0.003866
C18   C     C_R   0.686265 0.809579 0.357213 0.545936
C19   C     C_R   0.680354 0.380783 0.401037 0.563287
C20   C     C_R   0.108311 0.812199 0.359924 0.553709
C21   C     C_R   0.677108 0.799591 0.585249 0.568796
C22   C     C_R   0.717735 0.447055 0.625963 0.560974
C23   C     C_R   0.732024 0.240912 0.228404 0.083167
C24   C     C_R   0.109881 0.806410 0.582093 0.562991
C25   C     C_R   0.284618 0.900361 0.887761 0.601912
C26   C     C_R   0.640359 0.291457 0.861939 0.540983
C27   C     C_R   0.647898 0.867650 0.898986 0.567726
C28   C     C_R   0.496631 0.240789 0.222423 0.094565
C29   C     C_R   0.508265 0.277227 0.297880 0.081567
C30   C     C_R   0.633104 0.298771 0.336822 -0.014690
C31   C     C_3   0.078685 0.466395 0.698612 -0.257061
C32   C     C_3   0.096244 0.524955 0.885937 -0.238198
C33   C     C_3   0.950927 0.204649 0.238463 -0.298736
C34   C     C_R   0.613445 0.232196 0.184974 0.030149
C35   C     C_3   0.184579 0.151196 0.780462 -0.270561
C36   C     C_1   0.668787 0.847610 0.205297 -0.021877
C37   C     C_1   0.679799 0.837872 0.274777 -0.041477
C38   C     C_1   0.227027 0.852784 0.215528 -0.043157
C39   C     C_1   0.178553 0.833491 0.283111 -0.044463
C40   C     C_1   0.662660 0.359506 0.780541 -0.085002
Cr1   Cr    Cr6+3 0.402240 0.783890 0.019450 1.029684
Cr2   Cr    Cr6+3 0.382360 0.097900 0.991800 1.033741
Cr3   Cr    Cr6+3 0.715380 0.118170 0.988700 0.984577
Cr4   Cr    Cr6+3 0.936650 0.882420 0.465510 1.029528
Cr5   Cr    Cr6+3 0.605770 0.565620 0.493360 0.998193
Cr6   Cr    Cr6+3 0.921340 0.550490 0.496380 0.999823
H1    H     H_    0.825201 0.273158 0.337659 0.158460
H2    H     H_    0.989731 0.472652 0.730376 0.171959
H3    H     H_    0.288814 0.580704 0.817228 0.278133
H4    H     H_    0.049281 0.417369 0.867965 0.121549
H5    H     H_    0.014415 0.563665 0.880660 0.152899
H6    H     H_    0.117176 0.508932 0.949496 0.165082
H7    H     H_    0.431067 0.404889 0.331018 0.262506
H8    H     H_    0.363622 0.236261 0.391209 0.254962
H9    H     H_    0.920574 0.343257 0.150533 0.278108
H10   H     H_    0.032080 0.297832 0.263842 0.135442
H11   H     H_    0.010985 0.171966 0.200083 0.161411
H12   H     H_    0.555715 0.590337 0.712427 0.137856
H13   H     H_    0.884901 0.111535 0.287406 0.174741
H14   H     H_    0.507906 0.490528 0.844624 0.227973
H15   H     H_    0.660422 0.577898 0.889879 0.231198
H16   H     H_    0.929921 0.144287 0.621462 0.239376
H17   H     H_    0.772594 0.153642 0.624240 0.268698
H18   H     H_    0.914344 0.129590 0.819816 0.239520
H19   H     H_    0.773368 0.157664 0.785996 0.278052
H20   H     H_    0.390687 0.221511 0.727424 0.253219
H21   H     H_    0.218144 0.245856 0.810092 0.132888
H22   H     H_    0.096032 0.052699 0.819834 0.179054
H23   H     H_    0.276372 0.142336 0.218373 0.252147
H24   H     H_    0.140533 0.171904 0.723672 0.126988
H25   H     H_    0.367562 0.320774 0.173888 0.248768
H26   H     H_    0.246189 0.157947 0.612195 0.237517
H27   H     H_    0.414940 0.172211 0.601860 0.251335
H28   H     H_    0.252521 0.630788 0.617553 0.262975
H29   H     H_    0.108681 0.392427 0.737727 0.136739
H30   H     H_    0.037478 0.419080 0.645022 0.169654
N1    N     N_3   0.370456 0.222655 0.182055 -0.574772
N2    N     N_2   0.310046 0.132362 0.765747 -0.487502
N3    N     N_3   0.302739 0.102724 0.602755 -0.602861
N4    N     N_2   0.207556 0.608091 0.675449 -0.519896
N5    N     N_2   0.233167 0.628282 0.837839 -0.465539
N6    N     N_3   0.393513 0.294246 0.332270 -0.634595
N7    N     N_2   0.858550 0.247065 0.190907 -0.487631
N8    N     N_3   0.571031 0.585014 0.867096 -0.588819
N9    N     N_3   0.817229 0.086846 0.617137 -0.597371
N10   N     N_3   0.848332 0.124359 0.773482 -0.671775
O1    O     O_R   0.521780 0.757110 0.108900 -0.516040
O2    O     O_R   0.805020 0.410040 0.421340 -0.519232
O3    O     O_R   0.049240 0.685450 0.403290 -0.494386
O4    O     O_R   0.275160 0.783810 0.101120 -0.490769
O5    O     O_R   0.077520 0.903010 0.551800 -0.481103
O6    O     O_R   0.802980 0.872780 0.546830 -0.469713
O7    O     O_R   0.578090 0.681300 0.569920 -0.541356
O8    O     O_R   0.608530 0.436370 0.586530 -0.518068
O9    O     O_R   0.798770 0.401880 0.597100 -0.535511
O10   O     O_R   0.043450 0.677890 0.566230 -0.523458
O11   O     O_3   0.821250 0.666180 0.485090 -0.266158
O12   O     O_R   0.513330 0.228330 0.898660 -0.485943
O13   O     O_R   0.237900 0.972600 0.090980 -0.491005
O14   O     O_R   0.511190 0.220540 0.061620 -0.472446
O15   O     O_R   0.736920 0.257720 0.063840 -0.507884
O16   O     O_R   0.710450 0.984050 0.081720 -0.497627
O17   O     O_R   0.524090 0.765520 0.933110 -0.461527
O18   O     O_R   0.277300 0.791600 0.938160 -0.474998
O19   O     O_R   0.240210 0.981010 0.915190 -0.493640
O20   O     O_R   0.739230 0.266130 0.888050 -0.541348
O21   O     O_R   0.712580 0.991850 0.918770 -0.524447
O22   O     O_3   0.499990 0.999980 0.999980 -0.313970
O23   O     O_R   0.083770 0.911170 0.376030 -0.506849
O24   O     O_R   0.808770 0.880340 0.383890 -0.508240
O25   O     O_R   0.584340 0.689460 0.394160 -0.512889
O26   O     O_R   0.614320 0.443940 0.423590 -0.499032

loop_
_geom_bond_atom_site_label_1
_geom_bond_atom_site_label_2
_ccdc_geom_bond_type
C1    O4    A    
Cr1   O22   S    
C11   C13   A    
C22   O9    A    
H23   N1    S    
H25   N1    S    
Cr5   O7    S    
C1    O13   A    
C10   N2    S    
Cr5   O26   S    
C25   O19   A    
C31   N4    S    
C15   N5    S    
Cr6   O3    S    
C7    N9    S    
C19   O26   A    
C32   N5    S    
C12   C23   A    
C23   N7    S    
C5    H12   S    
C36   C37   T    
C18   C37   S    
H26   N3    S    
Cr2   O12   S    
C38   C39   T    
C10   C17   A    
H3    N5    S    
C32   H6    S    
Cr6   O9    S    
C35   H24   S    
C8    C9    A    
C2    C22   S    
C16   O1    A    
C14   N4    S    
Cr4   O6    S    
Cr4   O23   S    
C33   H10   S    
Cr1   O4    S    
C28   C34   A    
C33   H13   S    
H28   N4    S    
C13   C14   A    
H17   N9    S    
C22   O8    A    
C26   O20   A    
C12   H1    S    
Cr1   O1    S    
Cr5   O8    S    
H18   N10   S    
Cr6   O2    S    
H20   N2    S    
H16   N9    S    
C4    C34   S    
H19   N10   S    
C18   O25   A    
C19   O2    A    
C10   C11   A    
C20   C39   S    
C6    C21   S    
Cr1   O17   S    
C13   C24   S    
H7    N6    S    
Cr3   O20   S    
Cr3   O15   S    
C32   H5    S    
C29   C30   A    
C3    C9    A    
Cr2   O14   S    
Cr4   O11   S    
C31   H29   S    
C27   O21   A    
C23   C34   A    
C4    O15   A    
H27   N3    S    
Cr3   O21   S    
C28   N1    S    
C33   N7    S    
C32   H4    S    
Cr4   O5    S    
C11   N3    S    
C1    C38   S    
C26   O12   A    
C16   O16   A    
Cr6   O11   S    
C31   H2    S    
C4    O14   A    
H9    N7    S    
C24   O5    A    
H8    N6    S    
C9    C27   S    
C15   C17   A    
C28   C29   A    
C33   H11   S    
C12   C30   A    
C18   O24   A    
C3    C5    A    
H15   N8    S    
Cr5   O25   S    
C25   O18   A    
C6    C7    A    
C20   O3    A    
C35   N2    S    
Cr1   O18   S    
C17   C25   S    
C24   O10   A    
Cr3   O16   S    
C29   N6    S    
Cr5   O11   S    
Cr2   O13   S    
C16   C36   S    
H14   N8    S    
C26   C40   S    
C31   H30   S    
C5    C6    A    
C21   O7    A    
C35   H22   S    
C27   O17   A    
C8    N10   S    
Cr3   O22   S    
Cr2   O19   S    
C7    C8    A    
C35   H21   S    
C20   O23   A    
C2    C40   T    
Cr6   O10   S    
C3    N8    S    
C14   C15   A    
C19   C30   S    
Cr2   O22   S    
C21   O6    A    
Cr4   O24   S    
