data_mof_unit_36558.cif
_audit_creation_date              2012-12-10T17:18:54-0500
_audit_creation_method            fapswitch 2.2
_symmetry_space_group_name_H-M    P1
_symmetry_Int_Tables_number       1
_space_group_crystal_system       triclinic
_cell_length_a                    10.19215
_cell_length_b                    10.826393
_cell_length_c                    13.713149
_cell_angle_alpha                 92.224719
_cell_angle_beta                  99.99196
_cell_angle_gamma                 96.100148
_cell_volume                      1479.24202387

loop_
_atom_site_label
_atom_site_type_symbol
_atom_type_description
_atom_site_fract_x
_atom_site_fract_y
_atom_site_fract_z
_atom_type_partial_charge
C1    C     C_R   0.054531 0.732659 0.496214 0.950472
C2    C     C_2   0.024725 0.068940 0.528561 -0.125493
C3    C     C_2   0.430703 0.511317 0.508271 -0.095705
C4    C     C_2   0.569294 0.488689 0.491726 -0.093633
C5    C     C_R   0.093856 0.514585 0.685385 0.876492
C6    C     C_R   0.906035 0.485121 0.314619 0.884416
C7    C     C_R   0.144692 0.524823 0.791626 -0.063954
C8    C     C_R   0.854568 0.473501 0.208436 -0.067128
C9    C     C_R   0.128633 0.581087 0.960755 -0.192352
C10   C     C_R   0.869720 0.415933 0.039343 -0.191337
C11   C     C_R   0.068173 0.560361 0.861255 -0.201307
C12   C     C_R   0.947871 0.267856 0.509121 0.949319
C13   C     C_R   0.930875 0.438047 0.138633 -0.201605
C14   C     C_R   0.276777 0.502613 0.822895 -0.199454
C15   C     C_R   0.721828 0.493899 0.177479 -0.198370
C16   C     C_R   0.332598 0.505702 0.922479 0.106233
C17   C     C_R   0.665319 0.489938 0.078024 0.105648
C18   C     C_R   0.262210 0.557907 0.991086 0.129273
C19   C     C_R   0.735660 0.437896 0.009320 0.129021
C20   C     C_R   0.463889 0.474291 0.952837 -0.016958
C21   C     C_R   0.533719 0.520732 0.047920 -0.017699
C22   C     C_R   0.468381 0.594855 0.109312 0.133169
C23   C     C_R   0.529097 0.400001 0.891506 0.133939
C24   C     C_R   0.330998 0.600772 0.084655 -0.249979
C25   C     C_R   0.666548 0.394263 0.916002 -0.249410
C26   C     C_2   0.089502 0.865718 0.502656 -0.361936
C27   C     C_2   0.921948 0.136713 0.522824 -0.363347
C28   C     C_2   0.001908 0.936705 0.530959 -0.131555
H1    H     H_    0.281416 0.652580 0.133911 0.174668
H2    H     H_    0.907580 0.897351 0.550139 0.192353
H3    H     H_    0.821013 0.095431 0.526444 0.161257
H4    H     H_    0.183511 0.905499 0.483392 0.160752
H5    H     H_    0.578811 0.415178 0.438191 0.160801
H6    H     H_    0.421183 0.584833 0.561801 0.161261
H7    H     H_    0.664730 0.622793 0.589341 0.164429
H8    H     H_    0.335277 0.377209 0.410660 0.166008
H9    H     H_    0.716072 0.342406 0.866740 0.174903
H10   H     H_    0.658649 0.504351 0.231936 0.184278
H11   H     H_    0.340085 0.491528 0.768610 0.184729
H12   H     H_    0.034019 0.420337 0.161370 0.165960
H13   H     H_    0.965466 0.579238 0.838270 0.165613
H14   H     H_    0.073163 0.619612 0.012980 0.158204
H15   H     H_    0.925161 0.377553 0.987034 0.158286
H16   H     H_    0.125919 0.109792 0.524926 0.200597
I1    I     I_    0.566056 0.731221 0.223623 -0.392167
I2    I     I_    0.430876 0.263653 0.777357 -0.401804
N1    N     N_2   0.322180 0.446120 0.460900 -0.186920
N2    N     N_2   0.677820 0.553880 0.539100 -0.186432
O1    O     O_R   0.935190 0.693030 0.507870 -0.602544
O2    O     O_R   0.064810 0.306970 0.492130 -0.604675
O3    O     O_R   0.142080 0.658430 0.482770 -0.607398
O4    O     O_R   0.857920 0.341570 0.517230 -0.607696
O5    O     O_R   0.969700 0.527180 0.651960 -0.617021
O6    O     O_R   0.030300 0.472820 0.348040 -0.613315
O7    O     O_R   0.176600 0.492580 0.626860 -0.608317
O8    O     O_R   0.823400 0.507420 0.373140 -0.604995
Zn1   Zn    Zn3+2 0.861850 0.523100 0.516760 0.961419
Zn2   Zn    Zn3+2 0.138150 0.476900 0.483240 0.961009

loop_
_geom_bond_atom_site_label_1
_geom_bond_atom_site_label_2
_ccdc_geom_bond_type
C6    C8    S    
C5    C7    S    
C15   H10   S    
C26   H4    S    
C2    C27   D    
C6    O8    A    
C1    O3    A    
C26   C28   D    
C20   C23   A    
C10   C19   A    
C16   C20   A    
C25   H9    S    
C28   H2    S    
C10   H15   S    
N2    Zn1   S    
C23   I2    S    
C21   C22   A    
C20   C21   A    
N1    Zn2   S    
C7    C11   A    
C9    C11   A    
C9    H14   S    
C8    C13   A    
C6    O6    A    
C18   C24   A    
H7    N2    S    
C3    N1    D    
C12   O4    A    
C11   H13   S    
C8    C15   A    
C22   C24   A    
C23   C25   A    
C4    N2    D    
C1    C26   S    
C19   C25   A    
C14   C16   A    
O3    Zn2   S    
O4    Zn1   S    
C12   C27   S    
C27   H3    S    
C3    C4    S    
O2    Zn2   S    
C9    C18   A    
C22   I1    S    
O1    Zn1   S    
O8    Zn1   S    
H8    N1    S    
C16   C18   A    
O6    Zn2   S    
O7    Zn2   S    
C5    O5    A    
C15   C17   A    
O5    Zn1   S    
C4    H5    S    
C13   H12   S    
C2    C28   S    
C3    H6    S    
C17   C19   A    
C14   H11   S    
C24   H1    S    
C1    O1    A    
C5    O7    A    
C7    C14   A    
C17   C21   A    
C2    H16   S    
C12   O2    A    
C10   C13   A    
