data_mof_unit_10007.cif
_audit_creation_date              2012-12-11T14:10:58-0500
_audit_creation_method            fapswitch 2.2
_symmetry_space_group_name_H-M    P1
_symmetry_Int_Tables_number       1
_space_group_crystal_system       triclinic
_cell_length_a                    19.620407
_cell_length_b                    17.282751
_cell_length_c                    15.506169
_cell_angle_alpha                 89.999959
_cell_angle_beta                  52.671725
_cell_angle_gamma                 90.000033
_cell_volume                      4181.07301264

loop_
_atom_site_label
_atom_site_type_symbol
_atom_type_description
_atom_site_fract_x
_atom_site_fract_y
_atom_site_fract_z
_atom_type_partial_charge
C1    C     C_R   0.377556 0.197838 0.990860 -0.100432
C2    C     C_3   0.752822 0.767940 0.446503 -0.163752
C3    C     C_3   0.661170 0.283012 0.470319 -0.150168
C4    C     C_3   0.338824 0.717001 0.529690 -0.150174
C5    C     C_3   0.838828 0.783010 0.529682 -0.150168
C6    C     C_3   0.161172 0.216990 0.470317 -0.150167
C7    C     C_3   0.252825 0.732049 0.446497 -0.163764
C8    C     C_3   0.747178 0.267939 0.553496 -0.163753
C9    C     C_2   0.183155 0.746419 0.103774 -0.128840
C10   C     C_2   0.816845 0.253581 0.896226 -0.128841
C11   C     C_2   0.709132 0.686189 0.051282 -0.135576
C12   C     C_R   0.622444 0.802162 0.009140 -0.100433
C13   C     C_2   0.290868 0.313811 0.948718 -0.135576
C14   C     C_2   0.790869 0.186188 0.948717 -0.135577
C15   C     C_2   0.209131 0.813812 0.051283 -0.135577
C16   C     C_2   0.316845 0.246419 0.896227 -0.128842
C17   C     C_2   0.683155 0.753581 0.103774 -0.128846
C18   C     C_R   0.394280 0.802427 0.211975 0.485780
C19   C     C_R   0.605718 0.197574 0.788026 0.485779
C20   C     C_R   0.649561 0.826302 0.777308 0.529981
C21   C     C_R   0.350439 0.173698 0.222691 0.529982
C22   C     C_R   0.850438 0.326303 0.222691 0.529979
C23   C     C_R   0.662049 0.174163 0.949179 -0.177062
C24   C     C_R   0.149562 0.673697 0.777309 0.529979
C25   C     C_R   0.105718 0.302426 0.788026 0.485779
C26   C     C_R   0.894282 0.697573 0.211974 0.485780
C27   C     C_R   0.329007 0.910827 0.951652 0.473894
C28   C     C_R   0.670992 0.089172 0.048348 0.473893
C29   C     C_R   0.625939 0.885973 0.112495 0.541271
C30   C     C_R   0.374061 0.114027 0.887506 0.541270
C31   C     C_R   0.874061 0.385973 0.887505 0.541271
C32   C     C_R   0.125939 0.614027 0.112494 0.541270
C33   C     C_R   0.170992 0.410827 0.048348 0.473894
C34   C     C_R   0.337950 0.825837 0.050821 -0.177063
C35   C     C_R   0.829008 0.589173 0.951652 0.473894
C36   C     C_R   0.358363 0.080930 0.317211 -0.155460
C37   C     C_R   0.641637 0.919070 0.682789 -0.155461
C38   C     C_R   0.601643 0.105186 0.690778 -0.143047
C39   C     C_R   0.398355 0.894815 0.309223 -0.143046
C40   C     C_R   0.898357 0.605186 0.309222 -0.143047
C41   C     C_R   0.101642 0.394814 0.690778 -0.143048
C42   C     C_R   0.141639 0.580929 0.682789 -0.155463
C43   C     C_R   0.858362 0.419070 0.317211 -0.155460
C44   C     C_R   0.353473 0.188404 0.925128 -0.061752
C45   C     C_R   0.837951 0.674163 0.050821 -0.177061
C46   C     C_R   0.646527 0.811596 0.074872 -0.061751
C47   C     C_R   0.714553 0.148168 0.974161 -0.029047
C48   C     C_R   0.285447 0.851831 0.025839 -0.029046
C49   C     C_R   0.785447 0.648169 0.025838 -0.029048
C50   C     C_R   0.214553 0.351831 0.974162 -0.029047
C51   C     C_R   0.146527 0.688404 0.074872 -0.061750
C52   C     C_R   0.853473 0.311596 0.925128 -0.061752
C53   C     C_R   0.378388 0.818820 0.309692 -0.120583
C54   C     C_R   0.621607 0.181181 0.690310 -0.120580
C55   C     C_R   0.690720 0.858451 0.674794 -0.158805
C56   C     C_R   0.162049 0.325837 0.949179 -0.177062
C57   C     C_R   0.309280 0.141549 0.325206 -0.158804
C58   C     C_R   0.809279 0.358452 0.325206 -0.158805
C59   C     C_R   0.190723 0.641547 0.674795 -0.158806
C60   C     C_R   0.121607 0.318819 0.690311 -0.120580
C61   C     C_R   0.878392 0.681181 0.309690 -0.120581
C62   C     C_3   0.215989 0.154775 0.539207 -0.140894
C63   C     C_3   0.784011 0.845224 0.460793 -0.140894
C64   C     C_3   0.692259 0.205491 0.485250 -0.128063
C65   C     C_3   0.307725 0.794513 0.514755 -0.128060
C66   C     C_3   0.807738 0.705490 0.514750 -0.128064
C67   C     C_R   0.122444 0.697838 0.009140 -0.100439
C68   C     C_3   0.192262 0.294510 0.485250 -0.128067
C69   C     C_3   0.284022 0.654771 0.460791 -0.140904
C70   C     C_3   0.715990 0.345224 0.539207 -0.140894
C71   C     C_3   0.720291 0.741327 0.559875 -0.133425
C72   C     C_3   0.279709 0.258673 0.440126 -0.133428
C73   C     C_3   0.372359 0.691089 0.414165 -0.138455
C74   C     C_3   0.627646 0.308919 0.585841 -0.138473
C75   C     C_3   0.127645 0.191082 0.585840 -0.138470
C76   C     C_3   0.872354 0.808918 0.414159 -0.138470
C77   C     C_3   0.779708 0.241326 0.440125 -0.133424
C78   C     C_R   0.877556 0.302162 0.990859 -0.100433
C79   C     C_3   0.220284 0.758665 0.559872 -0.133403
C80   C     C_3   0.751610 0.818102 0.573936 0.177031
C81   C     C_3   0.248390 0.181898 0.426064 0.177031
C82   C     C_3   0.339833 0.767669 0.401774 0.172731
C83   C     C_3   0.660163 0.232331 0.598228 0.172737
C84   C     C_3   0.160164 0.267669 0.598228 0.172738
C85   C     C_3   0.839836 0.732331 0.401772 0.172737
C86   C     C_3   0.748389 0.318102 0.426064 0.177032
C87   C     C_3   0.251612 0.681897 0.573937 0.177032
C88   C     C_3   0.247177 0.232060 0.553498 -0.163750
Cl1   Cl    Cl    0.298642 0.949566 0.875373 -0.601584
Cl2   Cl    Cl    0.701358 0.050434 0.124627 -0.601584
Cl3   Cl    Cl    0.591856 0.908433 0.243954 -0.611729
Cl4   Cl    Cl    0.408143 0.091567 0.756047 -0.611729
Cl5   Cl    Cl    0.908143 0.408433 0.756047 -0.611729
Cl6   Cl    Cl    0.091857 0.591567 0.243953 -0.611729
Cl7   Cl    Cl    0.201358 0.449566 0.124627 -0.601584
Cl8   Cl    Cl    0.798642 0.550434 0.875373 -0.601584
H1    H     H_    0.389237 0.252648 0.012837 0.206549
H2    H     H_    0.652043 0.953406 0.617619 0.135591
H3    H     H_    0.597834 0.076431 0.631941 0.167287
H4    H     H_    0.402164 0.923570 0.368061 0.167287
H5    H     H_    0.902166 0.576430 0.368059 0.167287
H6    H     H_    0.097834 0.423569 0.631941 0.167287
H7    H     H_    0.152045 0.546593 0.617619 0.135593
H8    H     H_    0.847957 0.453406 0.382381 0.135591
H9    H     H_    0.656969 0.714188 0.621011 0.147070
H10   H     H_    0.343031 0.285811 0.378990 0.147069
H11   H     H_    0.436061 0.665269 0.351551 0.135152
H12   H     H_    0.610763 0.747352 0.987163 0.206549
H13   H     H_    0.563949 0.334747 0.648459 0.135152
H14   H     H_    0.063948 0.165255 0.648457 0.135152
H15   H     H_    0.936051 0.834745 0.351542 0.135152
H16   H     H_    0.843028 0.214187 0.378987 0.147071
H17   H     H_    0.156958 0.785797 0.621005 0.147064
H18   H     H_    0.225951 0.096648 0.560289 0.133026
H19   H     H_    0.774048 0.903352 0.439711 0.133027
H20   H     H_    0.682471 0.147640 0.463303 0.143445
H21   H     H_    0.317501 0.852369 0.536706 0.143438
H22   H     H_    0.817525 0.647638 0.536698 0.143444
H23   H     H_    0.673109 0.222354 0.898364 0.190027
H24   H     H_    0.182476 0.352362 0.463302 0.143445
H25   H     H_    0.274070 0.596640 0.439708 0.133026
H26   H     H_    0.725954 0.403351 0.560288 0.133027
H27   H     H_    0.281622 0.239277 0.589235 0.142341
H28   H     H_    0.718377 0.760722 0.410767 0.142341
H29   H     H_    0.627330 0.290739 0.433910 0.133171
H30   H     H_    0.372661 0.709284 0.566105 0.133173
H31   H     H_    0.872668 0.790736 0.566092 0.133172
H32   H     H_    0.127333 0.209265 0.433906 0.133173
H33   H     H_    0.218383 0.739258 0.410756 0.142349
H34   H     H_    0.326891 0.777645 0.101636 0.190026
H35   H     H_    0.781624 0.260720 0.589231 0.142341
H36   H     H_    0.204740 0.726942 0.150019 0.175738
H37   H     H_    0.795261 0.273058 0.849981 0.175738
H38   H     H_    0.685194 0.666013 0.008101 0.189312
H39   H     H_    0.314806 0.333987 0.991899 0.189311
H40   H     H_    0.814807 0.166012 0.991898 0.189311
H41   H     H_    0.185192 0.833988 0.008103 0.189311
H42   H     H_    0.295261 0.226942 0.849981 0.175739
H43   H     H_    0.704739 0.773058 0.150020 0.175739
H44   H     H_    0.385604 0.691079 0.224501 0.322734
H45   H     H_    0.826891 0.722354 0.101636 0.190027
H46   H     H_    0.614398 0.308921 0.775499 0.322734
H47   H     H_    0.725577 0.740459 0.740287 0.324239
H48   H     H_    0.274424 0.259543 0.259713 0.324240
H49   H     H_    0.774421 0.240461 0.259712 0.324240
H50   H     H_    0.225577 0.759541 0.740290 0.324242
H51   H     H_    0.114396 0.191078 0.775500 0.322734
H52   H     H_    0.885603 0.808921 0.224500 0.322733
H53   H     H_    0.173109 0.277646 0.898364 0.190027
H54   H     H_    0.110763 0.752648 0.987163 0.206549
H55   H     H_    0.889237 0.247352 0.012837 0.206549
H56   H     H_    0.347957 0.046595 0.382381 0.135591
N1    N     N_R   0.408680 0.130810 0.995780 -0.087923
N2    N     N_R   0.578590 0.132790 0.846380 -0.079716
N3    N     N_R   0.578590 0.867210 0.846380 -0.071217
N4    N     N_R   0.421410 0.132790 0.153620 -0.071217
N5    N     N_R   0.921410 0.367210 0.153620 -0.071217
N6    N     N_R   0.078590 0.632790 0.846380 -0.071216
N7    N     N_R   0.078590 0.367210 0.846380 -0.079716
N8    N     N_R   0.921410 0.632790 0.153620 -0.079715
N9    N     N_R   0.403840 0.921910 0.935760 -0.090805
N10   N     N_R   0.596160 0.078090 0.064240 -0.090805
N11   N     N_R   0.596160 0.921910 0.064240 -0.110034
N12   N     N_R   0.591320 0.869190 0.004220 -0.087923
N13   N     N_R   0.403840 0.078090 0.935760 -0.110034
N14   N     N_R   0.903840 0.421910 0.935760 -0.110034
N15   N     N_R   0.096160 0.578090 0.064240 -0.110034
N16   N     N_R   0.096160 0.421910 0.064240 -0.090805
N17   N     N_R   0.903840 0.578090 0.935760 -0.090805
N18   N     N_R   0.426250 0.076100 0.213650 -0.063675
N19   N     N_R   0.573750 0.923900 0.786350 -0.063674
N20   N     N_R   0.573750 0.076100 0.786350 -0.072950
N21   N     N_R   0.426250 0.923900 0.213650 -0.072949
N22   N     N_R   0.926250 0.576100 0.213650 -0.072950
N23   N     N_R   0.591320 0.130810 0.004220 -0.069339
N24   N     N_R   0.073750 0.423900 0.786350 -0.072950
N25   N     N_R   0.073750 0.576100 0.786350 -0.063674
N26   N     N_R   0.926250 0.423900 0.213650 -0.063674
N27   N     N_R   0.408680 0.869190 0.995780 -0.069339
N28   N     N_R   0.908680 0.630810 0.995780 -0.069339
N29   N     N_R   0.091320 0.369190 0.004220 -0.069339
N30   N     N_R   0.091320 0.630810 0.004220 -0.087924
N31   N     N_R   0.908680 0.369190 0.995780 -0.087923
N32   N     N_R   0.421410 0.867210 0.153620 -0.079715
Ni1   Ni    Ni4+2 0.500000 0.131570 0.000000 0.267376
Ni2   Ni    Ni4+2 0.500000 0.868430 0.000000 0.267376
Ni3   Ni    Ni4+2 1.000000 0.631570 0.000000 0.267377
Ni4   Ni    Ni4+2 1.000000 0.368430 0.000000 0.267376
Ni5   Ni    Ni4+2 0.488900 1.000000 0.862310 0.272620
Ni6   Ni    Ni4+2 0.511100 0.000000 0.137690 0.272621
Ni7   Ni    Ni4+2 0.988900 0.500000 0.862310 0.272621
Ni8   Ni    Ni4+2 0.011100 0.500000 0.137690 0.272621
O1    O     O_3   0.402879 0.730447 0.168333 -0.768942
O2    O     O_3   0.597121 0.269553 0.831668 -0.768943
O3    O     O_3   0.667865 0.757237 0.803040 -0.773078
O4    O     O_3   0.332136 0.242763 0.196960 -0.773079
O5    O     O_3   0.832134 0.257237 0.196960 -0.773079
O6    O     O_3   0.167864 0.742764 0.803040 -0.773081
O7    O     O_3   0.097120 0.230447 0.831669 -0.768943
O8    O     O_3   0.902879 0.769553 0.168332 -0.768942

loop_
_geom_bond_atom_site_label_1
_geom_bond_atom_site_label_2
_ccdc_geom_bond_type
C27   C48   A    
C32   Cl6   S    
C28   C47   A    
C64   H20   S    
C20   N3    A    
C8    C83   S    
C64   C77   S    
C29   N11   A    
C22   O5    S    
H51   O7    S    
N11   N12   A    
C9    C51   S    
N5    Ni4   S    
C29   Cl3   S    
C74   C83   S    
C39   N21   A    
C10   C52   S    
N6    Ni3   S    
C66   C85   S    
C79   C87   S    
C65   C82   S    
C28   N10   A    
C6    C75   S    
C43   N26   A    
N27   Ni2   S    
C3    C64   S    
H49   O5    S    
N15   Ni8   S    
C14   H40   S    
C65   C79   S    
C67   N30   A    
C26   C61   A    
C62   H18   S    
N12   Ni2   S    
C20   C55   A    
C23   H23   S    
C4    C65   S    
C24   N6    A    
C75   C84   S    
C73   H11   S    
N15   N30   A    
N23   Ni1   S    
C63   C76   S    
C42   N25   A    
C33   Cl7   S    
N21   Ni6   S    
C41   H6    S    
N19   Ni5   S    
C2    C85   S    
N14   Ni7   S    
C3    C74   S    
C70   C74   S    
C71   C80   S    
C18   C53   A    
C40   H5    S    
C43   H8    S    
N21   N32   A    
C68   H24   S    
C35   C49   A    
N13   Ni5   S    
C10   H37   S    
C69   C73   S    
C25   C60   A    
C18   N32   A    
N9    N27   A    
C26   O8    S    
H44   O1    S    
C16   C44   S    
C20   O3    S    
C72   C81   S    
C45   N28   A    
N5    N26   A    
C63   H19   S    
C25   O7    S    
C6    C68   S    
C24   O6    S    
C6    C81   S    
C42   H7    S    
C3    C86   S    
C45   H45   S    
C13   H39   S    
C30   C44   A    
C34   N27   A    
C15   C48   S    
C74   H13   S    
C88   H27   S    
C52   C78   A    
C58   C86   S    
C7    H33   S    
C54   C83   S    
C72   C88   S    
N29   Ni4   S    
C78   H55   S    
C63   C80   S    
N2    Ni1   S    
C16   H42   S    
C23   C47   A    
N2    N20   A    
C68   C84   S    
C17   C46   S    
C30   N13   A    
N9    Ni5   S    
C36   C57   A    
C10   C14   D    
C11   H38   S    
C1    H1    S    
C12   H12   S    
C25   N7    A    
H52   O8    S    
N24   Ni7   S    
N10   N23   A    
C9    H36   S    
C33   C50   A    
C35   Cl8   S    
C62   C88   S    
C50   C56   A    
C40   C61   A    
C4    C87   S    
C53   C82   S    
N7    Ni4   S    
H50   O6    S    
C77   H16   S    
C64   C83   S    
C21   C57   A    
C11   C49   S    
N28   Ni3   S    
C12   N12   A    
N26   Ni8   S    
C70   H26   S    
C1    C44   A    
C66   C71   S    
C38   C54   A    
C31   N14   A    
C69   H25   S    
C68   C72   S    
H47   O3    S    
C5    H31   S    
C8    H35   S    
C45   C49   A    
H46   O2    S    
C37   H2    S    
C17   H43   S    
C51   C67   A    
C5    C80   S    
C1    N1    A    
C4    C73   S    
C61   C85   S    
C62   C81   S    
C76   H15   S    
C19   C54   A    
C12   C46   A    
C22   N5    A    
C41   N24   A    
C72   H10   S    
C77   C86   S    
N7    N24   A    
C79   H17   S    
C66   H22   S    
C8    C77   S    
C35   N17   A    
C57   C81   S    
C62   C75   S    
C13   C16   D    
C33   N16   A    
C34   C48   A    
N17   Ni7   S    
C2    C71   S    
C70   C86   S    
C67   H54   S    
C73   C82   S    
N10   Ni6   S    
C2    C63   S    
C7    C79   S    
C26   N8    A    
C32   C51   A    
C11   C17   D    
C75   H14   S    
N17   N28   A    
N1    N13   A    
N8    N22   A    
N6    N25   A    
C36   H56   S    
N14   N31   A    
C84   C88   S    
C41   C60   A    
C38   H3    S    
N3    Ni2   S    
C69   C87   S    
C42   C59   A    
C22   C58   A    
C3    H29   S    
C38   N20   A    
C14   C47   S    
H48   O4    S    
N4    Ni1   S    
C2    H28   S    
N20   Ni5   S    
N18   Ni6   S    
C36   N18   A    
N25   Ni7   S    
N16   Ni8   S    
C31   C52   A    
C4    H30   S    
C29   C46   A    
C5    C76   S    
C71   H9    S    
C7    C69   S    
C9    C15   D    
C6    H32   S    
C31   Cl5   S    
N31   Ni4   S    
C5    C66   S    
C40   N22   A    
C55   C80   S    
C60   C84   S    
C39   H4    S    
C39   C53   A    
N1    Ni1   S    
C24   C59   A    
N4    N18   A    
C21   N4    A    
N32   Ni2   S    
C27   Cl1   S    
N11   Ni6   S    
N30   Ni3   S    
C21   O4    S    
C59   C87   S    
C37   N19   A    
C13   C50   S    
C37   C55   A    
N3    N19   A    
C7    C82   S    
C23   N23   A    
C34   H34   S    
C19   O2    S    
N16   N29   A    
C56   N29   A    
C32   N15   A    
C8    C70   S    
C19   N2    A    
C65   H21   S    
C43   C58   A    
C28   Cl2   S    
N8    Ni3   S    
C15   H41   S    
C56   H53   S    
C76   C85   S    
C27   N9    A    
C78   N31   A    
N22   Ni8   S    
C18   O1    S    
C30   Cl4   S    
