data_mof_unit_52168.cif
_audit_creation_date              2012-10-26T21:06:36-0400
_audit_creation_method            fapswitch 2.2
_symmetry_space_group_name_H-M    P1
_symmetry_Int_Tables_number       1
_space_group_crystal_system       triclinic
_cell_length_a                    15.865239
_cell_length_b                    10.810704
_cell_length_c                    9.530024
_cell_angle_alpha                 89.780567
_cell_angle_beta                  90.239044
_cell_angle_gamma                 90.523315
_cell_volume                      1634.44222079

loop_
_atom_site_label
_atom_site_type_symbol
_atom_type_description
_atom_site_fract_x
_atom_site_fract_y
_atom_site_fract_z
_atom_type_partial_charge
C1    C     C_R   0.502025 0.262351 0.500585 0.542823
C2    C     C_R   0.553404 0.575506 0.074828 -0.031749
C3    C     C_R   0.339794 0.499766 0.499725 0.544754
C4    C     C_R   0.660197 0.500308 0.500307 0.541033
C5    C     C_3   0.971285 0.387404 0.523164 0.309558
C6    C     C_3   0.028657 0.613204 0.477651 0.311484
C7    C     C_3   0.026696 0.424365 0.396898 -0.131998
C8    C     C_3   0.973235 0.576238 0.603920 -0.134948
C9    C     C_1   0.250087 0.499309 0.499283 -0.014838
C10   C     C_1   0.749885 0.500986 0.500933 -0.030064
C11   C     C_3   0.028098 0.459342 0.626817 -0.133809
C12   C     C_R   0.498266 0.737653 0.499465 0.541638
C13   C     C_3   0.971848 0.541261 0.373999 -0.131644
C14   C     C_3   0.082859 0.498510 0.500101 0.025798
C15   C     C_3   0.917088 0.502092 0.500701 0.025162
C16   C     C_1   0.174535 0.498893 0.499451 -0.020206
C17   C     C_1   0.825427 0.501585 0.501082 -0.030099
C18   C     C_R   0.454182 0.066882 0.401160 -0.124592
C19   C     C_R   0.546497 0.933040 0.599129 -0.123652
C20   C     C_3   0.998309 0.181385 0.561864 -0.123318
C21   C     C_3   0.001607 0.819228 0.439059 -0.122565
C22   C     C_3   0.394247 0.876210 0.290835 -0.370764
C23   C     C_R   0.450603 0.938471 0.397921 -0.025895
C24   C     C_3   0.606134 0.124049 0.709528 -0.373591
C25   C     C_3   0.348805 0.256297 0.079359 -0.158344
C26   C     C_3   0.692097 0.636533 0.889579 -0.129770
C27   C     C_R   0.549975 0.061553 0.602359 -0.026599
C28   C     C_R   0.497804 0.871535 0.498069 0.019916
C29   C     C_R   0.502774 0.128441 0.502133 0.020735
C30   C     C_R   0.445853 0.422979 0.075691 0.390142
C31   C     C_R   0.555063 0.574269 0.925260 0.382625
C32   C     C_R   0.446130 0.424985 0.924720 -0.039859
Cu1   Cu    Cu3+1 0.500000 0.500020 0.640660 0.985016
Cu2   Cu    Cu3+1 0.500000 0.499980 0.359340 0.995086
H1    H     H_    0.049800 0.361654 0.313802 0.105330
H2    H     H_    0.035162 0.172470 0.463487 0.107848
H3    H     H_    0.968380 0.090213 0.583525 0.132625
H4    H     H_    0.964820 0.828144 0.537505 0.106662
H5    H     H_    0.959097 0.797533 0.349207 0.112023
H6    H     H_    0.031520 0.910400 0.417339 0.132802
H7    H     H_    0.351102 0.809484 0.343684 0.152477
H8    H     H_    0.354773 0.944072 0.233210 0.107530
H9    H     H_    0.432957 0.827296 0.212179 0.161458
H10   H     H_    0.649201 0.190931 0.656750 0.149934
H11   H     H_    0.567266 0.172863 0.788063 0.154631
H12   H     H_    0.950077 0.638913 0.687015 0.098675
H13   H     H_    0.645678 0.056341 0.767234 0.119700
H14   H     H_    0.393967 0.196616 0.022407 0.102098
H15   H     H_    0.300877 0.296735 0.007691 0.109895
H16   H     H_    0.314186 0.196209 0.154515 0.131838
H17   H     H_    0.708586 0.536651 0.896300 0.118142
H18   H     H_    0.707069 0.684211 0.989749 0.092835
H19   H     H_    0.732661 0.678679 0.807409 0.136830
H20   H     H_    0.947632 0.575981 0.271884 0.103038
H21   H     H_    0.052307 0.424621 0.728934 0.104746
H22   H     H_    0.417744 0.119660 0.325995 0.144001
H23   H     H_    0.583005 0.880201 0.674454 0.157743
H24   H     H_    0.403631 0.367821 0.863879 0.114277
H25   H     H_    0.594201 0.637882 0.132567 0.120494
H26   H     H_    0.040757 0.203076 0.651796 0.112136
N1    N     N_R   0.500020 0.500030 0.852070 -0.241236
N2    N     N_R   0.499980 0.499970 0.147930 -0.242247
O1    O     O_R   0.500000 0.319660 0.618740 -0.523384
O2    O     O_3   0.065560 0.730545 0.453513 -0.553627
O3    O     O_3   0.391035 0.349818 0.155609 -0.523189
O4    O     O_3   0.607034 0.654493 0.851145 -0.539806
O5    O     O_R   0.500000 0.680340 0.381260 -0.522043
O6    O     O_R   0.499990 0.319630 0.381170 -0.459244
O7    O     O_R   0.500010 0.680370 0.618830 -0.454885
O8    O     O_R   0.379080 0.500000 0.618760 -0.512170
O9    O     O_R   0.620920 0.500000 0.381240 -0.511118
O10   O     O_R   0.379080 0.499970 0.381190 -0.444381
O11   O     O_R   0.620920 0.500030 0.618810 -0.465180
O12   O     O_3   0.934367 0.270070 0.547295 -0.554729

loop_
_geom_bond_atom_site_label_1
_geom_bond_atom_site_label_2
_ccdc_geom_bond_type
C31   O4    S    
C12   O7    A    
C27   C29   A    
C31   N1    A    
C24   C27   S    
C32   H24   S    
C19   H23   S    
C12   C28   S    
C24   H11   S    
C9    C16   T    
C32   N1    A    
C5    C11   S    
C11   C14   S    
C22   H7    S    
C10   C17   T    
Cu2   N2    S    
C1    O6    A    
C6    O2    S    
C5    O12   S    
C25   H16   S    
C21   O2    S    
C7    C14   S    
C21   H4    S    
C20   H26   S    
C19   C27   A    
C18   H22   S    
C1    O1    A    
C8    H12   S    
C12   O5    A    
C18   C23   A    
C26   O4    S    
C3    O8    A    
C25   O3    S    
Cu2   O6    S    
C5    C7    S    
C2    H25   S    
C6    C8    S    
C2    C31   A    
C3    C9    S    
C26   H18   S    
C6    C14   S    
C22   H9    S    
C21   H5    S    
Cu1   O1    S    
C1    C29   S    
Cu1   Cu2   S    
C20   O12   S    
C18   C29   A    
C23   C28   A    
C19   C28   A    
C25   H14   S    
C4    O11   A    
Cu1   O8    S    
Cu1   O11   S    
C8    C15   S    
C30   N2    A    
C24   H10   S    
C14   C16   S    
C4    C10   S    
C26   H19   S    
Cu2   O10   S    
C11   H21   S    
C13   H20   S    
C15   C17   S    
C24   H13   S    
C7    H1    S    
Cu2   O5    S    
Cu1   O7    S    
C13   C15   S    
C3    O10   A    
C26   H17   S    
C6    C13   S    
C30   C32   A    
C20   H3    S    
C22   H8    S    
C21   H6    S    
C8    C11   S    
C25   H15   S    
C5    C15   S    
C30   O3    S    
C20   H2    S    
C7    C13   S    
Cu1   N1    S    
C22   C23   S    
Cu2   O9    S    
C4    O9    A    
C2    N2    A    
