data_mof_unit_60280.cif
_audit_creation_date              2012-12-10T16:53:38-0500
_audit_creation_method            fapswitch 2.2
_symmetry_space_group_name_H-M    P1
_symmetry_Int_Tables_number       1
_space_group_crystal_system       triclinic
_cell_length_a                    30.327162
_cell_length_b                    31.137209
_cell_length_c                    20.578698
_cell_angle_alpha                 90.000018
_cell_angle_beta                  134.995199
_cell_angle_gamma                 90.0
_cell_volume                      13742.0250787

loop_
_atom_site_label
_atom_site_type_symbol
_atom_type_description
_atom_site_fract_x
_atom_site_fract_y
_atom_site_fract_z
_atom_type_partial_charge
C1    C     C_R   0.807187 0.808982 0.494109 0.937679
C2    C     C_R   0.561813 0.442499 0.497737 0.843766
C3    C     C_R   0.561813 0.557500 0.497737 0.843767
C4    C     C_R   0.438187 0.442500 0.502263 0.843768
C5    C     C_R   0.938187 0.057500 0.502263 0.843767
C6    C     C_R   0.061813 0.942500 0.497737 0.843768
C7    C     C_R   0.061813 0.057500 0.497737 0.843768
C8    C     C_R   0.938187 0.942500 0.502263 0.843768
C9    C     C_R   0.664491 0.749588 0.328226 0.885937
C10   C     C_R   0.335509 0.250412 0.671774 0.885937
C11   C     C_R   0.335509 0.749588 0.671774 0.885938
C12   C     C_R   0.192813 0.191018 0.505891 0.937681
C13   C     C_R   0.664491 0.250412 0.328226 0.885937
C14   C     C_R   0.164491 0.249588 0.328226 0.885937
C15   C     C_R   0.835509 0.750412 0.671774 0.885937
C16   C     C_R   0.835509 0.249588 0.671774 0.885938
C17   C     C_R   0.164491 0.750412 0.328226 0.885937
C18   C     C_1   0.614131 0.748600 0.226649 -0.172882
C19   C     C_1   0.385869 0.251400 0.773351 -0.172882
C20   C     C_1   0.385869 0.748600 0.773351 -0.172882
C21   C     C_1   0.614131 0.251400 0.226649 -0.172882
C22   C     C_1   0.114131 0.248600 0.226649 -0.172882
C23   C     C_R   0.192813 0.808982 0.505891 0.937681
C24   C     C_1   0.885869 0.751400 0.773351 -0.172882
C25   C     C_1   0.885869 0.248600 0.773351 -0.172882
C26   C     C_1   0.114131 0.751400 0.226649 -0.172882
C27   C     C_1   0.571715 0.748172 0.142087 0.021932
C28   C     C_1   0.428285 0.251828 0.857913 0.021932
C29   C     C_1   0.428285 0.748172 0.857913 0.021932
C30   C     C_1   0.571714 0.251827 0.142087 0.021932
C31   C     C_1   0.071715 0.248172 0.142087 0.021932
C32   C     C_1   0.928285 0.751828 0.857913 0.021932
C33   C     C_1   0.928286 0.248172 0.857913 0.021932
C34   C     C_R   0.807187 0.191018 0.494109 0.937679
C35   C     C_1   0.071714 0.751827 0.142087 0.021932
C36   C     C_1   0.521356 0.747960 0.042267 0.025354
C37   C     C_1   0.478644 0.252040 0.957733 0.025354
C38   C     C_1   0.478644 0.747960 0.957733 0.025354
C39   C     C_1   0.521356 0.252040 0.042267 0.025354
C40   C     C_1   0.021356 0.247960 0.042267 0.025354
C41   C     C_1   0.978644 0.752039 0.957733 0.025354
C42   C     C_1   0.978644 0.247960 0.957733 0.025354
C43   C     C_1   0.021356 0.752039 0.042267 0.025354
C44   C     C_2   0.841936 0.907915 0.434011 -0.326614
C45   C     C_R   0.307187 0.308982 0.494110 0.937678
C46   C     C_2   0.158064 0.092085 0.565989 -0.326614
C47   C     C_2   0.158064 0.907915 0.565989 -0.326614
C48   C     C_2   0.841936 0.092085 0.434011 -0.326615
C49   C     C_2   0.341936 0.407915 0.434011 -0.326615
C50   C     C_2   0.658064 0.592085 0.565989 -0.326615
C51   C     C_2   0.658064 0.407915 0.565988 -0.326613
C52   C     C_2   0.341936 0.592085 0.434011 -0.326614
C53   C     C_2   0.901091 0.918511 0.510346 0.281323
C54   C     C_2   0.098908 0.081489 0.489654 0.281323
C55   C     C_2   0.098908 0.918511 0.489654 0.281324
C56   C     C_R   0.692813 0.691018 0.505891 0.937681
C57   C     C_2   0.901092 0.081489 0.510346 0.281325
C58   C     C_2   0.401091 0.418512 0.510346 0.281323
C59   C     C_2   0.598908 0.581488 0.489654 0.281324
C60   C     C_2   0.598908 0.418511 0.489653 0.281324
C61   C     C_2   0.401092 0.581489 0.510346 0.281325
C62   C     C_2   0.807527 0.877188 0.437697 -0.089073
C63   C     C_2   0.192472 0.122812 0.562303 -0.089073
C64   C     C_2   0.192472 0.877188 0.562303 -0.089073
C65   C     C_2   0.807527 0.122812 0.437698 -0.089073
C66   C     C_2   0.307527 0.377188 0.437697 -0.089072
C67   C     C_R   0.692813 0.308982 0.505891 0.937681
C68   C     C_2   0.692473 0.622812 0.562303 -0.089072
C69   C     C_2   0.692473 0.377188 0.562302 -0.089073
C70   C     C_2   0.307527 0.622812 0.437698 -0.089072
C71   C     C_2   0.834694 0.839675 0.479122 -0.231453
C72   C     C_2   0.165306 0.160325 0.520878 -0.231453
C73   C     C_2   0.165306 0.839674 0.520878 -0.231454
C74   C     C_2   0.834694 0.160325 0.479121 -0.231454
C75   C     C_2   0.334694 0.339674 0.479122 -0.231452
C76   C     C_2   0.665306 0.660325 0.520878 -0.231454
C77   C     C_2   0.665306 0.339674 0.520879 -0.231455
C78   C     C_R   0.307186 0.691018 0.494109 0.937679
C79   C     C_2   0.334694 0.660325 0.479121 -0.231454
C80   C     C_R   0.438187 0.557500 0.502263 0.843766
H1    H     H_    0.820066 0.919145 0.366745 0.160775
H2    H     H_    0.238782 0.114923 0.592830 0.170534
H3    H     H_    0.238782 0.885077 0.592830 0.170535
H4    H     H_    0.761218 0.114923 0.407171 0.170535
H5    H     H_    0.261218 0.385076 0.407169 0.170534
H6    H     H_    0.738782 0.614923 0.592830 0.170534
H7    H     H_    0.738782 0.385077 0.592829 0.170535
H8    H     H_    0.261218 0.614923 0.407170 0.170534
H9    H     H_    0.878124 0.830813 0.500571 0.176447
H10   H     H_    0.121876 0.169187 0.499429 0.176447
H11   H     H_    0.121876 0.830813 0.499429 0.176447
H12   H     H_    0.179934 0.080855 0.633255 0.160775
H13   H     H_    0.878124 0.169187 0.500570 0.176447
H14   H     H_    0.378125 0.330813 0.500572 0.176446
H15   H     H_    0.621876 0.669187 0.499429 0.176447
H16   H     H_    0.621876 0.330813 0.499430 0.176447
H17   H     H_    0.378124 0.669187 0.500570 0.176447
H18   H     H_    0.000394 0.941948 0.754944 0.385800
H19   H     H_    0.999604 0.058052 0.245055 0.385800
H20   H     H_    0.999603 0.941947 0.245054 0.385799
H21   H     H_    0.000399 0.058054 0.754946 0.385799
H22   H     H_    0.500379 0.441956 0.754937 0.385805
H23   H     H_    0.179934 0.919145 0.633254 0.160775
H24   H     H_    0.499605 0.558052 0.245055 0.385801
H25   H     H_    0.499597 0.441944 0.245051 0.385796
H26   H     H_    0.500395 0.558053 0.754945 0.385798
H27   H     H_    0.820066 0.080854 0.366746 0.160775
H28   H     H_    0.320066 0.419144 0.366745 0.160775
H29   H     H_    0.679934 0.580855 0.633255 0.160775
H30   H     H_    0.679934 0.419146 0.633254 0.160775
H31   H     H_    0.320066 0.580854 0.366746 0.160775
H32   H     H_    0.761218 0.885077 0.407170 0.170534
O1    O     O_R   0.820750 0.769700 0.499970 -0.619224
O2    O     O_R   0.230310 0.179230 0.500010 -0.591245
O3    O     O_R   0.230310 0.820770 0.500010 -0.591246
O4    O     O_R   0.769690 0.179230 0.499990 -0.591245
O5    O     O_R   0.269690 0.320770 0.499990 -0.591244
O6    O     O_R   0.730310 0.679230 0.500010 -0.591245
O7    O     O_R   0.730310 0.320770 0.500010 -0.591245
O8    O     O_R   0.269690 0.679230 0.499990 -0.591245
O9    O     O_R   0.712390 0.724470 0.373700 -0.591373
O10   O     O_R   0.287610 0.275530 0.626300 -0.591373
O11   O     O_R   0.287610 0.724470 0.626300 -0.591373
O12   O     O_R   0.179250 0.230300 0.500030 -0.619224
O13   O     O_R   0.712390 0.275530 0.373700 -0.591373
O14   O     O_R   0.212390 0.224470 0.373700 -0.591373
O15   O     O_R   0.787610 0.775530 0.626300 -0.591373
O16   O     O_R   0.787610 0.224470 0.626300 -0.591373
O17   O     O_R   0.212390 0.775530 0.373700 -0.591373
O18   O     O_R   0.661330 0.775540 0.373730 -0.603219
O19   O     O_R   0.338670 0.224460 0.626270 -0.603220
O20   O     O_R   0.338670 0.775540 0.626270 -0.603219
O21   O     O_R   0.661330 0.224460 0.373730 -0.603219
O22   O     O_R   0.161330 0.275540 0.373730 -0.603219
O23   O     O_R   0.179250 0.769700 0.500030 -0.619224
O24   O     O_R   0.838670 0.724460 0.626270 -0.603220
O25   O     O_R   0.838670 0.275540 0.626270 -0.603220
O26   O     O_R   0.161330 0.724460 0.373730 -0.603219
O27   O     O_R   0.419140 0.545230 0.428730 -0.653194
O28   O     O_R   0.580860 0.454770 0.571270 -0.653192
O29   O     O_R   0.580860 0.545230 0.571270 -0.653194
O30   O     O_R   0.419140 0.454770 0.428730 -0.653195
O31   O     O_R   0.919140 0.045230 0.428730 -0.653193
O32   O     O_R   0.080860 0.954770 0.571270 -0.653194
O33   O     O_R   0.080860 0.045230 0.571270 -0.653195
O34   O     O_R   0.820750 0.230300 0.499970 -0.619224
O35   O     O_R   0.919140 0.954770 0.428730 -0.653193
O36   O     O_R   0.490420 0.545230 0.571310 -0.535684
O37   O     O_R   0.509580 0.454770 0.428690 -0.535688
O38   O     O_R   0.509580 0.545230 0.428690 -0.535686
O39   O     O_R   0.490420 0.454770 0.571310 -0.535681
O40   O     O_R   0.990420 0.045230 0.571310 -0.535686
O41   O     O_R   0.009580 0.954770 0.428690 -0.535686
O42   O     O_R   0.009580 0.045230 0.428690 -0.535686
O43   O     O_R   0.990420 0.954770 0.571310 -0.535686
O44   O     O_2   0.884576 0.906448 0.623088 -0.265979
O45   O     O_R   0.320750 0.269700 0.499970 -0.619224
O46   O     O_2   0.971156 0.868358 0.660752 -0.317800
O47   O     O_3   0.982648 0.950014 0.693722 -0.491584
O48   O     O_2   0.028844 0.131642 0.339248 -0.317801
O49   O     O_2   0.115423 0.093552 0.376912 -0.265978
O50   O     O_3   0.017352 0.049986 0.306277 -0.491585
O51   O     O_2   0.115423 0.906448 0.376911 -0.265977
O52   O     O_2   0.028843 0.868358 0.339248 -0.317802
O53   O     O_3   0.017352 0.950014 0.306277 -0.491584
O54   O     O_2   0.971156 0.131643 0.660752 -0.317804
O55   O     O_2   0.884577 0.093552 0.623089 -0.265976
O56   O     O_R   0.679250 0.730300 0.500030 -0.619224
O57   O     O_3   0.982649 0.049987 0.693723 -0.491585
O58   O     O_2   0.384575 0.406450 0.623086 -0.265995
O59   O     O_2   0.471155 0.368359 0.660753 -0.317783
O60   O     O_3   0.482647 0.450015 0.693722 -0.491591
O61   O     O_2   0.528844 0.631642 0.339248 -0.317801
O62   O     O_2   0.615424 0.593552 0.376912 -0.265978
O63   O     O_3   0.517352 0.549986 0.306277 -0.491583
O64   O     O_2   0.615422 0.406447 0.376911 -0.265971
O65   O     O_2   0.528843 0.368357 0.339249 -0.317809
O66   O     O_3   0.517351 0.450013 0.306277 -0.491582
O67   O     O_R   0.679250 0.269700 0.500030 -0.619224
O68   O     O_2   0.471156 0.631643 0.660752 -0.317798
O69   O     O_2   0.384577 0.593552 0.623089 -0.265982
O70   O     O_3   0.482649 0.549987 0.693724 -0.491590
O71   O     O_R   0.320750 0.730300 0.499970 -0.619224
O72   O     O_R   0.769690 0.820770 0.499990 -0.591245
S1    S     S_3+6 0.934399 0.909445 0.623784 0.050788
S2    S     S_3+6 0.065601 0.090555 0.376216 0.050788
S3    S     S_3+6 0.065601 0.909444 0.376216 0.050788
S4    S     S_3+6 0.934399 0.090556 0.623784 0.050787
S5    S     S_3+6 0.434398 0.409446 0.623783 0.050786
S6    S     S_3+6 0.565601 0.590555 0.376216 0.050788
S7    S     S_3+6 0.565600 0.409444 0.376216 0.050788
S8    S     S_3+6 0.434399 0.590556 0.623784 0.050785
Zn1   Zn    Zn3+2 0.784090 0.715900 0.499990 1.010165
Zn2   Zn    Zn3+2 0.547600 0.500000 0.595200 1.077657
Zn3   Zn    Zn3+2 0.952400 1.000000 0.404800 1.077649
Zn4   Zn    Zn3+2 0.047600 0.000000 0.595200 1.077649
Zn5   Zn    Zn3+2 0.215910 0.284100 0.500010 1.010165
Zn6   Zn    Zn3+2 0.215910 0.715900 0.500010 1.010164
Zn7   Zn    Zn3+2 0.784090 0.284100 0.499990 1.010165
Zn8   Zn    Zn3+2 0.284090 0.215900 0.499990 1.010165
Zn9   Zn    Zn3+2 0.715910 0.784100 0.500010 1.010165
Zn10  Zn    Zn3+2 0.715910 0.215900 0.500010 1.010165
Zn11  Zn    Zn3+2 0.284090 0.784100 0.499990 1.010165
Zn12  Zn    Zn3+2 0.452400 0.500000 0.404800 1.077647

loop_
_geom_bond_atom_site_label_1
_geom_bond_atom_site_label_2
_ccdc_geom_bond_type
O22   Zn5   S    
O65   S7    D    
C68   H6    S    
O11   Zn6   S    
C69   C77   D    
C16   O25   A    
C3    O29   A    
O48   S2    D    
C6    C55   S    
O52   S3    D    
C70   H8    S    
C11   O20   A    
O23   Zn6   S    
C48   C57   D    
C9    O18   A    
C31   C40   S    
O58   S5    D    
C1    C71   S    
C5    O40   A    
C1    O1    A    
O7    Zn7   S    
C50   C59   D    
O39   Zn2   S    
C52   C61   D    
C76   H15   S    
C4    O30   A    
O69   S8    D    
C2    C60   S    
C5    O31   A    
C48   H27   S    
C46   H12   S    
O55   S4    D    
C61   C80   S    
C34   O4    A    
O61   S6    D    
C16   C25   S    
O56   Zn9   S    
O59   S5    D    
O51   S3    D    
C78   O71   A    
O34   Zn7   S    
O6    Zn1   S    
C8    O43   A    
C53   S1    S    
C10   O19   A    
H26   O70   S    
C57   S4    S    
O43   Zn4   S    
C44   C53   D    
O25   Zn7   S    
O33   Zn4   S    
O3    Zn11  S    
C29   C38   S    
C62   C71   D    
C61   S8    S    
O8    Zn6   S    
C32   C41   S    
O53   S3    S    
O35   Zn3   S    
C17   O26   A    
O38   Zn12  S    
C48   C65   S    
C49   H28   S    
C35   C43   S    
H25   O66   S    
C69   H7    S    
C13   O13   A    
C2    O37   A    
C40   C42   T    
C12   C72   S    
O2    Zn8   S    
C41   C43   T    
C74   H13   S    
C56   O56   A    
O70   S8    S    
C23   C73   S    
O9    Zn1   S    
C1    O72   A    
H24   O63   S    
C12   O2    A    
C20   C29   T    
H22   O60   S    
C66   H5    S    
C11   C20   S    
C47   H23   S    
C49   C66   S    
O40   Zn4   S    
C63   H2    S    
C17   O17   A    
C45   O45   A    
C73   H11   S    
C44   H1    S    
C22   C31   T    
C47   C64   S    
O50   S2    S    
C78   C79   S    
O64   S7    D    
O14   Zn8   S    
C15   O24   A    
C14   O22   A    
C52   H31   S    
C44   C62   S    
O44   S1    D    
O12   Zn5   S    
C50   H29   S    
C65   C74   D    
H20   O53   S    
O30   Zn12  S    
C78   O8    A    
C67   O7    A    
C24   C32   T    
C64   H3    S    
O49   S2    D    
C67   C77   S    
H19   O50   S    
C72   H10   S    
C26   C35   T    
C9    O9    A    
O41   Zn3   S    
O67   Zn10  S    
C3    O38   A    
C10   C19   S    
C64   C73   D    
O31   Zn3   S    
C46   C54   D    
C58   S5    S    
C13   C21   S    
O16   Zn10  S    
H18   O47   S    
H21   O57   S    
C19   C28   T    
C16   O16   A    
O37   Zn12  S    
C45   C75   S    
O18   Zn9   S    
C71   H9    S    
O62   S6    D    
O32   Zn4   S    
O42   Zn3   S    
O26   Zn6   S    
O36   Zn2   S    
C15   C24   S    
C34   C74   S    
C51   H30   S    
C55   S3    S    
C56   C76   S    
O68   S8    D    
O60   S5    S    
O54   S4    D    
C8    O35   A    
C17   C26   S    
C6    O32   A    
O46   S1    D    
O5    Zn5   S    
C47   C55   D    
C45   O5    A    
O21   Zn10  S    
C4    O39   A    
C33   C42   S    
O63   S6    S    
O72   Zn9   S    
C70   C79   D    
O1    Zn1   S    
C79   H17   S    
C11   O11   A    
C18   C27   T    
O57   S4    S    
C10   O10   A    
C8    C53   S    
O4    Zn10  S    
C65   H4    S    
C23   O23   A    
C27   C36   S    
C68   C76   D    
C80   O27   A    
C21   C30   T    
C77   H16   S    
C14   O14   A    
C5    C57   S    
C46   C63   S    
O27   Zn12  S    
O45   Zn8   S    
C2    O28   A    
C14   C22   S    
C36   C38   T    
O19   Zn8   S    
O71   Zn11  S    
O24   Zn1   S    
C37   C39   T    
C67   O67   A    
C56   O6    A    
O66   S7    S    
C34   O34   A    
O47   S1    S    
C7    O42   A    
O28   Zn2   S    
C28   C37   S    
C60   S7    S    
C66   C75   D    
O20   Zn11  S    
C30   C39   S    
O29   Zn2   S    
O15   Zn9   S    
O10   Zn5   S    
C13   O21   A    
C6    O41   A    
C52   C70   S    
C49   C58   D    
C23   O3    A    
O17   Zn11  S    
C9    C18   S    
C80   O36   A    
C62   H32   S    
C63   C72   D    
O13   Zn7   S    
C54   S2    S    
C4    C58   S    
C59   S6    S    
C15   O15   A    
C51   C60   D    
C51   C69   S    
C7    C54   S    
C50   C68   S    
C12   O12   A    
C75   H14   S    
C25   C33   T    
C7    O33   A    
C3    C59   S    
