data_mof_unit_64668.cif
_audit_creation_date              2012-12-10T18:38:29-0500
_audit_creation_method            fapswitch 2.2
_symmetry_space_group_name_H-M    P1
_symmetry_Int_Tables_number       1
_space_group_crystal_system       triclinic
_cell_length_a                    30.133922
_cell_length_b                    31.845656
_cell_length_c                    21.374816
_cell_angle_alpha                 89.980175
_cell_angle_beta                  134.832193
_cell_angle_gamma                 90.012804
_cell_volume                      14546.5986709

loop_
_atom_site_label
_atom_site_type_symbol
_atom_type_description
_atom_site_fract_x
_atom_site_fract_y
_atom_site_fract_z
_atom_type_partial_charge
C1    C     C_R   0.378502 0.500712 0.378723 0.857931
C2    C     C_3   0.000896 0.708605 0.500989 -0.146753
C3    C     C_3   0.999537 0.500214 0.310992 -0.202139
C4    C     C_3   0.535057 0.968566 0.764631 0.288641
C5    C     C_3   0.519163 0.036154 0.748034 0.343413
C6    C     C_3   0.017982 0.463574 0.746861 0.339533
C7    C     C_3   0.036023 0.530897 0.765557 0.331761
C8    C     C_3   0.056058 0.493492 0.825788 0.327770
C9    C     C_3   0.556300 0.005680 0.826049 0.325222
C10   C     C_3   0.998029 0.500220 0.808677 -0.244841
C11   C     C_3   0.498019 0.999813 0.808666 -0.245268
C12   C     C_3   0.959433 0.469863 0.729745 -0.174473
C13   C     C_3   0.556468 0.735969 0.573386 0.438702
C14   C     C_3   0.977741 0.538142 0.748657 -0.167962
C15   C     C_3   0.476515 0.962191 0.747461 -0.171176
C16   C     C_3   0.460420 0.030718 0.730695 -0.168254
C17   C     C_3   0.439280 0.993173 0.668558 -0.159606
C18   C     C_3   0.939498 0.507712 0.668771 -0.171096
C19   C     C_3   0.498355 0.999131 0.687003 -0.315829
C20   C     C_3   0.998366 0.500899 0.686989 -0.326292
C21   C     C_3   0.456528 0.735978 0.497617 -0.317059
C22   C     C_3   0.441352 0.264136 0.451766 -0.322248
C23   C     C_3   0.941296 0.235855 0.450930 -0.319955
C24   C     C_3   0.537566 0.264208 0.583170 0.428465
C25   C     C_3   0.957285 0.763996 0.499284 -0.319921
C26   C     C_1   0.499859 0.625692 0.499815 -0.115218
C27   C     C_1   0.500078 0.374325 0.499951 -0.089933
C28   C     C_1   0.000110 0.125676 0.499910 -0.093876
C29   C     C_1   0.999869 0.874308 0.499900 -0.112631
C30   C     C_1   0.500231 0.874345 0.500108 -0.055251
C31   C     C_1   0.500211 0.125664 0.500884 -0.036903
C32   C     C_1   0.000220 0.374336 0.500942 -0.044507
C33   C     C_1   0.000230 0.625654 0.500179 -0.042591
C34   C     C_3   0.487151 0.735937 0.429107 -0.266331
C35   C     C_3   0.037061 0.235749 0.583065 0.434954
C36   C     C_3   0.521686 0.263872 0.466231 -0.209945
C37   C     C_3   0.022430 0.236182 0.467183 -0.259738
C38   C     C_3   0.986098 0.764095 0.428431 -0.223887
C39   C     C_3   0.500045 0.708641 0.500097 -0.073925
C40   C     C_3   0.500219 0.291389 0.500217 -0.091168
C41   C     C_3   0.000285 0.208612 0.500192 -0.077946
C42   C     C_3   0.000054 0.791357 0.500240 -0.087378
C43   C     C_3   0.056783 0.764017 0.572792 0.436678
C44   C     C_3   0.513583 0.763731 0.570797 0.347369
C45   C     C_3   0.479626 0.236536 0.535417 0.354680
C46   C     C_3   0.979001 0.263410 0.534512 0.356669
C47   C     C_3   0.014636 0.736232 0.571707 0.351957
C48   C     C_1   0.499822 0.663198 0.499789 0.111623
C49   C     C_R   0.878502 0.999293 0.378718 0.859344
C50   C     C_1   0.500095 0.336825 0.499855 0.137105
C51   C     C_1   0.000149 0.163176 0.499807 0.121027
C52   C     C_1   0.999834 0.836802 0.499917 0.127587
C53   C     C_1   0.500625 0.836852 0.500499 0.153073
C54   C     C_1   0.500572 0.163160 0.501703 0.170921
C55   C     C_1   0.000594 0.336840 0.501768 0.160186
C56   C     C_1   0.000631 0.663147 0.500593 0.169539
C57   C     C_3   0.272234 0.460970 0.268941 -0.213686
C58   C     C_3   0.270429 0.518154 0.324404 -0.124028
C59   C     C_3   0.770455 0.981592 0.324249 -0.123534
C60   C     C_3   0.544307 0.763889 0.503403 -0.282511
C61   C     C_3   0.772225 0.039063 0.269331 -0.215819
C62   C     C_3   0.230049 0.478030 0.279758 -0.083183
C63   C     C_3   0.730068 0.021739 0.280019 -0.083978
C64   C     C_3   0.189891 0.499860 0.190164 0.001512
C65   C     C_3   0.689891 0.000152 0.190210 0.002286
C66   C     C_3   0.231076 0.482636 0.178392 -0.084981
C67   C     C_3   0.229300 0.539996 0.233731 -0.138327
C68   C     C_3   0.729310 0.959998 0.233358 -0.139863
C69   C     C_3   0.731043 0.017648 0.178562 -0.082271
C70   C     C_R   0.499976 0.581218 0.499958 0.873239
C71   C     C_3   0.559495 0.236058 0.550311 -0.305927
C72   C     C_R   0.500058 0.418788 0.500037 0.894457
C73   C     C_R   0.000064 0.081212 0.500022 0.897006
C74   C     C_R   0.999980 0.918782 0.499982 0.874082
C75   C     C_3   0.271345 0.522786 0.222628 -0.136792
C76   C     C_3   0.771323 0.977478 0.222376 -0.138174
C77   C     C_3   0.311213 0.501004 0.311973 -0.036822
C78   C     C_3   0.811213 0.999009 0.311951 -0.035088
C79   C     C_3   0.729146 0.539377 0.727741 -0.208871
C80   C     C_3   0.728217 0.479601 0.779190 -0.179942
C81   C     C_3   0.228229 0.019837 0.779589 -0.186848
C82   C     C_3   0.059656 0.263953 0.551175 -0.280159
C83   C     C_3   0.229219 0.960561 0.726955 -0.217377
C84   C     C_3   0.769911 0.519501 0.820551 -0.175173
C85   C     C_3   0.269994 0.979972 0.820156 -0.170773
C86   C     C_3   0.810894 0.499160 0.810577 -0.289317
C87   C     C_3   0.310910 0.000852 0.810505 -0.293993
C88   C     C_3   0.770848 0.518669 0.719066 0.369213
C89   C     C_3   0.769718 0.459680 0.769559 0.345869
C90   C     C_3   0.269659 0.040287 0.770264 0.349189
C91   C     C_3   0.270854 0.981809 0.718651 0.371102
C92   C     C_3   0.729717 0.479174 0.677848 0.266689
C93   C     C_3   0.043568 0.736133 0.501986 -0.306849
C94   C     C_3   0.229629 0.021251 0.678217 0.305630
C95   C     C_3   0.688767 0.499389 0.687580 -0.259533
C96   C     C_3   0.188759 0.000513 0.687593 -0.269188
C97   C     C_R   0.500078 0.999933 0.378589 0.933121
C98   C     C_R   0.000081 0.500051 0.378589 0.938219
C99   C     C_R   0.500035 0.918800 0.499951 0.884545
C100  C     C_R   0.500032 0.081203 0.500109 0.908571
C101  C     C_R   0.000034 0.418797 0.500141 0.901856
C102  C     C_R   0.000034 0.581200 0.499984 0.895424
C103  C     C_R   0.621499 0.499825 0.621206 0.969033
C104  C     C_3   0.500884 0.791394 0.500881 -0.118176
C105  C     C_R   0.121498 0.000123 0.621209 0.973210
C106  C     C_R   0.499592 0.999462 0.620967 1.003926
C107  C     C_R   0.999595 0.500579 0.620963 1.004865
C108  C     C_R   0.998722 0.500099 0.120492 0.981557
C109  C     C_R   0.498752 0.999885 0.120526 0.982405
C110  C     C_R   0.122057 0.499955 0.122011 0.939520
C111  C     C_R   0.622056 0.000046 0.122059 0.943242
C112  C     C_R   0.998709 0.500032 0.876833 1.013347
C113  C     C_R   0.498640 0.999979 0.876765 1.012082
C114  C     C_R   0.878235 0.499848 0.878401 0.973913
C115  C     C_3   0.500777 0.208624 0.502019 -0.147992
C116  C     C_R   0.378239 0.000155 0.878335 0.974845
C117  C     C_3   0.513409 0.038627 0.284604 -0.226018
C118  C     C_3   0.541761 0.971594 0.312946 -0.284152
C119  C     C_3   0.041488 0.528568 0.312617 -0.236142
C120  C     C_3   0.013810 0.461411 0.285038 -0.276236
C121  C     C_3   0.054642 0.489972 0.284255 0.465571
C122  C     C_3   0.554541 0.010241 0.284171 0.464728
C123  C     C_3   0.997888 0.500568 0.187187 -0.337807
C124  C     C_3   0.497912 0.999381 0.187221 -0.338857
C125  C     C_3   0.983735 0.538585 0.214777 0.400918
C126  C     C_3   0.000815 0.291377 0.502070 -0.120327
C127  C     C_3   0.956602 0.472924 0.187648 0.301568
C128  C     C_3   0.456333 0.026845 0.187346 0.389587
C129  C     C_3   0.484120 0.961309 0.215216 0.317956
C130  C     C_3   0.441415 0.988632 0.214104 -0.229347
C131  C     C_3   0.941310 0.511073 0.213986 -0.225680
C132  C     C_3   0.444746 0.763854 0.427986 0.399147
C133  C     C_3   0.463607 0.236022 0.419422 0.473502
C134  C     C_3   0.964213 0.264023 0.419554 0.397944
C135  C     C_3   0.944453 0.736154 0.428819 0.481492
C136  C     C_3   0.499524 0.999760 0.310988 -0.203052
H1    H     H_    0.928267 0.444725 0.716796 0.228203
H2    H     H_    0.973537 0.776035 0.368793 0.209724
H3    H     H_    0.291531 0.428663 0.285087 0.169130
H4    H     H_    0.288076 0.532696 0.385719 0.184751
H5    H     H_    0.788125 0.966832 0.385431 0.184276
H6    H     H_    0.791518 0.071385 0.285790 0.169078
H7    H     H_    0.216493 0.466674 0.120544 0.224834
H8    H     H_    0.210533 0.572439 0.218139 0.187353
H9    H     H_    0.710551 0.927540 0.217450 0.185391
H10   H     H_    0.716306 0.033829 0.120768 0.226992
H11   H     H_    0.420466 0.724306 0.494869 0.220283
H12   H     H_    0.961309 0.568795 0.750817 0.233299
H13   H     H_    0.393004 0.275870 0.411137 0.220846
H14   H     H_    0.892862 0.224112 0.409595 0.221111
H15   H     H_    0.921839 0.775649 0.497811 0.221184
H16   H     H_    0.289713 0.541108 0.200684 0.182030
H17   H     H_    0.789669 0.959363 0.200210 0.179705
H18   H     H_    0.787931 0.535924 0.880579 0.228033
H19   H     H_    0.288078 0.963163 0.879898 0.228916
H20   H     H_    0.710914 0.572016 0.708563 0.216331
H21   H     H_    0.709517 0.463336 0.802581 0.227543
H22   H     H_    0.209562 0.035671 0.803374 0.223153
H23   H     H_    0.459076 0.931803 0.748697 0.234688
H24   H     H_    0.211083 0.927913 0.707205 0.218070
H25   H     H_    0.761069 0.572825 0.558963 0.392689
H26   H     H_    0.746245 0.346042 0.747263 0.407545
H27   H     H_    0.245691 0.153854 0.749401 0.404939
H28   H     H_    0.259806 0.927098 0.557931 0.393286
H29   H     H_    0.773126 0.450741 0.579728 0.389482
H30   H     H_    0.246715 0.083566 0.552305 0.392179
H31   H     H_    0.218736 0.460381 0.461302 0.386431
H32   H     H_    0.718215 0.040801 0.460939 0.386634
H33   H     H_    0.525620 0.070339 0.314514 0.207118
H34   H     H_    0.430086 0.056312 0.718539 0.232900
H35   H     H_    0.577089 0.949005 0.365900 0.198995
H36   H     H_    0.076597 0.551314 0.365315 0.207059
H37   H     H_    0.026339 0.429756 0.315305 0.198921
H38   H     H_    0.934396 0.647073 0.189470 0.404669
H39   H     H_    0.894432 0.403787 0.188000 0.369139
H40   H     H_    0.329737 0.102677 0.079582 0.405946
H41   H     H_    0.482669 0.882934 0.281055 0.342313
H42   H     H_    0.394693 0.979704 0.186094 0.221118
H43   H     H_    0.894493 0.519779 0.185871 0.220970
H44   H     H_    0.223839 0.473107 0.981794 0.380619
H45   H     H_    0.391296 0.987940 0.602565 0.227218
H46   H     H_    0.725161 0.021929 0.983938 0.381022
H47   H     H_    0.343000 0.724865 0.258803 0.351083
H48   H     H_    0.356400 0.244737 0.180650 0.401917
H49   H     H_    0.918941 0.225776 0.260206 0.353956
H50   H     H_    0.781089 0.745443 0.218911 0.400800
H51   H     H_    0.644621 0.907713 0.919869 0.395382
H52   H     H_    0.579048 0.143117 0.818837 0.414549
H53   H     H_    0.076659 0.356364 0.816722 0.413136
H54   H     H_    0.133714 0.624396 0.877676 0.404324
H55   H     H_    0.549839 0.754862 0.773262 0.400867
H56   H     H_    0.891676 0.513640 0.602978 0.222960
H57   H     H_    0.410975 0.247055 0.622731 0.399444
H58   H     H_    0.908329 0.252687 0.618884 0.400957
H59   H     H_    0.054044 0.744954 0.776600 0.397950
H60   H     H_    0.719842 0.743882 0.784486 0.400879
H61   H     H_    0.648992 0.256464 0.822958 0.405259
H62   H     H_    0.146967 0.243372 0.822648 0.397914
H63   H     H_    0.221014 0.756075 0.781771 0.401675
H64   H     H_    0.580514 0.775711 0.506576 0.216967
H65   H     H_    0.607818 0.224191 0.591254 0.224893
H66   H     H_    0.108062 0.275828 0.592809 0.219020
H67   H     H_    0.475465 0.724023 0.370112 0.198846
H68   H     H_    0.079171 0.724328 0.503902 0.223712
H69   H     H_    0.213495 0.458480 0.302696 0.224843
H70   H     H_    0.713584 0.041132 0.303201 0.225625
H71   H     H_    0.538250 0.275603 0.436674 0.217287
H72   H     H_    0.039572 0.224496 0.438399 0.201890
O1    O     O_R   0.406950 0.500000 0.354430 -0.623790
O2    O     O_R   0.052480 0.500000 0.645470 -0.554618
O3    O     O_2   0.875176 0.690981 0.279836 -0.260740
O4    O     O_2   0.843092 0.690817 0.358317 -0.250285
O5    O     O_3   0.821691 0.758138 0.271172 -0.528528
O6    O     O_2   0.543867 0.900334 0.700349 -0.230796
O7    O     O_2   0.638394 0.943018 0.805634 -0.222541
O8    O     O_3   0.604327 0.895759 0.865496 -0.473793
O9    O     O_2   0.604771 0.079363 0.767127 -0.230879
O10   O     O_2   0.495707 0.103223 0.652607 -0.273488
O11   O     O_3   0.557727 0.118569 0.816497 -0.460295
O12   O     O_2   0.991777 0.396340 0.650094 -0.266730
O13   O     O_R   0.000050 0.534770 0.093010 -0.578172
O14   O     O_2   0.101368 0.419309 0.762504 -0.235535
O15   O     O_3   0.055693 0.381034 0.814755 -0.461117
O16   O     O_2   0.140163 0.554492 0.807446 -0.209988
O17   O     O_2   0.047690 0.599767 0.705917 -0.268478
O18   O     O_3   0.109486 0.601027 0.872277 -0.485571
O19   O     O_2   0.589300 0.808458 0.721041 -0.180842
O20   O     O_2   0.476816 0.809860 0.632621 -0.236465
O21   O     O_3   0.539165 0.742066 0.721793 -0.489005
O22   O     O_2   0.398356 0.187715 0.516924 -0.241964
O23   O     O_2   0.502768 0.196722 0.666756 -0.204768
O24   O     O_R   0.000050 0.465230 0.093010 -0.567788
O25   O     O_3   0.424547 0.259230 0.595789 -0.495901
O26   O     O_2   0.000840 0.302992 0.664965 -0.206694
O27   O     O_2   0.897057 0.312219 0.514436 -0.235321
O28   O     O_3   0.922371 0.240573 0.592542 -0.495192
O29   O     O_2   0.979697 0.690021 0.635978 -0.242107
O30   O     O_2   0.091726 0.691435 0.721865 -0.210220
O31   O     O_3   0.042547 0.757786 0.724549 -0.486010
O32   O     O_2   0.625362 0.690244 0.721970 -0.233839
O33   O     O_2   0.657049 0.689804 0.643069 -0.274932
O34   O     O_3   0.679969 0.756924 0.731407 -0.483563
O35   O     O_R   0.500050 0.034770 0.093010 -0.568175
O36   O     O_2   0.636490 0.311910 0.711954 -0.256338
O37   O     O_2   0.550238 0.308517 0.701932 -0.224171
O38   O     O_3   0.623395 0.243439 0.764121 -0.488023
O39   O     O_2   0.048443 0.191369 0.700672 -0.228779
O40   O     O_2   0.135585 0.187995 0.712607 -0.263942
O41   O     O_3   0.121763 0.256429 0.763916 -0.494595
O42   O     O_2   0.156795 0.810198 0.640098 -0.275038
O43   O     O_2   0.127119 0.809697 0.721555 -0.230846
O44   O     O_3   0.180906 0.743041 0.729178 -0.481969
O45   O     O_R   0.500050 0.965230 0.093010 -0.577819
O46   O     O_R   0.093030 0.534780 0.092960 -0.619483
O47   O     O_R   0.093030 0.465220 0.092960 -0.606289
O48   O     O_R   0.593030 0.034780 0.092960 -0.606066
O49   O     O_R   0.593030 0.965220 0.092960 -0.621137
O50   O     O_R   0.999950 0.534800 0.906860 -0.604783
O51   O     O_R   0.906950 0.000000 0.354430 -0.624512
O52   O     O_R   0.999950 0.465200 0.906860 -0.599740
O53   O     O_R   0.499950 0.034800 0.906860 -0.599492
O54   O     O_R   0.499950 0.965200 0.906860 -0.607706
O55   O     O_R   0.906980 0.534790 0.906910 -0.587010
O56   O     O_R   0.906980 0.465210 0.906910 -0.573679
O57   O     O_R   0.406980 0.034790 0.906910 -0.570476
O58   O     O_R   0.406980 0.965210 0.906910 -0.589236
O59   O     O_R   0.407010 0.500000 0.459520 -0.623777
O60   O     O_R   0.907010 0.000000 0.459520 -0.623571
O61   O     O_R   0.499970 0.561610 0.447450 -0.610088
O62   O     O_R   0.552530 0.938390 0.552510 -0.598686
O63   O     O_R   0.499970 0.438390 0.447450 -0.592247
O64   O     O_R   0.999970 0.061610 0.447450 -0.596592
O65   O     O_R   0.999970 0.938390 0.447450 -0.608380
O66   O     O_R   0.500030 0.561620 0.552540 -0.604306
O67   O     O_R   0.500030 0.438380 0.552540 -0.600034
O68   O     O_R   0.000030 0.061620 0.552540 -0.599658
O69   O     O_R   0.000030 0.938380 0.552540 -0.604864
O70   O     O_R   0.593000 0.500000 0.540480 -0.559017
O71   O     O_R   0.093000 0.000000 0.540480 -0.559957
O72   O     O_R   0.593060 0.500000 0.645570 -0.615684
O73   O     O_R   0.552530 0.061610 0.552510 -0.602250
O74   O     O_R   0.093060 0.000000 0.645570 -0.616179
O75   O     O_R   0.447530 0.000000 0.354370 -0.611342
O76   O     O_R   0.947530 0.500000 0.354370 -0.618123
O77   O     O_R   0.552560 0.000000 0.459510 -0.613787
O78   O     O_R   0.052560 0.500000 0.459510 -0.611603
O79   O     O_R   0.447490 0.938400 0.447370 -0.602521
O80   O     O_R   0.447490 0.061600 0.447370 -0.592599
O81   O     O_R   0.947490 0.438400 0.447370 -0.596726
O82   O     O_R   0.947490 0.561600 0.447370 -0.601654
O83   O     O_2   0.837222 0.583347 0.738945 -0.249204
O84   O     O_R   0.052530 0.438390 0.552510 -0.601496
O85   O     O_2   0.842872 0.516441 0.687951 -0.363835
O86   O     O_3   0.741019 0.560873 0.576835 -0.484628
O87   O     O_2   0.834064 0.396112 0.780687 -0.227115
O88   O     O_2   0.829817 0.398049 0.891177 -0.188266
O89   O     O_3   0.729804 0.375117 0.731726 -0.472858
O90   O     O_2   0.329829 0.101521 0.892729 -0.203243
O91   O     O_2   0.333441 0.104423 0.781640 -0.229694
O92   O     O_3   0.229389 0.124743 0.733818 -0.479887
O93   O     O_2   0.338657 0.986667 0.680706 -0.312240
O94   O     O_2   0.340659 0.919597 0.739314 -0.263303
O95   O     O_R   0.052530 0.561610 0.552510 -0.598267
O96   O     O_3   0.240271 0.938588 0.576887 -0.478168
O97   O     O_2   0.658801 0.417528 0.558201 -0.216000
O98   O     O_2   0.668651 0.482035 0.506648 -0.241118
O99   O     O_3   0.763923 0.431040 0.605229 -0.459611
O100  O     O_2   0.168889 0.018899 0.507357 -0.227888
O101  O     O_2   0.159594 0.083495 0.559949 -0.258386
O102  O     O_3   0.264776 0.068984 0.606991 -0.469766
O103  O     O_2   0.124740 0.437543 0.286235 -0.301832
O104  O     O_2   0.155071 0.512209 0.317948 -0.347738
O105  O     O_3   0.177641 0.467021 0.439472 -0.514723
O106  O     O_R   0.447440 0.000000 0.540340 -0.624485
O107  O     O_2   0.655450 0.988122 0.319077 -0.347190
O108  O     O_2   0.624254 0.062617 0.285200 -0.301957
O109  O     O_3   0.677120 0.034089 0.439060 -0.514261
O110  O     O_2   0.016242 0.610070 0.188660 -0.250731
O111  O     O_2   0.906144 0.588196 0.071979 -0.271470
O112  O     O_3   0.945762 0.618963 0.217044 -0.520423
O113  O     O_2   0.852956 0.459094 0.017250 -0.258396
O114  O     O_2   0.929628 0.401828 0.098213 -0.199544
O115  O     O_3   0.861171 0.416254 0.128526 -0.454515
O116  O     O_2   0.429105 0.097602 0.097562 -0.209778
O117  O     O_R   0.947440 0.500000 0.540340 -0.623444
O118  O     O_2   0.352489 0.040068 0.016731 -0.300170
O119  O     O_3   0.360972 0.083049 0.128452 -0.500182
O120  O     O_2   0.407441 0.911446 0.072849 -0.227313
O121  O     O_2   0.517212 0.889557 0.190111 -0.243456
O122  O     O_3   0.445663 0.880551 0.216588 -0.467591
O123  O     O_2   0.151973 0.519909 0.990701 -0.323641
O124  O     O_2   0.130833 0.443855 0.966957 -0.295859
O125  O     O_3   0.182736 0.478299 0.920969 -0.448267
O126  O     O_2   0.632634 0.055780 0.966108 -0.280878
O127  O     O_2   0.650157 0.979564 0.992074 -0.380096
O128  O     O_R   0.552480 0.000000 0.645470 -0.553788
O129  O     O_3   0.684027 0.017190 0.922903 -0.455782
O130  O     O_2   0.343508 0.809893 0.355337 -0.207168
O131  O     O_2   0.376185 0.808521 0.277903 -0.238872
O132  O     O_3   0.321509 0.742210 0.269341 -0.483017
O133  O     O_2   0.451942 0.190155 0.303178 -0.259362
O134  O     O_2   0.362734 0.190787 0.286979 -0.247204
O135  O     O_3   0.383117 0.257578 0.239880 -0.519384
O136  O     O_2   0.864534 0.310019 0.287110 -0.203483
O137  O     O_2   0.953564 0.309443 0.303317 -0.274233
O138  O     O_3   0.883064 0.242869 0.239116 -0.470717
S1    S     S_3+6 0.800753 0.545501 0.681927 0.054783
S2    S     S_3+6 0.899011 0.436563 0.104182 0.114839
S3    S     S_3+6 0.398389 0.062859 0.103372 0.090461
S4    S     S_3+6 0.463453 0.909477 0.170911 0.099088
S5    S     S_3+6 0.132387 0.483652 0.930768 0.068213
S6    S     S_3+6 0.632743 0.014807 0.931406 0.043582
S7    S     S_3+6 0.369921 0.782888 0.330381 0.093770
S8    S     S_3+6 0.414156 0.216744 0.309727 0.071703
S9    S     S_3+6 0.915445 0.283364 0.309943 0.088895
S10   S     S_3+6 0.869282 0.717134 0.332188 0.068081
S11   S     S_3+6 0.581850 0.926209 0.782921 0.128400
S12   S     S_3+6 0.793640 0.405935 0.796132 0.135023
S13   S     S_3+6 0.545189 0.085454 0.744120 0.113888
S14   S     S_3+6 0.042472 0.413914 0.741521 0.113252
S15   S     S_3+6 0.084774 0.572416 0.786451 0.116979
S16   S     S_3+6 0.530224 0.782895 0.663877 0.127507
S17   S     S_3+6 0.450896 0.218183 0.580181 0.119082
S18   S     S_3+6 0.949368 0.281665 0.578052 0.121181
S19   S     S_3+6 0.032691 0.717003 0.665859 0.114491
S20   S     S_3+6 0.631471 0.716367 0.669806 0.092869
S21   S     S_3+6 0.587995 0.283891 0.692880 0.106785
S22   S     S_3+6 0.086765 0.216012 0.692643 0.097333
S23   S     S_3+6 0.293368 0.094049 0.797474 0.124777
S24   S     S_3+6 0.132170 0.783606 0.668233 0.096215
S25   S     S_3+6 0.300420 0.956075 0.680090 0.075989
S26   S     S_3+6 0.702763 0.452050 0.582842 0.142072
S27   S     S_3+6 0.202987 0.048715 0.583723 0.128986
S28   S     S_3+6 0.129974 0.476322 0.331114 0.016333
S29   S     S_3+6 0.629795 0.024133 0.331015 0.016514
S30   S     S_3+6 0.962579 0.590291 0.169913 0.074020
Zn1   Zn    Zn3+2 0.499970 0.500000 0.429830 1.101580
Zn2   Zn    Zn3+2 0.000000 0.453550 0.999940 1.193621
Zn3   Zn    Zn3+2 0.500000 0.046450 0.999940 1.195050
Zn4   Zn    Zn3+2 0.500000 0.953550 0.999940 1.155656
Zn5   Zn    Zn3+2 0.999970 0.000000 0.429830 1.096065
Zn6   Zn    Zn3+2 0.500040 0.500000 0.570170 1.059284
Zn7   Zn    Zn3+2 0.000040 0.000000 0.570170 1.057035
Zn8   Zn    Zn3+2 0.429870 0.000000 0.429720 1.094516
Zn9   Zn    Zn3+2 0.929870 0.500000 0.429720 1.089803
Zn10  Zn    Zn3+2 0.570140 0.000000 0.570120 1.134227
Zn11  Zn    Zn3+2 0.070140 0.500000 0.570120 1.135821
Zn12  Zn    Zn3+2 0.000000 0.546450 0.999940 1.159183

loop_
_geom_bond_atom_site_label_1
_geom_bond_atom_site_label_2
_ccdc_geom_bond_type
O113  S2    D    
C63   C65   S    
C74   O69   A    
C87   C91   S    
C1    C77   S    
C88   S1    S    
O54   Zn4   S    
C134  S9    S    
C13   C60   S    
C9    S6    S    
C18   H56   S    
O87   S12   D    
C3    C131  S    
O132  S7    S    
C84   C86   S    
C86   C88   S    
C58   H4    S    
C76   H17   S    
C49   C78   S    
C85   H19   S    
C107  O117  A    
C114  O56   A    
O23   S17   D    
C84   H18   S    
H46   O129  S    
O82   Zn9   S    
C91   S25   S    
O50   Zn12  S    
C44   S16   S    
O69   Zn7   S    
C36   C71   S    
O71   Zn5   S    
C23   C46   S    
C36   C133  S    
C34   C60   S    
O25   S17   S    
O79   Zn8   S    
C28   C73   S    
O128  Zn10  S    
O85   S1    D    
C33   C102  S    
C82   H66   S    
C66   H7    S    
O7    S11   D    
C73   O64   A    
C97   O77   A    
C64   C66   S    
C21   C132  S    
O77   Zn10  S    
C1    O59   A    
C55   C126  S    
C65   C68   S    
C38   H2    S    
C132  S7    S    
O9    S13   D    
C94   C96   S    
O96   S25   S    
C81   C90   S    
O92   S23   S    
C6    S14   S    
C37   H72   S    
O35   Zn3   S    
H49   O138  S    
O4    S10   D    
C118  C136  S    
H52   O11   S    
O81   Zn9   S    
O107  S29   D    
C81   H22   S    
O63   Zn1   S    
O45   Zn4   S    
C7    S15   S    
O29   S19   D    
C2    C47   S    
C83   C91   S    
O53   Zn3   S    
C99   O62   A    
C59   C63   S    
C23   C41   S    
O22   S17   D    
C118  C129  S    
C91   C94   S    
C6    C12   S    
O111  S30   D    
C3    C98   S    
C24   S21   S    
C118  H35   S    
C110  O46   A    
O86   S1    S    
O3    S10   D    
O43   S24   D    
C11   C113  S    
C117  C128  S    
C127  C131  S    
C121  C123  S    
C60   H64   S    
C19   C106  S    
C58   C67   S    
C22   C45   S    
C126  C134  S    
C8    C10   S    
C43   C47   S    
C41   C51   S    
C13   C44   S    
O11   S13   S    
O38   S21   S    
O109  S29   S    
C72   O67   A    
O20   S16   D    
H25   O86   S    
H62   O41   S    
C57   C66   S    
O27   S18   D    
C4    S11   S    
O30   S19   D    
C7    C8    S    
C107  O2    A    
O26   S18   D    
O40   S22   D    
H59   O31   S    
C76   C78   S    
C127  S2    S    
H28   O96   S    
C116  O58   A    
O124  S5    D    
C79   C84   S    
C65   C69   S    
O12   S14   D    
C53   C104  S    
O78   Zn11  S    
C69   C76   S    
C61   C63   S    
O76   Zn9   S    
C118  C122  S    
O93   S25   D    
O133  S8    D    
C58   C77   S    
C112  O50   A    
C122  S29   S    
C63   H70   S    
C62   C64   S    
O16   S15   D    
C34   H67   S    
C32   C55   T    
O34   S20   S    
O47   Zn2   S    
O120  S4    D    
C102  O95   A    
O17   S15   D    
C11   C15   S    
C103  O72   A    
C25   C135  S    
C59   C78   S    
C35   C82   S    
C95   C103  S    
C119  C121  S    
C22   C133  S    
C1    O1    A    
C34   C39   S    
C10   C14   S    
O84   Zn11  S    
C29   C74   S    
O125  S5    S    
O95   Zn11  S    
C117  C122  S    
O28   S18   S    
C5    C9    S    
C89   S12   S    
C21   C44   S    
C125  C131  S    
O90   S23   D    
C123  C127  S    
H30   O102  S    
H55   O21   S    
O52   Zn2   S    
C80   C95   S    
C75   C77   S    
O36   S21   D    
O55   Zn12  S    
C3    C119  S    
O33   S20   D    
C94   S27   S    
O102  S27   S    
C67   C75   S    
C122  C124  S    
C120  C121  S    
C129  C130  S    
C108  O24   A    
C49   O60   A    
H51   O8    S    
C23   C134  S    
H54   O18   S    
H32   O109  S    
O51   Zn5   S    
O119  S3    S    
C68   C76   S    
C100  O80   A    
O116  S3    D    
O112  S30   S    
C25   H15   S    
C90   S23   S    
O127  S6    D    
C2    C56   S    
C112  O52   A    
C108  O13   A    
C49   O51   A    
O65   Zn5   S    
C83   C96   S    
C38   C93   S    
O98   S26   D    
C113  O54   A    
C101  O84   A    
C31   C54   T    
C37   C41   S    
C35   C41   S    
O136  S9    D    
C27   C72   S    
C17   H45   S    
H63   O44   S    
O37   S21   D    
C42   C52   S    
O21   S16   S    
O19   S16   D    
C32   C101  S    
C103  O70   A    
C4    C9    S    
C60   C104  S    
C120  H37   S    
C81   C85   S    
O105  S28   S    
O83   S1    D    
C58   C62   S    
C96   C105  S    
C13   S20   S    
C70   O66   A    
C80   C84   S    
C101  O81   A    
O123  S5    D    
C92   S26   S    
O94   S25   D    
O58   Zn4   S    
C97   O75   A    
O62   Zn10  S    
C28   C51   T    
C98   O76   A    
C123  C125  S    
C73   O68   A    
H50   O5    S    
O89   S12   S    
C57   H3    S    
C80   C89   S    
C14   C18   S    
C82   C126  S    
C130  H42   S    
H47   O132  S    
C83   H24   S    
O126  S6    D    
C16   C17   S    
C100  O73   A    
C72   O63   A    
C10   C112  S    
C25   C47   S    
C26   C48   T    
C124  C128  S    
C33   C56   T    
O8    S11   S    
C22   H13   S    
C69   H10   S    
C67   H8    S    
H57   O25   S    
C79   C88   S    
C90   C94   S    
H29   O99   S    
C120  C127  S    
C57   C77   S    
O59   Zn6   S    
O24   Zn2   S    
O68   Zn7   S    
O1    Zn1   S    
C81   C96   S    
C70   O61   A    
C6    C8    S    
C115  C133  S    
H60   O34   S    
C128  S3    S    
C114  O55   A    
C15   H23   S    
O61   Zn1   S    
C11   C16   S    
C110  O47   A    
C54   C115  S    
O118  S3    D    
C105  O74   A    
C38   C135  S    
C87   C116  S    
O31   S19   S    
H26   O89   S    
C119  C125  S    
C83   C85   S    
C23   H14   S    
O137  S9    D    
C26   C70   S    
O39   S22   D    
C42   C43   S    
C108  C123  S    
O138  S9    S    
O14   S14   D    
C27   C50   T    
C111  O48   A    
C15   C17   S    
C2    C135  S    
H38   O112  S    
C86   C89   S    
C128  C130  S    
C25   C42   S    
O114  S2    D    
C5    C19   S    
C99   O79   A    
O41   S22   S    
C6    C20   S    
C74   O65   A    
O99   S26   S    
O80   Zn8   S    
O49   Zn4   S    
H27   O92   S    
C8    S5    S    
C40   C50   S    
C66   C75   S    
C109  O45   A    
O115  S2    S    
O57   Zn3   S    
C124  C129  S    
O101  S27   D    
C16   H34   S    
O15   S14   S    
O117  Zn9   S    
C7    C20   S    
C104  C132  S    
C87   C90   S    
C117  C136  S    
C111  O49   A    
O91   S23   D    
C68   H9    S    
C39   C48   S    
O106  Zn8   S    
O13   Zn12  S    
O122  S4    S    
C44   C104  S    
C57   C62   S    
O42   S24   D    
O5    S10   S    
C79   C95   S    
C24   C45   S    
C21   H11   S    
C61   C78   S    
C38   C42   S    
O10   S13   D    
C109  O35   A    
O44   S24   S    
C14   H12   S    
H61   O38   S    
C133  S8    S    
O108  S29   D    
O75   Zn8   S    
O134  S8    D    
C93   H68   S    
H41   O122  S    
C65   C111  S    
C125  S30   S    
C24   C40   S    
C79   H20   S    
C4    C19   S    
C7    C14   S    
C88   C92   S    
O60   Zn7   S    
C5    C16   S    
O64   Zn5   S    
C62   H69   S    
O110  S30   D    
O46   Zn12  S    
C119  H36   S    
C102  O82   A    
C20   C107  S    
O100  S27   D    
C34   C132  S    
O72   Zn6   S    
O6    S11   D    
O18   S15   S    
O121  S4    D    
O73   Zn10  S    
C43   C93   S    
C85   C87   S    
C106  O128  A    
C30   C53   T    
H31   O105  S    
C64   C67   S    
C36   C40   S    
C116  O57   A    
O129  S6    S    
C131  H43   S    
C31   C100  S    
C30   C99   S    
C92   C95   S    
C35   S22   S    
C45   S17   S    
C129  S4    S    
C36   H71   S    
C5    S13   S    
C117  H33   S    
C59   C68   S    
C45   C115  S    
C64   C110  S    
C21   C39   S    
C75   H16   S    
C22   C40   S    
C71   C115  S    
C113  O53   A    
C89   C92   S    
C9    C11   S    
O67   Zn6   S    
C59   H5    S    
C10   C12   S    
H39   O115  S    
C43   S24   S    
O131  S7    D    
C105  O71   A    
O130  S7    D    
C106  O106  A    
O70   Zn1   S    
C61   C69   S    
C71   H65   S    
H48   O135  S    
O2    Zn11  S    
C37   C134  S    
O104  S28   D    
C46   C126  S    
C2    C93   S    
C130  C136  S    
H58   O28   S    
C46   S18   S    
H53   O15   S    
C109  C124  S    
C35   C46   S    
O32   S20   D    
C86   C114  S    
O135  S8    S    
C4    C15   S    
O66   Zn6   S    
O56   Zn2   S    
C80   H21   S    
C121  S28   S    
C17   C19   S    
C18   C20   S    
O74   Zn7   S    
C37   C82   S    
C13   C39   S    
O48   Zn3   S    
C3    C120  S    
H40   O119  S    
O88   S12   D    
H44   O125  S    
C61   H6    S    
O97   S26   D    
C135  S10   S    
C12   C18   S    
C12   H1    S    
C97   C136  S    
C47   S19   S    
C29   C52   T    
C98   O78   A    
C24   C71   S    
O103  S28   D    
