data_mof_unit_12666.cif
_audit_creation_date              2012-12-10T17:40:27-0500
_audit_creation_method            fapswitch 2.2
_symmetry_space_group_name_H-M    P1
_symmetry_Int_Tables_number       1
_space_group_crystal_system       triclinic
_cell_length_a                    13.77926
_cell_length_b                    15.025482
_cell_length_c                    15.821955
_cell_angle_alpha                 88.534694
_cell_angle_beta                  70.47693
_cell_angle_gamma                 89.603402
_cell_volume                      3086.42945426

loop_
_atom_site_label
_atom_site_type_symbol
_atom_type_description
_atom_site_fract_x
_atom_site_fract_y
_atom_site_fract_z
_atom_type_partial_charge
C1    C     C_R   0.500613 0.671079 0.498423 0.850685
C2    C     C_R   0.499176 0.328870 0.502491 0.874208
C3    C     C_R   0.378578 0.536783 0.093113 -0.292504
C4    C     C_R   0.625533 0.520800 0.903955 -0.298039
C5    C     C_R   0.305576 0.538070 0.049440 0.409224
C6    C     C_R   0.698178 0.514875 0.947728 0.426152
C7    C     C_R   0.492020 0.183339 0.582515 0.394673
C8    C     C_R   0.509896 0.816536 0.417186 0.384360
C9    C     C_R   0.498468 0.232273 0.503791 -0.147578
C10   C     C_R   0.503156 0.767616 0.496219 -0.163485
C11   C     C_R   0.501062 0.189362 0.425890 -0.335128
C12   C     C_R   0.505853 0.810608 0.572576 -0.318264
C13   C     C_R   0.501705 0.096764 0.423911 0.123267
C14   C     C_R   0.508486 0.903183 0.573528 0.122785
C15   C     C_R   0.503594 0.046707 0.500036 0.024912
C16   C     C_R   0.506167 0.953223 0.497547 0.018517
C17   C     C_R   0.502117 0.089965 0.578817 0.006017
C18   C     C_R   0.506123 0.909911 0.419238 0.021556
C19   C     C_R   0.501436 0.053529 0.346693 -0.214384
C20   C     C_R   0.512521 0.946456 0.649550 -0.203782
C21   C     C_R   0.502998 0.960928 0.344497 -0.198973
C22   C     C_R   0.510462 0.039036 0.651876 -0.213593
C23   C     C_R   0.437578 0.501031 0.672088 0.801106
C24   C     C_R   0.562455 0.499413 0.327903 0.789085
C25   C     C_R   0.226829 0.559621 0.445231 0.072514
C26   C     C_R   0.773062 0.440298 0.554697 0.075421
C27   C     C_R   0.186491 0.441134 0.553575 0.017835
C28   C     C_R   0.813435 0.558834 0.446332 0.022451
C29   C     C_R   0.084346 0.438917 0.553196 -0.027298
C30   C     C_R   0.915474 0.561107 0.446891 -0.037607
C31   C     C_R   0.051633 0.500975 0.500107 0.024088
C32   C     C_R   0.948022 0.499365 0.500385 0.019806
C33   C     C_R   0.122525 0.564300 0.446655 -0.149163
C34   C     C_R   0.877182 0.435915 0.553661 -0.122376
C35   C     C_R   0.015096 0.374787 0.604191 -0.306106
C36   C     C_R   0.984987 0.624572 0.395147 -0.277270
C37   C     C_R   0.913627 0.370844 0.603376 0.404795
C38   C     C_R   0.086037 0.629114 0.396589 0.447081
C39   C     C_R   0.400804 0.506494 0.770167 -0.051579
C40   C     C_R   0.599515 0.502062 0.229538 -0.062217
C41   C     C_R   0.265053 0.527753 0.911614 -0.161331
C42   C     C_R   0.737250 0.510392 0.086872 -0.181772
C43   C     C_R   0.296438 0.517826 0.819112 -0.220522
C44   C     C_R   0.704720 0.505888 0.180128 -0.242450
C45   C     C_R   0.472798 0.503929 0.814594 -0.200211
C46   C     C_R   0.527573 0.504224 0.184977 -0.200122
C47   C     C_R   0.444154 0.517762 0.907074 0.045028
C48   C     C_R   0.557966 0.514407 0.091359 0.049641
C49   C     C_R   0.337846 0.528011 0.956397 0.066497
C50   C     C_R   0.664957 0.513532 0.041615 0.069134
C51   C     C_R   0.518388 0.519547 0.951543 0.004790
C52   C     C_R   0.484457 0.522451 0.046346 -0.000074
Cu1   Cu    Cu3+1 0.402580 0.500010 0.499990 0.941670
Cu2   Cu    Cu3+1 0.597420 0.499990 0.500010 0.942218
H1    H     H_    0.211163 0.394518 0.595449 0.128263
H2    H     H_    0.788770 0.605336 0.404176 0.119556
H3    H     H_    0.040270 0.325748 0.643778 0.147575
H4    H     H_    0.960415 0.672359 0.353965 0.144134
H5    H     H_    0.447749 0.495569 0.224796 0.148175
H6    H     H_    0.551123 0.489384 0.775396 0.155943
H7    H     H_    0.761860 0.504874 0.213383 0.161272
H8    H     H_    0.239169 0.519363 0.786001 0.164460
H9    H     H_    0.183606 0.535579 0.947819 0.175948
H10   H     H_    0.819220 0.511560 0.050439 0.175892
H11   H     H_    0.350390 0.551565 0.163422 0.164521
H12   H     H_    0.656404 0.529547 0.832139 0.150509
H13   H     H_    0.502531 0.228458 0.366839 0.153883
H14   H     H_    0.505178 0.771611 0.631467 0.157674
H15   H     H_    0.499675 0.091388 0.287995 0.144373
H16   H     H_    0.516496 0.908641 0.707552 0.145940
H17   H     H_    0.501616 0.929553 0.284074 0.184667
H18   H     H_    0.514381 0.070504 0.711466 0.170815
N1    N     N_R   0.256170 0.500070 0.500040 -0.208555
N2    N     N_R   0.743830 0.499930 0.499960 -0.211145
O1    O     O_R   0.417730 0.629750 0.499970 -0.567727
O2    O     O_R   0.582270 0.370250 0.500030 -0.571105
O3    O     O_R   0.582270 0.629730 0.499980 -0.600123
O4    O     O_R   0.417730 0.370270 0.500020 -0.602800
O5    O     O_R   0.371590 0.500020 0.629830 -0.599476
O6    O     O_R   0.628410 0.499980 0.370170 -0.596584
O7    O     O_R   0.536130 0.499990 0.629840 -0.585604
O8    O     O_R   0.463870 0.500010 0.370160 -0.588156
O9    O     O_3   0.203046 0.556134 0.096347 -0.604796
C53   C     C_3   0.159654 0.485556 0.157942 0.057717
H19   H     H_    0.184902 0.489988 0.217582 0.151598
H20   H     H_    0.181820 0.419348 0.126712 0.125871
C54   C     C_3   0.042350 0.493172 0.188809 -0.314287
H21   H     H_    0.018656 0.559081 0.219209 0.233574
H22   H     H_    0.015917 0.488349 0.129933 0.208251
C55   C     C_3   0.990708 0.419869 0.257370 -0.927989
H23   H     H_    0.008949 0.353532 0.226582 0.252984
H24   H     H_    0.905911 0.429217 0.280783 0.258449
H25   H     H_    0.017461 0.422217 0.316154 0.263308
O10   O     O_3   0.802640 0.516274 0.898596 -0.624653
C56   C     C_3   0.831975 0.436397 0.850756 0.067289
H26   H     H_    0.904745 0.449913 0.794596 0.178672
H27   H     H_    0.775382 0.413849 0.819309 0.160541
C57   C     C_3   0.852105 0.362013 0.911042 -0.385926
H28   H     H_    0.914194 0.383157 0.936492 0.219209
H29   H     H_    0.781263 0.348989 0.969370 0.216225
C58   C     C_3   0.883890 0.275786 0.860210 -0.862203
H30   H     H_    0.821313 0.252053 0.836738 0.275333
H31   H     H_    0.899219 0.223778 0.905236 0.245432
H32   H     H_    0.954905 0.286261 0.801657 0.257434
C59   C     C_1   0.304406 0.613280 0.380906 0.368658
N3    N     N_1   0.365673 0.656219 0.327952 -0.235790
C60   C     C_1   0.695474 0.385883 0.618097 0.382324
N4    N     N_1   0.633946 0.342437 0.670223 -0.251514
O11   O     O_3   0.850963 0.303318 0.653118 -0.631189
C61   C     C_3   0.866278 0.226867 0.599993 0.048490
H33   H     H_    0.947102 0.202757 0.582809 0.144921
H34   H     H_    0.849238 0.241670 0.536928 0.141762
C62   C     C_3   0.793726 0.152955 0.652747 -0.316574
H35   H     H_    0.812294 0.135301 0.714259 0.214651
H36   H     H_    0.712856 0.176760 0.673368 0.250575
C63   C     C_3   0.803101 0.069990 0.596907 -0.915496
H37   H     H_    0.782404 0.085715 0.536076 0.261760
H38   H     H_    0.749768 0.017732 0.637271 0.263234
H39   H     H_    0.882951 0.043777 0.576588 0.254485
O12   O     O_3   0.148048 0.697107 0.346917 -0.610163
C64   C     C_3   0.143071 0.771023 0.402194 0.068587
H40   H     H_    0.220140 0.803276 0.378965 0.188518
H41   H     H_    0.126901 0.752366 0.474443 0.119721
C65   C     C_3   0.063800 0.838955 0.392417 -0.349650
H42   H     H_    0.079122 0.855022 0.320148 0.235271
H43   H     H_    0.985120 0.810450 0.421126 0.210177
C66   C     C_3   0.068134 0.924545 0.440951 -0.921099
H44   H     H_    0.050874 0.910301 0.513751 0.257643
H45   H     H_    0.010101 0.972317 0.432358 0.255349
H46   H     H_    0.145563 0.955666 0.412729 0.260231
O13   O     O_3   0.479323 0.228001 0.661138 -0.612735
C67   C     C_3   0.378652 0.213901 0.723241 0.027236
H47   H     H_    0.381243 0.228856 0.790861 0.178678
H48   H     H_    0.351659 0.143807 0.726921 0.136673
C68   C     C_3   0.300347 0.275949 0.702745 -0.355651
H49   H     H_    0.329585 0.344935 0.695319 0.240334
H50   H     H_    0.289958 0.256766 0.638962 0.207263
C69   C     C_3   0.196148 0.272349 0.777531 -0.936789
H51   H     H_    0.163314 0.204129 0.785081 0.260204
H52   H     H_    0.142382 0.319363 0.760809 0.246916
H53   H     H_    0.204204 0.292170 0.842031 0.263477
O14   O     O_3   0.515288 0.773836 0.339177 -0.610733
C70   C     C_3   0.615925 0.740493 0.296806 0.068256
H54   H     H_    0.608299 0.680696 0.260009 0.183192
H55   H     H_    0.656035 0.718783 0.344401 0.120438
C71   C     C_3   0.682578 0.808475 0.228729 -0.377442
H56   H     H_    0.642451 0.830023 0.181328 0.231905
H57   H     H_    0.695460 0.867655 0.264323 0.216090
C72   C     C_3   0.786822 0.768762 0.175752 -0.893935
H58   H     H_    0.828704 0.747185 0.221783 0.246503
H59   H     H_    0.833923 0.819625 0.127580 0.260008
H60   H     H_    0.776333 0.710683 0.137568 0.267187

loop_
_geom_bond_atom_site_label_1
_geom_bond_atom_site_label_2
_ccdc_geom_bond_type
C70   C71   S    
C4    H12   S    
C54   H21   S    
C45   H6    S    
C58   H30   S    
C46   H5    S    
C27   C29   A    
C34   C37   A    
C1    O3    A    
C56   H26   S    
C53   C54   S    
C28   N2    A    
C28   H2    S    
C56   C57   S    
C25   C59   S    
C68   H49   S    
C47   C49   A    
C3    H11   S    
Cu1   Cu2   S    
C40   C46   A    
C12   H14   S    
C21   H17   S    
C19   C21   A    
C53   H20   S    
C62   H35   S    
C36   H4    S    
C72   H59   S    
C5    O9    S    
C27   H1    S    
C70   H54   S    
C18   C21   A    
C63   H37   S    
Cu1   O5    S    
C70   H55   S    
C22   H18   S    
C24   O8    A    
C61   H33   S    
C64   C65   S    
C26   N2    A    
Cu2   N2    S    
C24   O6    A    
O9    C53   S    
C67   H47   S    
C7    C17   A    
C60   N4    T    
C31   C33   A    
Cu2   O6    S    
C39   C45   A    
C62   C63   S    
C38   O12   S    
C48   C50   A    
C58   H31   S    
C26   C34   A    
C41   C43   A    
C20   H16   S    
Cu1   O1    S    
C42   C44   A    
C41   C49   A    
C11   H13   S    
C71   H57   S    
C45   C47   A    
C46   C48   A    
C64   H41   S    
C15   C16   A    
C13   C19   A    
C4    C51   A    
C51   C52   A    
C1    O1    A    
C14   C20   A    
C53   H19   S    
C4    C6    A    
C72   H60   S    
C39   C43   A    
C6    O10   S    
C8    C18   A    
Cu1   O8    S    
C32   C34   A    
C66   H45   S    
C2    O4    A    
C71   C72   S    
C55   H24   S    
C31   C32   A    
C40   C44   A    
C16   C18   A    
C6    C50   A    
C9    C11   A    
C61   C62   S    
C64   H40   S    
C68   C69   S    
C10   C12   A    
C42   C50   A    
C65   C66   S    
Cu2   O2    S    
C8    C10   A    
C12   C14   A    
C58   H32   S    
C57   H29   S    
C13   C15   A    
C14   C16   A    
C19   H15   S    
C41   H9    S    
O13   C67   S    
C42   H10   S    
C2    O2    A    
O12   C64   S    
C55   H25   S    
C65   H43   S    
C71   H56   S    
C68   H50   S    
C23   O7    A    
C35   C37   A    
C37   O11   S    
Cu1   N1    S    
C1    C10   S    
C17   C22   A    
C20   C22   A    
C3    C5    A    
C69   H53   S    
C26   C60   S    
C47   C51   A    
C3    C52   A    
C56   H27   S    
C15   C17   A    
C69   H52   S    
C44   H7    S    
C57   C58   S    
C59   N3    T    
C29   C35   A    
C33   C38   A    
C63   H39   S    
C30   C36   A    
C35   H3    S    
Cu2   O3    S    
C28   C30   A    
Cu1   O4    S    
C66   H46   S    
C7    O13   S    
C29   C31   A    
C72   H58   S    
C30   C32   A    
C11   C13   A    
C55   H23   S    
C67   C68   S    
C23   C39   S    
C36   C38   A    
C24   C40   S    
C63   H38   S    
C25   N1    A    
O10   C56   S    
C61   H34   S    
C5    C49   A    
C69   H51   S    
C7    C9    A    
C48   C52   A    
C67   H48   S    
C57   H28   S    
C54   C55   S    
O11   C61   S    
C54   H22   S    
O14   C70   S    
C8    O14   S    
C23   O5    A    
C27   N1    A    
C2    C9    S    
Cu2   O7    S    
C66   H44   S    
C43   H8    S    
C25   C33   A    
C65   H42   S    
C62   H36   S    
