data_mof_unit_40858.cif
_audit_creation_date              2012-10-26T19:10:52-0400
_audit_creation_method            fapswitch 2.2
_symmetry_space_group_name_H-M    P1
_symmetry_Int_Tables_number       1
_space_group_crystal_system       triclinic
_cell_length_a                    10.742657
_cell_length_b                    9.555784
_cell_length_c                    23.458417
_cell_angle_alpha                 89.87474
_cell_angle_beta                  90.536445
_cell_angle_gamma                 89.920614
_cell_volume                      2407.99861709

loop_
_atom_site_label
_atom_site_type_symbol
_atom_type_description
_atom_site_fract_x
_atom_site_fract_y
_atom_site_fract_z
_atom_type_partial_charge
C1    C     C_R   0.260255 0.500075 0.498042 0.541101
C2    C     C_R   0.547319 0.380412 0.120315 0.406954
C3    C     C_R   0.591590 0.513841 0.236463 -0.023821
C4    C     C_R   0.499458 0.499694 0.391489 0.526387
C5    C     C_R   0.602144 0.521331 0.296033 -0.053692
C6    C     C_R   0.495196 0.496528 0.329256 -0.022219
C7    C     C_R   0.383119 0.457186 0.302931 -0.093222
C8    C     C_R   0.374833 0.446837 0.243894 -0.025710
C9    C     C_R   0.478513 0.476584 0.210273 0.196248
C10   C     C_R   0.436780 0.363753 0.757198 0.182448
C11   C     C_R   0.446753 0.373866 0.697928 -0.121859
C12   C     C_R   0.278898 0.622319 0.971557 0.000665
C13   C     C_R   0.492540 0.495940 0.671886 0.019860
C14   C     C_R   0.528007 0.610588 0.706421 0.103013
C15   C     C_R   0.516396 0.600571 0.765706 -0.080192
C16   C     C_R   0.739453 0.499958 0.498432 0.527744
C17   C     C_R   0.471653 0.478186 0.791161 0.239479
C18   C     C_3   0.069862 0.638200 0.468954 -0.110086
C19   C     C_3   0.072154 0.493013 0.559616 -0.089364
C20   C     C_3   0.926279 0.640085 0.472508 -0.212144
C21   C     C_3   0.928303 0.483062 0.558878 -0.239326
C22   C     C_3   0.070124 0.372738 0.462778 -0.248371
C23   C     C_R   0.287600 0.626783 0.031127 -0.139788
C24   C     C_3   0.121705 0.500083 0.497065 -0.014467
C25   C     C_3   0.877449 0.500135 0.497404 0.008400
C26   C     C_3   0.926968 0.378130 0.460209 -0.235241
C27   C     C_3   0.606929 0.082720 0.534733 -0.114900
C28   C     C_3   0.614318 0.917423 0.528876 -0.128306
C29   C     C_3   0.388229 0.082371 0.529750 -0.163413
C30   C     C_3   0.396306 0.917196 0.535647 -0.159843
C31   C     C_3   0.504736 0.085515 0.440771 0.272364
C32   C     C_3   0.491890 0.915082 0.440817 0.260437
C33   C     C_R   0.499369 0.499653 0.608997 0.591400
C34   C     C_R   0.376603 0.547298 0.060889 0.020861
C35   C     C_R   0.545835 0.385932 0.881150 0.430067
C36   C     C_R   0.378015 0.550380 0.879924 0.422084
C37   C     C_R   0.368376 0.544538 0.940088 0.034497
C38   C     C_R   0.456109 0.461138 0.970357 -0.046577
C39   C     C_R   0.543345 0.379139 0.940642 0.030549
C40   C     C_2   0.170603 0.695443 0.945705 0.292462
C41   C     C_3   0.712925 0.726374 0.675146 -0.298283
C42   C     C_2   0.111669 0.658818 0.408023 0.262838
C43   C     C_2   0.127157 0.374194 0.594376 0.228535
C44   C     C_2   0.395273 0.146495 0.404989 0.243127
C45   C     C_R   0.458715 0.461241 0.030603 -0.029844
C46   C     C_2   0.364768 0.868011 0.415235 0.369455
C47   C     C_3   0.654763 0.193730 0.362759 -0.233272
C48   C     C_3   0.598325 0.870467 0.344329 -0.228638
C49   C     C_2   0.724162 0.554825 0.322942 0.191142
C50   C     C_3   0.447086 0.111523 0.770688 -0.284588
C51   C     C_R   0.545125 0.376879 0.060554 0.035871
C52   C     C_R   0.628062 0.292149 0.030255 -0.114028
C53   C     C_R   0.627756 0.293994 0.970948 -0.114753
C54   C     C_R   0.384923 0.551207 0.120652 0.411915
Cu1   Cu    Cu3+1 0.499860 0.642410 0.500030 0.918948
Cu2   Cu    Cu3+1 0.499860 0.357590 0.500030 0.897581
H1    H     H_    0.416188 0.286552 0.672031 0.149659
H2    H     H_    0.099882 0.272531 0.482815 0.113824
H3    H     H_    0.895785 0.392735 0.415244 0.132755
H4    H     H_    0.889725 0.275956 0.475161 0.128190
H5    H     H_    0.597369 0.109867 0.580648 0.109654
H6    H     H_    0.627418 0.870584 0.571816 0.144422
H7    H     H_    0.220988 0.689323 0.054463 0.162671
H8    H     H_    0.696849 0.130560 0.522944 0.123939
H9    H     H_    0.700101 0.889784 0.505690 0.097010
H10   H     H_    0.377646 0.129157 0.572823 0.143218
H11   H     H_    0.409777 0.889991 0.581499 0.144561
H12   H     H_    0.544728 0.687523 0.792390 0.127999
H13   H     H_    0.300918 0.109719 0.506854 0.072910
H14   H     H_    0.305443 0.869325 0.524983 0.103773
H15   H     H_    0.695014 0.225985 0.052233 0.174590
H16   H     H_    0.694654 0.229200 0.948947 0.172184
H17   H     H_    0.671274 0.536289 0.210017 0.191984
H18   H     H_    0.302105 0.433166 0.328280 0.121797
H19   H     H_    0.287707 0.415468 0.224208 0.163589
H20   H     H_    0.143447 0.797592 0.961520 0.099755
H21   H     H_    0.553516 0.824336 0.703301 0.239391
H22   H     H_    0.747110 0.824531 0.655389 0.120919
H23   H     H_    0.105192 0.729688 0.493567 0.111447
H24   H     H_    0.736556 0.637439 0.646954 0.155068
H25   H     H_    0.760441 0.712547 0.717101 0.161191
H26   H     H_    0.176916 0.587162 0.388601 0.127800
H27   H     H_    0.113192 0.266381 0.581476 0.094591
H28   H     H_    0.325988 0.212672 0.424166 0.132665
H29   H     H_    0.278898 0.900647 0.435021 0.067925
H30   H     H_    0.705325 0.078240 0.433978 0.230118
H31   H     H_    0.717741 0.126966 0.337307 0.131869
H32   H     H_    0.706093 0.291779 0.371443 0.141070
H33   H     H_    0.572254 0.218144 0.336457 0.208740
H34   H     H_    0.098355 0.592676 0.581265 0.144403
H35   H     H_    0.662813 0.796732 0.424095 0.267038
H36   H     H_    0.696516 0.879416 0.330502 0.144318
H37   H     H_    0.545182 0.961266 0.328446 0.221091
H38   H     H_    0.557604 0.777411 0.324018 0.200076
H39   H     H_    0.732981 0.560666 0.368871 0.092878
H40   H     H_    0.289689 0.236371 0.777199 0.274451
H41   H     H_    0.410991 0.028655 0.799336 0.169885
H42   H     H_    0.548961 0.121127 0.778114 0.197563
H43   H     H_    0.429193 0.079206 0.725907 0.107217
H44   H     H_    0.897810 0.728678 0.500296 0.106882
H45   H     H_    0.890245 0.566995 0.586374 0.100790
H46   H     H_    0.882419 0.659343 0.430091 0.157975
H47   H     H_    0.895550 0.381474 0.576668 0.117947
H48   H     H_    0.107654 0.371106 0.418806 0.114764
N1    N     N_R   0.463947 0.470070 0.852179 -0.385735
N2    N     N_R   0.469487 0.468597 0.149153 -0.398904
N3    N     N_3   0.500250 0.143650 0.501250 -0.251438
N4    N     N_3   0.500250 0.856350 0.501250 -0.264668
N5    N     N_2   0.579625 0.734104 0.682457 -0.511347
N6    N     N_2   0.627550 0.126117 0.416857 -0.465115
N7    N     N_2   0.594073 0.857662 0.406058 -0.489736
N8    N     N_2   0.384807 0.242421 0.782908 -0.478649
O1    O     O_R   0.317570 0.620260 0.500030 -0.521162
O2    O     O_2   0.305714 0.638367 0.849173 -0.446798
O3    O     O_2   0.310319 0.638454 0.149978 -0.470042
O4    O     O_2   0.626507 0.296184 0.149404 -0.487152
O5    O     O_2   0.105061 0.638001 0.910000 -0.427928
O6    O     O_2   0.075476 0.759831 0.380491 -0.459698
O7    O     O_2   0.186470 0.398533 0.637828 -0.520992
O8    O     O_2   0.379583 0.117904 0.354719 -0.537095
O9    O     O_2   0.355057 0.803646 0.370546 -0.456028
O10   O     O_2   0.816365 0.576152 0.294152 -0.474650
O11   O     O_R   0.317570 0.379740 0.500030 -0.528395
O12   O     O_R   0.499840 0.620290 0.417900 -0.460778
O13   O     O_R   0.499840 0.379710 0.417900 -0.505311
O14   O     O_R   0.682190 0.620260 0.500010 -0.539423
O15   O     O_R   0.682190 0.379740 0.500010 -0.502362
O16   O     O_R   0.499920 0.620230 0.582140 -0.462641
O17   O     O_R   0.499920 0.379770 0.582140 -0.514494
O18   O     O_2   0.631701 0.311721 0.852379 -0.498497

loop_
_geom_bond_atom_site_label_1
_geom_bond_atom_site_label_2
_ccdc_geom_bond_type
C8    C9    A    
C14   N5    S    
Cu1   Cu2   S    
C32   N7    S    
C43   H27   S    
C42   H26   S    
C36   O2    S    
C41   H24   S    
C7    C8    A    
C39   C53   A    
H40   N8    S    
C12   C23   A    
C50   H43   S    
C29   C30   S    
C48   H38   S    
C4    O13   A    
C3    C9    A    
C36   C37   A    
H30   N6    S    
C18   C42   S    
C38   C39   A    
C20   H46   S    
C20   C25   S    
C45   C51   A    
C10   C17   A    
C22   H48   S    
C4    O12   A    
Cu2   O15   S    
H35   N7    S    
C12   C37   A    
C38   C45   A    
C27   H5    S    
C2    O4    S    
C18   H23   S    
C48   H36   S    
C46   O9    D    
C10   N8    S    
C26   H3    S    
C18   C20   S    
Cu2   O17   S    
C46   H29   S    
C21   H45   S    
C23   H7    S    
C40   O5    D    
C41   N5    S    
C13   C14   A    
C47   H33   S    
C5    C49   S    
C1    O1    A    
C30   H14   S    
C19   C43   S    
C7    H18   S    
C29   H13   S    
C50   H42   S    
C31   C44   S    
C54   N2    A    
C51   C52   A    
Cu2   O11   S    
C4    C6    S    
C48   H37   S    
C41   H22   S    
C42   O6    D    
Cu1   O1    S    
C3    C5    A    
C9    N2    S    
C2    N2    A    
C33   O16   A    
C40   H20   S    
C47   H31   S    
C12   C40   S    
C35   C39   A    
C1    O11   A    
Cu2   N3    S    
C13   C33   S    
C37   C38   A    
C35   N1    A    
C17   N1    S    
C31   C32   S    
C20   H44   S    
Cu1   O14   S    
C27   N3    S    
C23   C34   A    
C41   H25   S    
C54   O3    S    
C50   N8    S    
C34   C45   A    
Cu2   O13   S    
C49   H39   S    
H21   N5    S    
C35   O18   S    
C34   C54   A    
C10   C11   A    
C22   C26   S    
C18   C24   S    
C49   O10   D    
C52   C53   A    
C33   O17   A    
C16   C25   S    
C15   C17   A    
C21   C25   S    
Cu1   O12   S    
C50   H41   S    
C32   C46   S    
C19   C21   S    
C36   N1    A    
C31   N3    S    
C30   H11   S    
C44   H28   S    
C22   H2    S    
C6    C7    A    
C47   N6    S    
C2    C51   A    
Cu1   N4    S    
C47   H32   S    
C28   H9    S    
C25   C26   S    
C19   H34   S    
C11   C13   A    
C5    C6    A    
C16   O14   A    
C28   N4    S    
C15   H12   S    
C31   N6    S    
C19   C24   S    
C22   C24   S    
C8    H19   S    
C3    H17   S    
C16   O15   A    
C27   H8    S    
C29   H10   S    
C21   H47   S    
C30   N4    S    
C48   N7    S    
Cu1   O16   S    
C1    C24   S    
C32   N4    S    
C27   C28   S    
C52   H15   S    
C44   O8    D    
C14   C15   A    
C29   N3    S    
C11   H1    S    
C53   H16   S    
C26   H4    S    
C43   O7    D    
C28   H6    S    
