data_mof_unit_57120.cif
_audit_creation_date              2012-12-11T14:10:41-0500
_audit_creation_method            fapswitch 2.2
_symmetry_space_group_name_H-M    P1
_symmetry_Int_Tables_number       1
_space_group_crystal_system       triclinic
_cell_length_a                    19.85245
_cell_length_b                    17.212406
_cell_length_c                    15.503842
_cell_angle_alpha                 89.810804
_cell_angle_beta                  52.032528
_cell_angle_gamma                 89.584551
_cell_volume                      4176.45497545

loop_
_atom_site_label
_atom_site_type_symbol
_atom_type_description
_atom_site_fract_x
_atom_site_fract_y
_atom_site_fract_z
_atom_type_partial_charge
C1    C     C_R   0.377041 0.198008 0.991874 -0.112787
C2    C     C_R   0.622987 0.802018 0.008133 -0.114767
C3    C     C_R   0.663155 0.170154 0.942502 -0.115333
C4    C     C_R   0.336795 0.829904 0.057784 -0.086854
C5    C     C_R   0.838667 0.674885 0.050509 -0.081719
C6    C     C_R   0.161402 0.325192 0.949446 -0.081634
C7    C     C_R   0.135065 0.693295 0.991240 -0.128594
C8    C     C_R   0.862768 0.307686 0.011528 -0.120212
C9    C     C_3   0.211392 0.193044 0.583166 -0.529070
C10   C     C_3   0.789657 0.807561 0.416150 -0.530024
C11   C     C_3   0.695697 0.244399 0.436061 -0.548017
C12   C     C_3   0.305495 0.754677 0.563487 -0.572097
C13   C     C_3   0.816446 0.751139 0.558681 -0.505620
C14   C     C_3   0.182632 0.248110 0.441955 -0.510608
C15   C     C_3   0.306463 0.684614 0.404047 -0.559220
C16   C     C_3   0.692376 0.316195 0.596349 -0.529672
C17   C     C_2   0.232400 0.728413 0.032873 -0.048915
C18   C     C_2   0.762321 0.275221 0.974584 -0.023117
C19   C     C_2   0.703911 0.681121 0.062511 0.007307
C20   C     C_2   0.296151 0.319047 0.937494 0.007389
C21   C     C_2   0.778026 0.197755 0.954380 -0.047285
C22   C     C_2   0.218313 0.806246 0.051199 -0.012299
C23   C     C_2   0.322276 0.248499 0.888810 0.021570
C24   C     C_2   0.677820 0.751662 0.111159 0.022827
C25   C     C_R   0.397541 0.800594 0.209099 -0.202516
C26   C     C_R   0.602286 0.199455 0.791005 -0.222525
C27   C     C_R   0.653502 0.830166 0.780042 -0.219512
C28   C     C_R   0.346420 0.169733 0.219979 -0.221390
C29   C     C_R   0.849247 0.327483 0.222361 -0.185137
C30   C     C_R   0.150929 0.672317 0.777635 -0.173271
C31   C     C_R   0.107049 0.301375 0.788539 -0.248488
C32   C     C_R   0.893106 0.698655 0.211393 -0.254321
C33   C     C_R   0.328777 0.913213 0.954310 -0.139694
C34   C     C_R   0.670025 0.088340 0.048290 -0.130953
C35   C     C_R   0.630395 0.888096 0.107017 -0.139230
C36   C     C_R   0.369676 0.111988 0.892916 -0.137061
C37   C     C_R   0.851265 0.395719 0.916107 -0.163561
C38   C     C_R   0.145614 0.606069 0.088052 -0.160237
C39   C     C_R   0.171783 0.414344 0.044049 -0.135170
C40   C     C_R   0.828363 0.585993 0.955605 -0.134819
C41   C     C_R   0.354529 0.079368 0.316501 0.530180
C42   C     C_R   0.645459 0.920565 0.683487 0.530494
C43   C     C_R   0.589488 0.110587 0.698632 0.656040
C44   C     C_R   0.410473 0.889435 0.301396 0.649791
C45   C     C_R   0.908706 0.610546 0.302424 0.644307
C46   C     C_R   0.091281 0.389414 0.697601 0.653129
C47   C     C_R   0.144173 0.579582 0.683001 0.520516
C48   C     C_R   0.855971 0.420181 0.317099 0.564806
C49   C     C_R   0.353413 0.188919 0.925312 0.086170
C50   C     C_R   0.646647 0.811171 0.074663 0.085814
C51   C     C_R   0.712225 0.148069 0.972453 0.089815
C52   C     C_R   0.286283 0.853784 0.030574 0.148478
C53   C     C_R   0.784724 0.646752 0.029571 0.095101
C54   C     C_R   0.215411 0.353484 0.970222 0.093975
C55   C     C_R   0.170560 0.679023 0.041919 0.102098
C56   C     C_R   0.824536 0.323755 0.964723 0.172012
C57   C     C_R   0.390888 0.813222 0.301093 -0.000060
C58   C     C_R   0.608916 0.186850 0.699037 0.002106
C59   C     C_R   0.697095 0.863479 0.677791 0.098312
C60   C     C_R   0.302793 0.136355 0.322221 0.100861
C61   C     C_R   0.806195 0.360795 0.324569 0.016664
C62   C     C_R   0.194034 0.638902 0.675454 0.027891
C63   C     C_R   0.115526 0.314695 0.695231 0.066655
C64   C     C_R   0.884661 0.685322 0.304679 0.064133
C65   C     C_3   0.172636 0.147310 0.537571 0.582136
C66   C     C_3   0.828097 0.852477 0.462770 0.582409
C67   C     C_3   0.727285 0.210229 0.497505 0.447540
C68   C     C_3   0.273403 0.789950 0.503171 0.520581
C69   C     C_3   0.778017 0.706671 0.512051 0.553343
C70   C     C_3   0.221378 0.293404 0.487587 0.552868
C71   C     C_3   0.338456 0.648730 0.464829 0.518619
C72   C     C_3   0.660899 0.350872 0.534436 0.508981
C73   C     C_3   0.721725 0.774827 0.531349 0.456857
C74   C     C_3   0.278468 0.225811 0.467722 0.455235
C75   C     C_3   0.385161 0.723873 0.451555 0.478153
C76   C     C_3   0.615210 0.275072 0.547376 0.476339
C77   C     C_3   0.114417 0.216163 0.559085 0.460088
C78   C     C_3   0.885508 0.783041 0.441832 0.457135
C79   C     C_3   0.771705 0.284759 0.486632 0.459302
C80   C     C_3   0.227855 0.716117 0.514532 0.465697
C81   C     C_3   0.758959 0.820974 0.577841 -0.107169
C82   C     C_3   0.240954 0.178861 0.422207 -0.108138
C83   C     C_3   0.352997 0.760321 0.392418 -0.109804
C84   C     C_3   0.646885 0.239740 0.607680 -0.110378
C85   C     C_3   0.153013 0.262258 0.603447 -0.142025
C86   C     C_3   0.847216 0.737757 0.396447 -0.146653
C87   C     C_3   0.741260 0.320788 0.425112 -0.063396
C88   C     C_3   0.258833 0.678979 0.574884 -0.098345
H1    H     H_    0.385566 0.251185 0.020120 0.106558
H2    H     H_    0.614485 0.748824 0.979899 0.107198
H3    H     H_    0.676983 0.214864 0.885016 0.109173
H4    H     H_    0.324264 0.783250 0.112435 0.113653
H5    H     H_    0.830008 0.723662 0.099295 0.108419
H6    H     H_    0.170064 0.276332 0.900775 0.108077
H7    H     H_    0.135780 0.746870 0.954806 0.086987
H8    H     H_    0.862940 0.252972 0.045539 0.097390
H9    H     H_    0.396256 0.744830 0.178251 0.129611
H10   H     H_    0.603558 0.255214 0.821887 0.130366
H11   H     H_    0.673168 0.779919 0.801555 0.133844
H12   H     H_    0.326701 0.219965 0.198510 0.134094
H13   H     H_    0.831257 0.275328 0.203288 0.128773
H14   H     H_    0.169085 0.724391 0.796629 0.127429
H15   H     H_    0.109879 0.245475 0.818213 0.134084
H16   H     H_    0.890373 0.754568 0.181666 0.132576
H17   H     H_    0.308521 0.944699 0.913265 0.107721
H18   H     H_    0.689349 0.057941 0.091108 0.103333
H19   H     H_    0.631496 0.914342 0.169425 0.117930
H20   H     H_    0.368623 0.085795 0.830442 0.118083
H21   H     H_    0.838962 0.423103 0.864160 0.111230
H22   H     H_    0.157009 0.578831 0.140983 0.109116
H23   H     H_    0.193171 0.449436 0.080480 0.097150
H24   H     H_    0.807088 0.551373 0.918709 0.099073
H25   H     H_    0.223481 0.170330 0.639653 0.190428
H26   H     H_    0.778381 0.830846 0.359122 0.190174
H27   H     H_    0.696833 0.215095 0.371508 0.183687
H28   H     H_    0.305302 0.783394 0.627633 0.186961
H29   H     H_    0.827113 0.728349 0.616486 0.199137
H30   H     H_    0.171180 0.270341 0.384670 0.199476
H31   H     H_    0.306483 0.655470 0.340277 0.186652
H32   H     H_    0.691494 0.345870 0.660488 0.187807
N1    N     N_R   0.408680 0.130810 0.995780 -0.043927
N2    N     N_R   0.591320 0.869190 0.004220 -0.044706
N3    N     N_R   0.591320 0.130810 0.004220 -0.043793
N4    N     N_R   0.408680 0.869190 0.995780 -0.047568
N5    N     N_R   0.908680 0.630810 0.995780 -0.044474
N6    N     N_R   0.091320 0.369190 0.004220 -0.044335
N7    N     N_R   0.091320 0.630810 0.004220 -0.038571
N8    N     N_R   0.908680 0.369190 0.995780 -0.044217
N9    N     N_R   0.421410 0.867210 0.153620 -0.077708
N10   N     N_R   0.578590 0.132790 0.846380 -0.074264
N11   N     N_R   0.578590 0.867210 0.846380 -0.066928
N12   N     N_R   0.421410 0.132790 0.153620 -0.068328
N13   N     N_R   0.921410 0.367210 0.153620 -0.070270
N14   N     N_R   0.078590 0.632790 0.846380 -0.069926
N15   N     N_R   0.078590 0.367210 0.846380 -0.072421
N16   N     N_R   0.921410 0.632790 0.153620 -0.071148
N17   N     N_R   0.403840 0.921910 0.935760 -0.047051
N18   N     N_R   0.596160 0.078090 0.064240 -0.043819
N19   N     N_R   0.596160 0.921910 0.064240 -0.043640
N20   N     N_R   0.403840 0.078090 0.935760 -0.043703
N21   N     N_R   0.903840 0.421910 0.935760 -0.057252
N22   N     N_R   0.096160 0.578090 0.064240 -0.052939
N23   N     N_R   0.096160 0.421910 0.064240 -0.045163
N24   N     N_R   0.903840 0.578090 0.935760 -0.045849
N25   N     N_R   0.426250 0.076100 0.213650 -0.115730
N26   N     N_R   0.573750 0.923900 0.786350 -0.114734
N27   N     N_R   0.573750 0.076100 0.786350 -0.094689
N28   N     N_R   0.426250 0.923900 0.213650 -0.093707
N29   N     N_R   0.926250 0.576100 0.213650 -0.123966
N30   N     N_R   0.073750 0.423900 0.786350 -0.121589
N31   N     N_R   0.073750 0.576100 0.786350 -0.089086
N32   N     N_R   0.926250 0.423900 0.213650 -0.094056
Ni1   Ni    Ni4+2 0.500000 0.131570 0.000000 0.199547
Ni2   Ni    Ni4+2 0.500000 0.868430 0.000000 0.204879
Ni3   Ni    Ni4+2 0.000000 0.631570 0.000000 0.200537
Ni4   Ni    Ni4+2 0.000000 0.368430 0.000000 0.204285
Ni5   Ni    Ni4+2 0.488900 0.000000 0.862310 0.246460
Ni6   Ni    Ni4+2 0.511100 0.000000 0.137690 0.244490
Ni7   Ni    Ni4+2 0.988900 0.500000 0.862310 0.236330
Ni8   Ni    Ni4+2 0.011100 0.500000 0.137690 0.239051
O1    O     O_3   0.346229 0.051478 0.405510 -0.700454
H33   H     H_    0.404487 0.051688 0.384543 0.337604
O2    O     O_3   0.653832 0.948534 0.594464 -0.700993
H34   H     H_    0.595601 0.948284 0.615347 0.338509
O3    O     O_3   0.561981 0.081156 0.642848 -0.781981
H35   H     H_    0.574613 0.119252 0.586892 0.320239
O4    O     O_3   0.438103 0.918787 0.357079 -0.782234
H36   H     H_    0.425656 0.880587 0.412843 0.316879
O5    O     O_3   0.939136 0.586051 0.357291 -0.724117
H37   H     H_    0.974714 0.539117 0.318934 0.330593
O6    O     O_3   0.060697 0.413795 0.642868 -0.724421
H38   H     H_    0.025190 0.460780 0.681144 0.328533
O7    O     O_3   0.156869 0.537283 0.599119 -0.742305
H39   H     H_    0.215009 0.547417 0.531604 0.354839
O8    O     O_3   0.843594 0.461909 0.401197 -0.714563
H40   H     H_    0.785444 0.451733 0.468726 0.360500
O9    O     O_3   0.634560 0.766696 0.581975 -0.727295
H41   H     H_    0.621141 0.805917 0.547554 0.330429
O10   O     O_3   0.365703 0.234672 0.416215 -0.728514
H42   H     H_    0.380197 0.194780 0.448716 0.329685
O11   O     O_3   0.470036 0.725216 0.412813 -0.733465
H43   H     H_    0.472707 0.766448 0.455037 0.313435
O12   O     O_3   0.530610 0.272678 0.585159 -0.736461
H44   H     H_    0.529461 0.233109 0.539829 0.314482
O13   O     O_3   0.027005 0.209612 0.611328 -0.727380
H45   H     H_    0.006844 0.263264 0.615181 0.344048
O14   O     O_3   0.972781 0.788873 0.390735 -0.721067
H46   H     H_    0.992461 0.734963 0.386605 0.344391
O15   O     O_3   0.855450 0.287990 0.451997 -0.717601
H47   H     H_    0.854007 0.261486 0.509967 0.342102
O16   O     O_3   0.143578 0.716018 0.550595 -0.712409
H48   H     H_    0.138894 0.669690 0.516870 0.340647
O17   O     O_3   0.146857 0.069751 0.560349 -0.660774
H49   H     H_    0.103897 0.066979 0.641048 0.318663
O18   O     O_3   0.854521 0.929868 0.440419 -0.663162
H50   H     H_    0.897954 0.932674 0.359796 0.320247
O19   O     O_3   0.763433 0.136249 0.479755 -0.688677
H51   H     H_    0.812687 0.134407 0.400811 0.337978
O20   O     O_3   0.237911 0.864334 0.521731 -0.675323
H52   H     H_    0.189565 0.866424 0.601057 0.338035
O21   O     O_3   0.749982 0.629687 0.536694 -0.675762
H53   H     H_    0.707493 0.627694 0.617514 0.324860
O22   O     O_3   0.248756 0.370559 0.462527 -0.674774
H54   H     H_    0.290799 0.372501 0.381651 0.324106
O23   O     O_3   0.372930 0.574203 0.448398 -0.702347
H55   H     H_    0.421535 0.571268 0.369244 0.335303
O24   O     O_3   0.626041 0.425089 0.549856 -0.704980
H56   H     H_    0.576771 0.428046 0.628712 0.335363
N33   N     N_3   0.314022 0.693690 0.988560 -0.209484
H57   H     H_    0.304522 0.649492 0.041392 0.098691
H58   H     H_    0.338508 0.668379 0.913159 0.137568
N34   N     N_3   0.680154 0.311250 0.024969 -0.209224
H59   H     H_    0.631254 0.277542 0.089829 0.141995
H60   H     H_    0.670666 0.321537 0.966782 0.096540
N35   N     N_3   0.659726 0.642899 0.028502 -0.220620
H61   H     H_    0.701288 0.637196 0.943313 0.091705
H62   H     H_    0.643436 0.587203 0.062500 0.122840
N36   N     N_3   0.340133 0.357161 0.971869 -0.220892
H63   H     H_    0.356541 0.412868 0.937910 0.118023
H64   H     H_    0.298388 0.362838 0.057059 0.091789
N37   N     N_3   0.859873 0.164483 0.910955 -0.205712
H65   H     H_    0.850454 0.121173 0.964773 0.093666
H66   H     H_    0.884050 0.137798 0.836479 0.166696
N38   N     N_3   0.137681 0.843412 0.096557 -0.197159
H67   H     H_    0.087419 0.808455 0.157315 0.160750
H68   H     H_    0.132448 0.853278 0.034472 0.087560
N39   N     N_3   0.310328 0.226690 0.809715 -0.205581
H69   H     H_    0.369896 0.211005 0.737604 0.164340
H70   H     H_    0.271348 0.177608 0.838425 0.077898
N40   N     N_3   0.689922 0.773557 0.190086 -0.205080
H71   H     H_    0.728950 0.822612 0.161213 0.077121
H72   H     H_    0.630407 0.789307 0.262232 0.161919

loop_
_geom_bond_atom_site_label_1
_geom_bond_atom_site_label_2
_ccdc_geom_bond_type
C68   C80   S    
C29   N13   A    
O22   H54   S    
N32   Ni8   S    
C69   O21   S    
O3    H35   S    
N4    Ni2   S    
C36   H20   S    
N13   Ni4   S    
C27   N11   A    
O21   H53   S    
O2    H34   S    
C8    H8    S    
C7    C55   A    
O6    H38   S    
C42   N26   A    
C25   N9    A    
N38   H67   S    
C76   C84   S    
C47   C62   A    
C79   C87   S    
N16   N29   A    
O13   H45   S    
N36   H63   S    
N23   Ni8   S    
C40   H24   S    
N26   Ni5   S    
O23   H55   S    
C33   C52   A    
O17   H49   S    
C12   C68   S    
N3    N18   A    
C27   H11   S    
C34   C51   A    
C21   N37   S    
C4    C52   A    
C68   O20   S    
N12   N25   A    
N1    N20   A    
C5    C53   A    
C6    H6    S    
C6    C54   A    
N2    N19   A    
C41   O1    S    
C11   C76   S    
C16   H32   S    
N9    Ni2   S    
C10   C73   S    
C23   C49   S    
C39   C54   A    
O19   H51   S    
N5    N24   A    
C26   C58   A    
C18   C21   D    
C13   C81   S    
N6    N23   A    
C16   C84   S    
C77   O13   S    
C46   O6    S    
C4    N4    A    
N11   N26   A    
C3    H3    S    
O5    H37   S    
C14   C77   S    
C64   C86   S    
C2    H2    S    
N9    N28   A    
C61   C87   S    
C43   C58   A    
C35   N19   A    
C33   N17   A    
C37   C56   A    
C60   C82   S    
O20   H52   S    
N21   Ni7   S    
N12   Ni1   S    
C38   C55   A    
C15   C80   S    
N19   Ni6   S    
C11   C87   S    
C30   N14   A    
C16   C72   S    
C70   C74   S    
C24   N40   S    
C32   H16   S    
C43   N27   A    
C69   C73   S    
C38   H22   S    
C76   O12   S    
C11   H27   S    
N8    N21   A    
C17   C55   S    
C37   H21   S    
C26   N10   A    
C72   C76   S    
C48   O8    S    
C9    C85   S    
C5    H5    S    
C78   C86   S    
C2    N2    A    
C19   C53   S    
C77   C85   S    
C67   C84   S    
C80   C88   S    
N22   Ni8   S    
C14   C70   S    
C8    C56   A    
N40   H71   S    
N13   N32   A    
C25   C57   A    
C74   C82   S    
C73   C81   S    
C11   C67   S    
O1    H33   S    
C72   O24   S    
C65   O17   S    
C10   C66   S    
C24   C50   S    
C66   C78   S    
C29   C61   A    
C65   C77   S    
N30   Ni7   S    
C74   O10   S    
O24   H56   S    
C34   H18   S    
C75   C83   S    
C31   C63   A    
N4    N17   A    
N34   H60   S    
C33   H17   S    
C6    N6    A    
C20   C54   S    
N7    Ni3   S    
O4    H36   S    
C32   N16   A    
N16   Ni3   S    
C3    C51   A    
C42   O2    S    
C4    H4    S    
C15   C83   S    
O18   H50   S    
C14   H30   S    
O7    H39   S    
C62   C88   S    
C34   N18   A    
N15   Ni4   S    
C71   C88   S    
C45   O5    S    
C43   O3    S    
C28   N12   A    
C44   O4    S    
N31   Ni7   S    
O11   H43   S    
C18   N34   S    
N35   H61   S    
C36   C49   A    
O12   H44   S    
N37   H65   S    
C58   C84   S    
N20   Ni5   S    
C8    N8    A    
N18   Ni6   S    
N36   H64   S    
N39   H69   S    
C20   C23   D    
C44   C57   A    
C12   C88   S    
C30   H14   S    
C35   C50   A    
C57   C83   S    
N33   H57   S    
C29   H13   S    
C39   H23   S    
N28   Ni6   S    
N24   Ni7   S    
N40   H72   S    
C36   N20   A    
C32   C64   A    
C47   O7    S    
C28   C60   A    
N1    Ni1   S    
C26   H10   S    
C31   N15   A    
N39   H70   S    
C39   N23   A    
N2    Ni2   S    
C30   C62   A    
C2    C50   A    
C80   O16   S    
C9    C74   S    
C14   C82   S    
N27   Ni5   S    
C21   C51   S    
C72   C87   S    
N38   H68   S    
C22   C52   S    
N3    Ni1   S    
C25   H9    S    
C70   O22   S    
N14   Ni3   S    
C66   O18   S    
C13   C78   S    
C10   C86   S    
C1    H1    S    
C1    N1    A    
C46   N30   A    
N10   N27   A    
C19   N35   S    
C68   C83   S    
C20   N36   S    
C75   O11   S    
C59   C81   S    
C41   C60   A    
C47   N31   A    
C67   O19   S    
C10   H26   S    
C42   C59   A    
C13   H29   S    
C7    H7    S    
C40   C53   A    
C18   C56   S    
N15   N30   A    
C15   C71   S    
C45   C64   A    
C17   N33   S    
C17   C22   D    
N17   Ni5   S    
C46   C63   A    
C16   C79   S    
C9    H25   S    
C23   N39   S    
C40   N24   A    
C19   C24   D    
C73   O9    S    
O14   H46   S    
N11   Ni2   S    
O8    H40   S    
C27   C59   A    
C66   C81   S    
C71   C75   S    
N25   Ni6   S    
C28   H12   S    
C65   C82   S    
C13   C69   S    
N14   N31   A    
C3    N3    A    
C44   N28   A    
C15   H31   S    
C38   N22   A    
N10   Ni1   S    
C45   N29   A    
C37   N21   A    
O15   H47   S    
O16   H48   S    
N29   Ni8   S    
C9    C65   S    
N35   H62   S    
C35   H19   S    
N8    Ni4   S    
O10   H42   S    
C22   N38   S    
C71   O23   S    
C41   N25   A    
N34   H59   S    
N37   H66   S    
O9    H41   S    
C79   O15   S    
C12   C75   S    
C5    N5    A    
C48   C61   A    
N33   H58   S    
C78   O14   S    
C7    N7    A    
C70   C85   S    
C1    C49   A    
C48   N32   A    
N7    N22   A    
C67   C79   S    
C63   C85   S    
C69   C86   S    
N5    Ni3   S    
C31   H15   S    
C12   H28   S    
N6    Ni4   S    
