data_mof_unit_35979.cif
_audit_creation_date              2012-12-10T21:03:43-0500
_audit_creation_method            fapswitch 2.2
_symmetry_space_group_name_H-M    P1
_symmetry_Int_Tables_number       1
_space_group_crystal_system       triclinic
_cell_length_a                    15.814632
_cell_length_b                    15.074215
_cell_length_c                    23.385046
_cell_angle_alpha                 90.09475
_cell_angle_beta                  90.010336
_cell_angle_gamma                 90.362876
_cell_volume                      5574.71554889

loop_
_atom_site_label
_atom_site_type_symbol
_atom_type_description
_atom_site_fract_x
_atom_site_fract_y
_atom_site_fract_z
_atom_type_partial_charge
C1    C     C_R   0.338952 0.499782 0.499660 0.885762
C2    C     C_R   0.524560 0.573416 0.704713 0.367360
C3    C     C_R   0.451173 0.563967 0.237480 0.326391
C4    C     C_R   0.511784 0.576035 0.763527 0.330040
C5    C     C_R   0.484353 0.490403 0.208134 0.038493
C6    C     C_R   0.478616 0.501242 0.791747 0.037955
C7    C     C_R   0.957612 0.568424 0.527983 0.324188
C8    C     C_R   0.042995 0.449809 0.455192 0.320210
C9    C     C_R   0.045404 0.563448 0.530112 0.341190
C10   C     C_R   0.954852 0.448787 0.456829 0.327052
C11   C     C_R   0.912974 0.508519 0.492989 -0.227852
C12   C     C_R   0.661082 0.500409 0.500089 0.894260
C13   C     C_R   0.087191 0.504900 0.493320 -0.229126
C14   C     C_1   0.824061 0.505427 0.495792 0.091501
C15   C     C_1   0.176053 0.501350 0.495123 0.117702
C16   C     C_1   0.250766 0.499699 0.497290 -0.187391
C17   C     C_1   0.749334 0.502182 0.498098 -0.200661
C18   C     C_R   0.498943 0.499758 0.389052 0.963615
C19   C     C_R   0.499621 0.500027 0.610995 0.957993
C20   C     C_R   0.510073 0.953503 0.447795 0.335145
C21   C     C_R   0.491315 0.047353 0.551286 0.346322
C22   C     C_R   0.489280 0.953308 0.551116 0.364518
C23   C     C_R   0.520548 0.418914 0.237547 0.541916
C24   C     C_R   0.509837 0.047838 0.448204 0.397779
C25   C     C_R   0.499431 0.905160 0.499453 -0.311812
C26   C     C_R   0.500652 0.095199 0.499822 -0.303042
C27   C     C_1   0.499785 0.807118 0.499762 0.157123
C28   C     C_1   0.500409 0.192996 0.499968 0.233954
C29   C     C_R   0.554036 0.500986 0.880581 0.654791
C30   C     C_R   0.408388 0.489907 0.119270 0.648440
C31   C     C_R   0.403178 0.507626 0.881127 0.597010
C32   C     C_R   0.558855 0.503079 0.118919 0.592545
C33   C     C_R   0.402132 0.517900 0.940845 -0.191103
C34   C     C_R   0.449785 0.426622 0.761227 0.539450
C35   C     C_R   0.559393 0.518269 0.059719 -0.195202
C36   C     C_R   0.480319 0.518425 0.970275 -0.145305
C37   C     C_R   0.481388 0.516927 0.030305 -0.134546
C38   C     C_R   0.557456 0.514624 0.939869 -0.181229
C39   C     C_R   0.404560 0.509421 0.060724 -0.199017
C40   C     C_R   0.325744 0.527598 0.971982 0.412715
C41   C     C_R   0.635379 0.533719 0.029088 0.398584
C42   C     C_R   0.326746 0.522038 0.031840 0.395188
C43   C     C_R   0.635274 0.526286 0.969094 0.428223
C44   C     C_3   0.237185 0.624062 0.927130 0.158334
C45   C     C_R   0.527433 0.425322 0.297432 -0.454246
C46   C     C_3   0.157595 0.629977 0.890853 -0.764872
C47   C     C_3   0.710884 0.639341 0.077188 0.112115
C48   C     C_3   0.796955 0.661297 0.102752 -0.774986
C49   C     C_3   0.240620 0.605568 0.089426 0.129988
C50   C     C_3   0.170796 0.596626 0.134311 -0.254068
C51   C     C_3   0.163075 0.680825 0.170221 -0.992480
C52   C     C_3   0.752313 0.603286 0.932763 0.140066
C53   C     C_3   0.697409 0.675575 0.905003 -0.409619
C54   C     C_3   0.747869 0.760983 0.896055 -0.945869
C55   C     C_3   0.562261 0.268238 0.234332 0.100140
C56   C     C_R   0.458518 0.427059 0.701304 -0.457863
C57   C     C_3   0.654254 0.257056 0.253733 -0.358736
C58   C     C_3   0.663392 0.179333 0.294855 -0.919263
C59   C     C_3   0.358213 0.301322 0.764460 0.123117
C60   C     C_3   0.276263 0.351994 0.751547 -0.356038
C61   C     C_3   0.211061 0.292051 0.722525 -0.955194
C62   C     C_3   0.328786 0.614161 0.335045 0.137091
C63   C     C_3   0.289208 0.683990 0.373459 -0.846697
C64   C     C_3   0.653778 0.619651 0.675035 0.166445
C65   C     C_3   0.699720 0.684374 0.635980 -0.873581
C66   C     C_3   0.474611 0.696207 0.193915 0.119706
C67   C     C_R   0.493751 0.498031 0.326883 -0.265154
C68   C     C_3   0.432916 0.772217 0.162149 -0.872311
C69   C     C_3   0.469982 0.705513 0.803529 0.113097
C70   C     C_3   0.499114 0.785874 0.837785 -0.856987
C71   C     C_3   0.098145 0.581833 0.619773 0.115281
C72   C     C_3   0.157065 0.639166 0.656400 -0.322987
C73   C     C_3   0.165920 0.601880 0.716742 -0.970177
C74   C     C_3   0.892186 0.313067 0.448027 0.123756
C75   C     C_3   0.826244 0.261556 0.413278 -0.328266
C76   C     C_3   0.801654 0.174657 0.442488 -0.957332
C77   C     C_3   0.887305 0.700859 0.529729 0.125026
C78   C     C_R   0.494711 0.500147 0.673260 -0.279719
C79   C     C_3   0.895836 0.786246 0.564707 -0.323786
C80   C     C_3   0.854968 0.864487 0.534201 -0.973926
C81   C     C_3   0.100429 0.435185 0.366708 0.122419
C82   C     C_3   0.160260 0.378675 0.330751 -0.350761
C83   C     C_3   0.175144 0.419414 0.271858 -0.936752
C84   C     C_3   0.452122 0.101426 0.364870 0.134746
C85   C     C_3   0.412984 0.193008 0.371845 -0.888045
C86   C     C_3   0.544491 0.870293 0.624377 0.127974
C87   C     C_3   0.542045 0.877081 0.689244 -0.760595
C88   C     C_3   0.559729 0.116296 0.624578 0.112823
C89   C     C_R   0.452145 0.565776 0.297084 0.354150
C90   C     C_3   0.547766 0.166249 0.680477 -0.791327
C91   C     C_3   0.456535 0.863997 0.376289 0.128217
C92   C     C_3   0.455649 0.867914 0.311341 -0.803372
H1    H     H_    0.559785 0.375010 0.321797 0.194156
H2    H     H_    0.847094 0.653621 0.069911 0.239959
H3    H     H_    0.598683 0.056676 0.633251 0.130522
H4    H     H_    0.511400 0.124890 0.711227 0.255545
H5    H     H_    0.610332 0.182790 0.699381 0.211162
H6    H     H_    0.513113 0.228722 0.672394 0.249907
H7    H     H_    0.395122 0.890554 0.392245 0.097505
H8    H     H_    0.461265 0.793227 0.388836 0.203567
H9    H     H_    0.517545 0.845894 0.294278 0.262274
H10   H     H_    0.404850 0.824075 0.294406 0.237362
H11   H     H_    0.443839 0.936629 0.296686 0.220459
H12   H     H_    0.797645 0.730833 0.118508 0.195394
H13   H     H_    0.810300 0.616168 0.139103 0.276217
H14   H     H_    0.222100 0.657701 0.058607 0.097831
H15   H     H_    0.299613 0.627827 0.111302 0.164543
H16   H     H_    0.109511 0.582884 0.112657 0.217516
H17   H     H_    0.184900 0.540120 0.163139 0.263494
H18   H     H_    0.223022 0.694125 0.193610 0.289957
H19   H     H_    0.111429 0.672387 0.201947 0.265318
H20   H     H_    0.148220 0.738425 0.142496 0.264908
H21   H     H_    0.437682 0.371506 0.675726 0.194247
H22   H     H_    0.807435 0.592105 0.904271 0.174251
H23   H     H_    0.779915 0.626372 0.973552 0.155297
H24   H     H_    0.674111 0.652010 0.862879 0.299950
H25   H     H_    0.642307 0.690957 0.932654 0.191144
H26   H     H_    0.771136 0.786940 0.937712 0.261045
H27   H     H_    0.706728 0.811724 0.876110 0.276119
H28   H     H_    0.802539 0.748810 0.867340 0.266571
H29   H     H_    0.547464 0.213782 0.203800 0.159233
H30   H     H_    0.516054 0.259338 0.269765 0.126177
H31   H     H_    0.694703 0.245515 0.215602 0.240840
H32   H     H_    0.291294 0.649068 0.901145 0.122557
H33   H     H_    0.677571 0.318321 0.275129 0.234781
H34   H     H_    0.629581 0.193847 0.335358 0.300245
H35   H     H_    0.731291 0.169097 0.304728 0.264444
H36   H     H_    0.637370 0.117572 0.275529 0.273218
H37   H     H_    0.341697 0.246185 0.793954 0.173261
H38   H     H_    0.384380 0.268107 0.726088 0.128194
H39   H     H_    0.249183 0.377675 0.792102 0.277285
H40   H     H_    0.289330 0.409098 0.722955 0.215379
H41   H     H_    0.236259 0.266679 0.681324 0.273628
H42   H     H_    0.152761 0.330406 0.713764 0.266299
H43   H     H_    0.229741 0.668475 0.964570 0.094351
H44   H     H_    0.194618 0.235180 0.750639 0.272376
H45   H     H_    0.293905 0.613402 0.293703 0.170233
H46   H     H_    0.321300 0.548517 0.356512 0.115001
H47   H     H_    0.290499 0.749580 0.351969 0.241806
H48   H     H_    0.222492 0.665607 0.382728 0.208548
H49   H     H_    0.324533 0.688703 0.414399 0.272560
H50   H     H_    0.683203 0.622940 0.718259 0.175523
H51   H     H_    0.662973 0.551826 0.656955 0.114260
H52   H     H_    0.699022 0.752104 0.654591 0.239554
H53   H     H_    0.766272 0.662939 0.630973 0.239009
H54   H     H_    0.101740 0.608499 0.916198 0.252150
H55   H     H_    0.669221 0.685436 0.593211 0.267339
H56   H     H_    0.524265 0.668033 0.165705 0.116951
H57   H     H_    0.505121 0.722940 0.233211 0.164233
H58   H     H_    0.380751 0.800192 0.188190 0.264579
H59   H     H_    0.480272 0.825239 0.153573 0.214601
H60   H     H_    0.406984 0.748143 0.120771 0.236066
H61   H     H_    0.419072 0.671672 0.828200 0.129144
H62   H     H_    0.443354 0.728583 0.762136 0.156546
H63   H     H_    0.551729 0.820234 0.815306 0.268503
H64   H     H_    0.445807 0.832748 0.843123 0.211692
H65   H     H_    0.148194 0.699457 0.876607 0.187234
H66   H     H_    0.521148 0.764680 0.880692 0.246485
H67   H     H_    0.125325 0.513815 0.616979 0.122800
H68   H     H_    0.035032 0.578192 0.640828 0.171602
H69   H     H_    0.220541 0.642212 0.636028 0.231958
H70   H     H_    0.131687 0.707659 0.659030 0.233063
H71   H     H_    0.103617 0.601149 0.738668 0.267207
H72   H     H_    0.210339 0.644005 0.741814 0.271194
H73   H     H_    0.191108 0.533380 0.715177 0.269570
H74   H     H_    0.866384 0.323723 0.491912 0.126539
H75   H     H_    0.950972 0.273067 0.451020 0.165939
H76   H     H_    0.163471 0.586691 0.852599 0.276153
H77   H     H_    0.768696 0.302806 0.408111 0.237590
H78   H     H_    0.852061 0.246906 0.370098 0.228149
H79   H     H_    0.857952 0.131664 0.447485 0.264635
H80   H     H_    0.753950 0.138940 0.416116 0.285802
H81   H     H_    0.773744 0.188007 0.485216 0.262382
H82   H     H_    0.819536 0.689466 0.519218 0.156107
H83   H     H_    0.922930 0.710489 0.488862 0.125340
H84   H     H_    0.865331 0.777582 0.607106 0.225744
H85   H     H_    0.963986 0.801035 0.571840 0.237799
H86   H     H_    0.885173 0.875393 0.491888 0.271088
H87   H     H_    0.662444 0.649671 0.110897 0.149666
H88   H     H_    0.863084 0.925473 0.560375 0.265832
H89   H     H_    0.786227 0.851960 0.528138 0.265988
H90   H     H_    0.130359 0.501800 0.372870 0.114003
H91   H     H_    0.039591 0.442952 0.343278 0.173331
H92   H     H_    0.221893 0.372759 0.353286 0.223721
H93   H     H_    0.132889 0.311069 0.325362 0.237975
H94   H     H_    0.114784 0.422759 0.247684 0.268642
H95   H     H_    0.220355 0.377958 0.247418 0.291538
H96   H     H_    0.202079 0.487235 0.276063 0.252144
H97   H     H_    0.403173 0.049724 0.373821 0.121243
H98   H     H_    0.697826 0.687277 0.042122 0.090547
H99   H     H_    0.470592 0.093660 0.319341 0.161157
H100  H     H_    0.462489 0.245353 0.368865 0.272321
H101  H     H_    0.365415 0.203963 0.337682 0.215448
H102  H     H_    0.380634 0.197992 0.413802 0.251311
H103  H     H_    0.604868 0.901058 0.609200 0.086598
H104  H     H_    0.544705 0.798940 0.612599 0.200495
H105  H     H_    0.481588 0.849229 0.705398 0.263647
H106  H     H_    0.595388 0.839720 0.708172 0.223824
H107  H     H_    0.546868 0.947510 0.702785 0.238014
H108  H     H_    0.595011 0.160436 0.594694 0.126896
N1    N     N_R   0.478194 0.500752 0.852812 -0.312647
N2    N     N_R   0.484097 0.491225 0.147081 -0.315105
N3    N     N_1   0.500000 0.270550 0.500000 -0.105639
N4    N     N_1   0.500000 0.729450 0.500000 -0.110047
O1    O     O_R   0.378020 0.573650 0.500020 -0.615232
O2    O     O_2   0.337658 0.468510 0.148521 -0.539377
O3    O     O_2   0.330374 0.503879 0.851190 -0.556658
O4    O     O_2   0.632103 0.498574 0.148368 -0.505512
O5    O     O_3   0.248435 0.535082 0.944650 -0.531992
O6    O     O_3   0.710971 0.550456 0.057095 -0.545918
O7    O     O_3   0.250228 0.523244 0.060848 -0.570041
O8    O     O_3   0.711048 0.520008 0.939255 -0.567268
O9    O     O_3   0.552949 0.349347 0.204699 -0.600637
O10   O     O_3   0.419351 0.354609 0.792881 -0.614430
O11   O     O_3   0.414828 0.635503 0.325934 -0.592696
O12   O     O_R   0.621980 0.426350 0.499980 -0.613512
O13   O     O_3   0.567315 0.642409 0.678303 -0.589387
O14   O     O_3   0.412758 0.631896 0.207721 -0.601667
O15   O     O_3   0.539424 0.648923 0.794352 -0.600619
O16   O     O_3   0.090886 0.620561 0.565047 -0.608077
O17   O     O_3   0.909634 0.394183 0.420124 -0.617398
O18   O     O_3   0.916562 0.628713 0.562852 -0.631733
O19   O     O_3   0.085945 0.392320 0.419510 -0.615490
O20   O     O_3   0.526447 0.094115 0.398318 -0.591793
O21   O     O_3   0.470928 0.910132 0.601857 -0.566309
O22   O     O_3   0.479687 0.092213 0.602319 -0.559053
O23   O     O_R   0.621980 0.573650 0.499980 -0.622846
O24   O     O_3   0.528291 0.910820 0.396763 -0.576238
O25   O     O_R   0.378020 0.426350 0.500020 -0.609347
O26   O     O_R   0.499980 0.573680 0.416160 -0.573309
O27   O     O_R   0.500020 0.426320 0.583840 -0.624404
O28   O     O_R   0.500020 0.573680 0.583840 -0.574181
O29   O     O_R   0.499980 0.426320 0.416160 -0.631641
O30   O     O_2   0.625502 0.487549 0.850315 -0.518010
Zn1   Zn    Zn3+2 0.500000 0.598370 0.500000 0.987409
Zn2   Zn    Zn3+2 0.500000 0.401630 0.500000 0.964681

loop_
_geom_bond_atom_site_label_1
_geom_bond_atom_site_label_2
_ccdc_geom_bond_type
C66   C68   S    
C21   C26   A    
C55   H29   S    
C59   H38   S    
C34   C56   A    
C77   H82   S    
C23   C45   A    
C54   H28   S    
C91   O24   S    
C76   H79   S    
C55   C57   S    
C63   H48   S    
C87   H107  S    
C84   H97   S    
C45   H1    S    
C60   H40   S    
C81   C82   S    
C59   O10   S    
C61   H41   S    
C49   H15   S    
C22   O21   S    
C53   C54   S    
C52   C53   S    
C85   H100  S    
C7    C11   A    
C21   O22   S    
C74   O17   S    
C51   H20   S    
C46   H76   S    
C64   O13   S    
C70   H64   S    
C80   H88   S    
C36   C37   A    
C35   C37   A    
C24   C26   A    
N4    Zn1   S    
C57   H33   S    
C66   O14   S    
C11   C14   S    
C53   H25   S    
C85   H102  S    
C76   H81   S    
C20   C25   A    
C15   C16   T    
C30   O2    S    
C82   H92   S    
C67   C89   A    
C33   C36   A    
C56   C78   A    
C84   H99   S    
C44   O5    S    
C62   O11   S    
C76   H80   S    
C9    C13   A    
C47   H87   S    
C92   H11   S    
C86   H104  S    
C88   O22   S    
C20   C24   A    
C22   C25   A    
C12   C17   S    
C75   H77   S    
C2    O13   S    
C72   H69   S    
C79   H85   S    
C83   H94   S    
O27   Zn2   S    
C91   H8    S    
C65   H55   S    
C1    O1    A    
C19   O28   A    
C90   H5    S    
C66   H56   S    
C27   N4    T    
C10   O17   S    
C53   H24   S    
C92   H10   S    
C89   O11   S    
C44   H43   S    
C40   C42   A    
C88   H3    S    
C59   C60   S    
C77   H83   S    
C48   H13   S    
C21   C22   A    
C50   H16   S    
C41   C43   A    
C14   C17   T    
C83   H95   S    
C69   C70   S    
C81   H90   S    
C81   O19   S    
C60   H39   S    
C74   H75   S    
C44   C46   S    
C61   H42   S    
C39   C42   A    
C77   C79   S    
C30   N2    A    
C84   O20   S    
C18   O29   A    
C33   C40   A    
C29   N1    A    
C74   C75   S    
C82   H93   S    
C70   H63   S    
C32   C35   A    
O1    Zn1   S    
C68   H58   S    
C84   C85   S    
C6    N1    S    
C4    C6    A    
C18   O26   A    
C91   C92   S    
C65   H52   S    
C86   C87   S    
C12   O23   A    
C18   C67   S    
C46   H65   S    
C40   O5    S    
C44   H32   S    
O28   Zn1   S    
C69   H61   S    
C71   O16   S    
C6    C34   A    
C60   C61   S    
C70   H66   S    
C80   H86   S    
C29   C38   A    
C19   C78   S    
C2    C4    A    
C75   C76   S    
C31   O3    S    
C62   C63   S    
C68   H60   S    
C86   H103  S    
C57   H31   S    
C47   C48   S    
C5    C23   A    
C56   H21   S    
C4    O15   S    
C49   O7    S    
C75   H78   S    
C31   C33   A    
C50   C51   S    
C63   H49   S    
O26   Zn1   S    
C1    C16   S    
C80   H89   S    
C62   H46   S    
C43   O8    S    
C31   N1    A    
C49   H14   S    
C8    O19   S    
C48   H2    S    
C92   H9    S    
C66   H57   S    
C72   H70   S    
C41   O6    S    
C9    O16   S    
C73   H73   S    
C81   H91   S    
C88   C90   S    
C58   H34   S    
C51   H18   S    
C13   C15   S    
C34   O10   S    
O12   Zn2   S    
C38   C43   A    
C83   H96   S    
C32   O4    S    
C12   O12   A    
C65   H53   S    
C5    N2    S    
C71   H67   S    
C2    C78   A    
C23   O9    S    
C52   H23   S    
C7    C9    A    
C59   H37   S    
C51   H19   S    
C69   O15   S    
C28   N3    T    
C63   H47   S    
C79   H84   S    
C8    C10   A    
C72   C73   S    
C3    C5    A    
C55   O9    S    
C90   H4    S    
C45   C67   A    
C64   H51   S    
C52   H22   S    
C25   C27   S    
O23   Zn1   S    
C26   C28   S    
C69   H62   S    
C20   O24   S    
C71   H68   S    
C3    C89   A    
C91   H7    S    
C64   C65   S    
C88   H108  S    
C47   H98   S    
C54   H26   S    
N3    Zn2   S    
C73   H71   S    
C68   H59   S    
C58   H36   S    
C73   H72   S    
C57   C58   S    
C46   H54   S    
C64   H50   S    
O25   Zn2   S    
C3    O14   S    
C36   C38   A    
C30   C39   A    
C7    O18   S    
C85   H101  S    
C24   O20   S    
C32   N2    A    
C62   H45   S    
C35   C41   A    
O29   Zn2   S    
C29   O30   S    
C55   H30   S    
C50   H17   S    
C10   C11   A    
C79   C80   S    
C8    C13   A    
C1    O25   A    
C77   O18   S    
C58   H35   S    
C74   H74   S    
C71   C72   S    
C37   C39   A    
C49   C50   S    
C47   O6    S    
C52   O8    S    
C86   O21   S    
C87   H105  S    
C87   H106  S    
C82   C83   S    
C54   H27   S    
C19   O27   A    
C90   H6    S    
C42   O7    S    
C61   H44   S    
C48   H12   S    
