data_mof_unit_55190.cif
_audit_creation_date              2012-10-26T20:21:33-0400
_audit_creation_method            fapswitch 2.2
_symmetry_space_group_name_H-M    P1
_symmetry_Int_Tables_number       1
_space_group_crystal_system       triclinic
_cell_length_a                    10.790568
_cell_length_b                    9.59256
_cell_length_c                    11.695615
_cell_angle_alpha                 90.095474
_cell_angle_beta                  91.031825
_cell_angle_gamma                 92.306659
_cell_volume                      1209.42288193

loop_
_atom_site_label
_atom_site_type_symbol
_atom_type_description
_atom_site_fract_x
_atom_site_fract_y
_atom_site_fract_z
_atom_type_partial_charge
C1    C     C_R   0.261655 0.498094 0.497433 0.525169
C2    C     C_R   0.941602 0.625389 0.510684 -0.007943
C3    C     C_R   0.929118 0.410988 0.401605 -0.019947
C4    C     C_R   0.060888 0.597599 0.549345 -0.013753
C5    C     C_R   0.870714 0.509981 0.469934 0.000261
C6    C     C_R   0.126052 0.496706 0.487524 0.001965
C7    C     C_R   0.426870 0.070473 0.424424 0.181319
C8    C     C_R   0.574653 0.928515 0.574725 0.175518
C9    C     C_R   0.573326 0.078036 0.575985 0.182789
C10   C     C_R   0.426359 0.921286 0.424848 0.187343
C11   C     C_3   0.128184 0.352885 0.301189 -0.258574
C12   C     C_R   0.737264 0.502791 0.490438 0.539386
C13   C     C_3   0.120766 0.443608 0.193217 -0.313948
C14   C     C_3   0.163461 0.364430 0.088675 -0.452671
C15   C     C_3   0.931266 0.761601 0.444579 -0.248511
C16   C     C_3   0.987377 0.745902 0.324688 -0.297649
C17   C     C_3   0.000467 0.882120 0.259188 -0.474703
C18   C     C_3   0.851323 0.317516 0.319985 -0.239406
C19   C     C_3   0.827498 0.171545 0.369417 -0.281784
C20   C     C_3   0.727441 0.090874 0.299469 -0.445084
C21   C     C_3   0.117484 0.689758 0.644330 -0.243523
C22   C     C_3   0.159325 0.604233 0.747819 -0.289922
C23   C     C_R   0.499668 0.499895 0.284124 0.527775
C24   C     C_3   0.218116 0.698966 0.840603 -0.451760
C25   C     C_R   0.500491 0.500105 0.715883 0.548697
C26   C     C_1   0.499884 0.499797 0.162440 -0.042093
C27   C     C_1   0.500494 0.500191 0.837612 -0.033294
C28   C     C_1   0.500109 0.499925 0.059935 -0.061354
C29   C     C_1   0.500349 0.500079 0.940128 -0.058278
C30   C     C_R   0.060915 0.416038 0.400894 -0.019667
Cu1   Cu    Cu3+1 0.500000 0.640660 0.500000 0.975661
Cu2   Cu    Cu3+1 0.500000 0.359340 0.500000 0.972422
H1    H     H_    0.260207 0.331623 0.101827 0.164903
H2    H     H_    0.049997 0.864185 0.178380 0.138516
H3    H     H_    0.081398 0.704094 0.332635 0.178750
H4    H     H_    0.928179 0.671276 0.272948 0.157187
H5    H     H_    0.833458 0.791304 0.435004 0.170555
H6    H     H_    0.981256 0.848299 0.491483 0.124018
H7    H     H_    0.639143 0.145934 0.301057 0.188624
H8    H     H_    0.755604 0.081625 0.209025 0.135279
H9    H     H_    0.711676 0.984979 0.335895 0.138507
H10   H     H_    0.914686 0.115024 0.370028 0.141080
H11   H     H_    0.798015 0.177068 0.459215 0.196230
H12   H     H_    0.101805 0.270601 0.072783 0.146003
H13   H     H_    0.761941 0.366098 0.299451 0.153039
H14   H     H_    0.894745 0.307289 0.235619 0.132605
H15   H     H_    0.300659 0.757361 0.807023 0.168543
H16   H     H_    0.150145 0.774111 0.870866 0.143052
H17   H     H_    0.248235 0.635241 0.914327 0.144466
H18   H     H_    0.077927 0.545700 0.783604 0.156256
H19   H     H_    0.228078 0.527635 0.722427 0.168340
H20   H     H_    0.194656 0.757705 0.612189 0.176293
H21   H     H_    0.047114 0.762205 0.674976 0.128072
H22   H     H_    0.259346 0.104761 0.354236 0.189609
H23   H     H_    0.159617 0.432534 0.012248 0.143548
H24   H     H_    0.378429 0.115277 0.261384 0.200516
H25   H     H_    0.634038 0.882593 0.735081 0.204596
H26   H     H_    0.746625 0.888763 0.635208 0.191928
H27   H     H_    0.740681 0.131516 0.649065 0.188308
H28   H     H_    0.619824 0.128237 0.739632 0.206048
H29   H     H_    0.369806 0.870977 0.263167 0.202148
H30   H     H_    0.256216 0.864374 0.362121 0.201887
H31   H     H_    0.025182 0.477627 0.176332 0.155306
H32   H     H_    0.181562 0.539075 0.205262 0.163878
H33   H     H_    0.227557 0.345252 0.319467 0.205968
H34   H     H_    0.091272 0.244954 0.284491 0.134486
H35   H     H_    0.907795 0.919523 0.236717 0.162503
H36   H     H_    0.055180 0.961323 0.310065 0.132060
N1    N     N_R   0.500000 0.852070 0.500000 -0.192600
N2    N     N_R   0.500000 0.147930 0.500000 -0.188232
N3    N     N_3   0.351092 0.140667 0.343862 -0.592129
N4    N     N_3   0.654917 0.856381 0.651039 -0.562570
N5    N     N_3   0.648016 0.156623 0.657591 -0.559816
N6    N     N_3   0.348195 0.841776 0.346724 -0.566364
O1    O     O_R   0.319640 0.618740 0.499990 -0.483972
O2    O     O_R   0.680360 0.381260 0.500010 -0.481419
O3    O     O_R   0.680360 0.618740 0.500010 -0.485842
O4    O     O_R   0.319640 0.381260 0.499990 -0.490146
O5    O     O_R   0.500010 0.618790 0.337200 -0.469934
O6    O     O_R   0.499990 0.381210 0.662800 -0.464130
O7    O     O_R   0.499990 0.618790 0.662800 -0.469597
O8    O     O_R   0.500010 0.381210 0.337200 -0.490798

loop_
_geom_bond_atom_site_label_1
_geom_bond_atom_site_label_2
_ccdc_geom_bond_type
C7    C10   A    
C23   O8    A    
C27   C29   T    
C25   O6    A    
C11   C13   S    
C19   C20   S    
C14   H1    S    
C20   H9    S    
C8    N1    A    
C28   C29   S    
C16   H3    S    
C7    N3    S    
C20   H8    S    
C15   C16   S    
H28   N5    S    
C3    C18   S    
C18   C19   S    
C23   C26   S    
C15   H5    S    
H22   N3    S    
C11   C30   S    
C8    C9    A    
H27   N5    S    
C19   H10   S    
C22   H18   S    
C14   H23   S    
C13   C14   S    
C25   O7    A    
C1    O4    A    
C9    N5    S    
C7    N2    A    
C18   H14   S    
C19   H11   S    
Cu1   O3    S    
C8    N4    S    
C17   H35   S    
C1    C6    S    
C1    O1    A    
C9    N2    A    
C5    C12   S    
C4    C6    A    
C20   H7    S    
C16   C17   S    
Cu2   N2    S    
C24   H16   S    
C3    C30   A    
C2    C4    A    
C15   H6    S    
Cu2   O6    S    
Cu1   O1    S    
Cu1   Cu2   S    
C13   H31   S    
H24   N3    S    
C12   O3    A    
C2    C15   S    
C6    C30   A    
C12   O2    A    
C22   C24   S    
C2    C5    A    
C17   H2    S    
C18   H13   S    
C14   H12   S    
C24   H17   S    
C17   H36   S    
C24   H15   S    
C3    C5    A    
Cu2   O2    S    
C11   H34   S    
Cu1   O5    S    
H29   N6    S    
C25   C27   S    
Cu2   O8    S    
C26   C28   T    
Cu1   O7    S    
C16   H4    S    
C21   H21   S    
C4    C21   S    
C10   N6    S    
H26   N4    S    
C13   H32   S    
H25   N4    S    
Cu2   O4    S    
C10   N1    A    
Cu1   N1    S    
H30   N6    S    
C23   O5    A    
C21   C22   S    
C21   H20   S    
C11   H33   S    
C22   H19   S    
