data_mof_unit_51910.cif
_audit_creation_date              2012-12-11T15:07:03-0500
_audit_creation_method            fapswitch 2.2
_symmetry_space_group_name_H-M    P1
_symmetry_Int_Tables_number       1
_space_group_crystal_system       triclinic
_cell_length_a                    19.762738
_cell_length_b                    11.281293
_cell_length_c                    18.733493
_cell_angle_alpha                 89.999587
_cell_angle_beta                  91.27244
_cell_angle_gamma                 90.000087
_cell_volume                      4175.58806011

loop_
_atom_site_label
_atom_site_type_symbol
_atom_type_description
_atom_site_fract_x
_atom_site_fract_y
_atom_site_fract_z
_atom_type_partial_charge
C1    C     C_R   0.760269 0.526083 0.640121 0.542553
C2    C     C_3   0.250786 0.059024 0.564091 0.050430
C3    C     C_R   0.739826 0.035634 0.151846 0.535212
C4    C     C_R   0.775062 0.133762 0.859247 0.540392
C5    C     C_R   0.224938 0.133763 0.140753 0.540391
C6    C     C_R   0.274554 0.632414 0.858704 0.540683
C7    C     C_R   0.725445 0.632416 0.141295 0.540682
C8    C     C_R   0.968313 0.353275 0.854200 0.562198
C9    C     C_R   0.031687 0.353276 0.145801 0.562192
C10   C     C_R   0.469586 0.853377 0.853548 0.562348
C11   C     C_R   0.530414 0.853377 0.146453 0.562341
C12   C     C_3   0.692756 0.142023 0.462965 -0.243203
C13   C     C_3   0.249211 0.559020 0.435908 0.050144
C14   C     C_3   0.307249 0.142009 0.537028 -0.243201
C15   C     C_3   0.192756 0.642023 0.462966 -0.243237
C16   C     C_3   0.807249 0.642009 0.537028 -0.243235
C17   C     C_3   0.693895 0.141616 0.544336 -0.219056
C18   C     C_3   0.306119 0.141578 0.455658 -0.219039
C19   C     C_3   0.193895 0.641616 0.544337 -0.219042
C20   C     C_3   0.806119 0.641577 0.455657 -0.219024
C21   C     C_3   0.753848 0.939713 0.478719 -0.229471
C22   C     C_3   0.246120 0.939713 0.521285 -0.229475
C23   C     C_3   0.253848 0.439713 0.478720 -0.229577
C24   C     C_3   0.750786 0.559024 0.564091 0.050151
C25   C     C_3   0.746119 0.439713 0.521284 -0.229582
C26   C     C_3   0.761021 0.088726 0.574164 0.047961
C27   C     C_3   0.238982 0.088720 0.425833 0.047983
C28   C     C_3   0.261021 0.588726 0.574164 0.048133
C29   C     C_3   0.738983 0.588719 0.425833 0.048155
C30   C     C_3   0.757875 0.956467 0.560307 -0.270678
C31   C     C_3   0.242106 0.956460 0.439696 -0.270687
C32   C     C_3   0.257875 0.456466 0.560307 -0.270684
C33   C     C_R   0.239730 0.526080 0.359879 0.542550
C34   C     C_3   0.742106 0.456459 0.439696 -0.270693
C35   C     C_3   0.824049 0.131985 0.533384 -0.225206
C36   C     C_3   0.175963 0.132022 0.466611 -0.225206
C37   C     C_3   0.324049 0.631986 0.533385 -0.225177
C38   C     C_3   0.675963 0.632022 0.466610 -0.225176
C39   C     C_3   0.004660 0.214396 0.459410 -0.297362
C40   C     C_3   0.995313 0.214395 0.540583 -0.297358
C41   C     C_3   0.504660 0.714396 0.459410 -0.297362
C42   C     C_3   0.495313 0.714395 0.540583 -0.297358
C43   C     C_3   0.074467 0.396945 0.490823 -0.222773
C44   C     C_R   0.260269 0.026082 0.640121 0.541577
C45   C     C_3   0.925529 0.396982 0.509181 -0.222792
C46   C     C_3   0.574467 0.896945 0.490823 -0.222753
C47   C     C_3   0.425529 0.896982 0.509181 -0.222772
C48   C     C_3   0.957406 0.419230 0.436477 0.431230
C49   C     C_3   0.042590 0.419211 0.563525 0.431240
C50   C     C_3   0.457406 0.919230 0.436477 0.431178
C51   C     C_3   0.542590 0.919212 0.563524 0.431187
C52   C     C_3   0.023175 0.342210 0.435094 0.035493
C53   C     C_3   0.976813 0.342212 0.564905 0.035467
C54   C     C_3   0.523175 0.842210 0.435094 0.035538
C55   C     C_R   0.739731 0.026079 0.359879 0.541575
C56   C     C_3   0.476813 0.842212 0.564905 0.035512
C57   C     C_3   0.819415 0.029224 0.048951 -0.226444
C58   C     C_3   0.180585 0.029224 0.951049 -0.226445
C59   C     C_3   0.312199 0.511162 0.044933 -0.224422
C60   C     C_3   0.687801 0.511162 0.955067 -0.224422
C61   C     C_R   0.773612 0.119430 0.650019 0.560071
C62   C     C_R   0.226391 0.119423 0.349978 0.560088
C63   C     C_R   0.273612 0.619429 0.650019 0.559538
C64   C     C_R   0.726391 0.619422 0.349978 0.559555
C65   C     C_3   0.822495 0.035863 0.968763 -0.228535
C66   C     C_3   0.815530 0.125006 0.451514 -0.254497
C67   C     C_3   0.177505 0.035864 0.031237 -0.228535
C68   C     C_3   0.315063 0.516664 0.964876 -0.237815
C69   C     C_3   0.684937 0.516665 0.035124 -0.237812
C70   C     C_3   0.692728 0.012968 0.029714 -0.227809
C71   C     C_3   0.307271 0.012968 0.970287 -0.227811
C72   C     C_3   0.181442 0.533148 0.028454 -0.220393
C73   C     C_3   0.818558 0.533148 0.971546 -0.220393
C74   C     C_3   0.745347 0.204341 0.060903 -0.252994
C75   C     C_3   0.254653 0.204341 0.939094 -0.252992
C76   C     C_3   0.253043 0.700072 0.062073 -0.256046
C77   C     C_3   0.184478 0.125042 0.548484 -0.254511
C78   C     C_3   0.746958 0.700071 0.937925 -0.256044
C79   C     C_3   0.749174 0.072242 0.075284 0.057160
C80   C     C_3   0.250825 0.072243 0.924716 0.057160
C81   C     C_3   0.245770 0.567883 0.073734 0.061010
C82   C     C_3   0.754230 0.567882 0.926266 0.061009
C83   C     C_3   0.761463 0.105683 0.936299 0.058069
C84   C     C_3   0.238537 0.105685 0.063701 0.058069
C85   C     C_3   0.260054 0.602363 0.935301 0.055392
C86   C     C_3   0.739946 0.602365 0.064698 0.055392
C87   C     C_3   0.700131 0.026933 0.947719 -0.253048
C88   C     C_3   0.315529 0.625007 0.451514 -0.254449
C89   C     C_3   0.299870 0.026937 0.052282 -0.253046
C90   C     C_3   0.191760 0.543492 0.946839 -0.244295
C91   C     C_3   0.808240 0.543494 0.053161 -0.244293
C92   C     C_3   0.746210 0.222059 0.978793 -0.220611
C93   C     C_3   0.253789 0.222061 0.021205 -0.220613
C94   C     C_3   0.261309 0.717627 0.980629 -0.233938
C95   C     C_3   0.738691 0.717629 0.019368 -0.233942
C96   C     C_3   0.003753 0.479695 0.040141 -0.229166
C97   C     C_3   0.996247 0.479694 0.959858 -0.229165
C98   C     C_3   0.499500 0.981876 0.040546 -0.235254
C99   C     C_3   0.684478 0.625043 0.548484 -0.254463
C100  C     C_3   0.500501 0.981876 0.959453 -0.235254
C101  C     C_3   0.063916 0.276232 0.027512 -0.221907
C102  C     C_3   0.936083 0.276233 0.972489 -0.221909
C103  C     C_3   0.566206 0.790908 0.028661 -0.229792
C104  C     C_3   0.433791 0.790913 0.971340 -0.229795
C105  C     C_3   0.942523 0.292465 0.054347 -0.258285
C106  C     C_3   0.057476 0.292464 0.945654 -0.258285
C107  C     C_3   0.445271 0.784065 0.052875 -0.253570
C108  C     C_3   0.554727 0.784062 0.947126 -0.253568
C109  C     C_R   0.947412 0.345481 0.637257 0.571756
C110  C     C_3   0.749212 0.059020 0.435908 0.050423
C111  C     C_R   0.052578 0.345479 0.362742 0.571770
C112  C     C_R   0.447412 0.845481 0.637257 0.571590
C113  C     C_R   0.552578 0.845479 0.362742 0.571605
C114  C     C_3   0.010861 0.351324 0.069214 0.056847
C115  C     C_3   0.989139 0.351323 0.930786 0.056845
C116  C     C_3   0.509357 0.852759 0.069633 0.056980
C117  C     C_3   0.490642 0.852758 0.930368 0.056980
C118  C     C_R   0.761665 0.531849 0.849691 0.538442
C119  C     C_R   0.238335 0.531849 0.150309 0.538440
C120  C     C_R   0.260174 0.035634 0.848154 0.535214
Cl1   Cl    Cl    0.598487 0.876721 0.636675 -0.645476
Cl2   Cl    Cl    0.401500 0.876755 0.363332 -0.645512
Cl3   Cl    Cl    0.098487 0.376721 0.636675 -0.645772
Cl4   Cl    Cl    0.901500 0.376755 0.363331 -0.645809
Cl5   Cl    Cl    0.971813 0.577463 0.424636 -0.551168
Cl6   Cl    Cl    0.028200 0.577448 0.575361 -0.551189
Cl7   Cl    Cl    0.471813 0.077463 0.424636 -0.551071
Cl8   Cl    Cl    0.528200 0.077448 0.575360 -0.551093
Cr1   Cr    Cr6+3 0.885690 0.492860 0.745310 1.055097
Cr2   Cr    Cr6+3 0.111880 0.178590 0.246990 1.018897
Cr3   Cr    Cr6+3 0.388120 0.678590 0.753010 1.019000
Cr4   Cr    Cr6+3 0.611880 0.678590 0.246990 1.018993
Cr5   Cr    Cr6+3 0.114310 0.492860 0.254690 1.055106
Cr6   Cr    Cr6+3 0.385690 0.992860 0.745310 1.054728
Cr7   Cr    Cr6+3 0.614310 0.992860 0.254690 1.054736
Cr8   Cr    Cr6+3 0.729880 0.332270 0.748190 1.033651
Cr9   Cr    Cr6+3 0.270120 0.332270 0.251810 1.033651
Cr10  Cr    Cr6+3 0.229880 0.832270 0.748190 1.033090
Cr11  Cr    Cr6+3 0.770120 0.832270 0.251810 1.033090
Cr12  Cr    Cr6+3 0.888120 0.178590 0.753010 1.018903
H1    H     H_    0.641684 0.127356 0.440354 0.182808
H2    H     H_    0.197700 0.898772 0.535317 0.144740
H3    H     H_    0.549083 0.690173 0.929886 0.122724
H4    H     H_    0.949917 0.183177 0.961973 0.122192
H5    H     H_    0.050082 0.183177 0.038030 0.122193
H6    H     H_    0.424039 0.701273 0.950084 0.135139
H7    H     H_    0.575953 0.701266 0.049917 0.135141
H8    H     H_    0.653397 0.084357 0.562863 0.220733
H9    H     H_    0.346607 0.084286 0.437144 0.220723
H10   H     H_    0.153396 0.584356 0.562863 0.220720
H11   H     H_    0.846607 0.584284 0.437143 0.220710
H12   H     H_    0.712952 0.879915 0.462640 0.103253
H13   H     H_    0.302244 0.398703 0.464677 0.144709
H14   H     H_    0.286982 0.879844 0.537378 0.103283
H15   H     H_    0.212952 0.379914 0.462640 0.103193
H16   H     H_    0.786982 0.379843 0.537378 0.103223
H17   H     H_    0.714659 0.914956 0.585957 0.181538
H18   H     H_    0.285317 0.914919 0.414054 0.181514
H19   H     H_    0.214659 0.414955 0.585957 0.181455
H20   H     H_    0.785316 0.414918 0.414054 0.181431
H21   H     H_    0.858906 0.076472 0.428507 0.146820
H22   H     H_    0.141094 0.076531 0.571492 0.146815
H23   H     H_    0.358906 0.576473 0.428507 0.146875
H24   H     H_    0.697699 0.398773 0.535317 0.144713
H25   H     H_    0.641094 0.576532 0.571492 0.146870
H26   H     H_    0.814665 0.214496 0.427442 0.158754
H27   H     H_    0.185357 0.214531 0.572556 0.158748
H28   H     H_    0.314664 0.714497 0.427443 0.158851
H29   H     H_    0.685357 0.714532 0.572555 0.158844
H30   H     H_    0.838494 0.217818 0.554852 0.096471
H31   H     H_    0.161543 0.217860 0.445135 0.096465
H32   H     H_    0.338494 0.717819 0.554852 0.096516
H33   H     H_    0.661544 0.717860 0.445134 0.096509
H34   H     H_    0.832294 0.937132 0.064146 0.138869
H35   H     H_    0.804006 0.914043 0.583696 0.132861
H36   H     H_    0.167705 0.937132 0.935855 0.138867
H37   H     H_    0.320117 0.419711 0.061537 0.139610
H38   H     H_    0.679884 0.419709 0.938465 0.139608
H39   H     H_    0.654434 0.068618 0.923251 0.120080
H40   H     H_    0.345567 0.068624 0.076747 0.120081
H41   H     H_    0.150618 0.597453 0.921713 0.125879
H42   H     H_    0.849382 0.597454 0.078287 0.125880
H43   H     H_    0.195968 0.914059 0.416306 0.132875
H44   H     H_    0.304006 0.414043 0.583696 0.132788
H45   H     H_    0.695967 0.414059 0.416305 0.132801
H46   H     H_    0.041723 0.148212 0.444309 0.134466
H47   H     H_    0.958249 0.148219 0.555687 0.134471
H48   H     H_    0.541723 0.648212 0.444310 0.134494
H49   H     H_    0.358316 0.127360 0.559654 0.182771
H50   H     H_    0.458249 0.648219 0.555686 0.134498
H51   H     H_    0.957150 0.185068 0.432429 0.177548
H52   H     H_    0.042822 0.185050 0.567563 0.177532
H53   H     H_    0.457150 0.685068 0.432429 0.177582
H54   H     H_    0.542822 0.685050 0.567563 0.177566
H55   H     H_    0.615870 0.837974 0.502506 0.087566
H56   H     H_    0.384086 0.838086 0.497512 0.087544
H57   H     H_    0.115870 0.337974 0.502506 0.087603
H58   H     H_    0.884086 0.338086 0.497512 0.087580
H59   H     H_    0.904304 0.477347 0.530449 0.159434
H60   H     H_    0.141684 0.627356 0.440354 0.182779
H61   H     H_    0.095740 0.477280 0.469561 0.159358
H62   H     H_    0.404303 0.977347 0.530449 0.159461
H63   H     H_    0.595740 0.977280 0.469561 0.159386
H64   H     H_    0.702931 0.232225 0.444528 0.112823
H65   H     H_    0.297077 0.232221 0.555448 0.112809
H66   H     H_    0.202930 0.732225 0.444528 0.112892
H67   H     H_    0.797078 0.732221 0.555447 0.112879
H68   H     H_    0.859699 0.083575 0.074045 0.120015
H69   H     H_    0.140301 0.083575 0.925954 0.120016
H70   H     H_    0.356790 0.558634 0.068386 0.121488
H71   H     H_    0.858316 0.627360 0.559654 0.182741
H72   H     H_    0.643210 0.558632 0.931613 0.121491
H73   H     H_    0.871131 0.071707 0.954235 0.132587
H74   H     H_    0.128869 0.071709 0.045764 0.132586
H75   H     H_    0.367210 0.541778 0.951254 0.132414
H76   H     H_    0.632790 0.541781 0.048745 0.132413
H77   H     H_    0.822973 0.944528 0.946395 0.117719
H78   H     H_    0.177027 0.944529 0.053607 0.117720
H79   H     H_    0.307446 0.427898 0.941466 0.120653
H80   H     H_    0.692554 0.427900 0.058536 0.120654
H81   H     H_    0.698601 0.922287 0.044112 0.106841
H82   H     H_    0.865825 0.070384 0.547339 0.142213
H83   H     H_    0.301396 0.922287 0.955892 0.106842
H84   H     H_    0.161819 0.447456 0.043479 0.105577
H85   H     H_    0.838181 0.447455 0.956524 0.105577
H86   H     H_    0.706330 0.939616 0.921565 0.114770
H87   H     H_    0.293671 0.939621 0.078438 0.114769
H88   H     H_    0.191097 0.455122 0.921286 0.109765
H89   H     H_    0.808902 0.455124 0.078716 0.109765
H90   H     H_    0.697705 0.239203 0.083256 0.117905
H91   H     H_    0.302295 0.239203 0.916742 0.117907
H92   H     H_    0.208055 0.748891 0.081142 0.116780
H93   H     H_    0.134172 0.070454 0.452656 0.142205
H94   H     H_    0.791946 0.748890 0.918855 0.116781
H95   H     H_    0.788519 0.250985 0.087368 0.113793
H96   H     H_    0.211481 0.250985 0.912629 0.113794
H97   H     H_    0.297488 0.734380 0.092908 0.111903
H98   H     H_    0.702513 0.734379 0.907089 0.111904
H99   H     H_    0.779113 0.294936 0.964424 0.107122
H100  H     H_    0.220885 0.294936 0.035572 0.107122
H101  H     H_    0.311471 0.748494 0.974898 0.108727
H102  H     H_    0.688529 0.748496 0.025097 0.108728
H103  H     H_    0.694107 0.247426 0.962928 0.120986
H104  H     H_    0.365825 0.570385 0.547340 0.142231
H105  H     H_    0.305891 0.247431 0.037069 0.120985
H106  H     H_    0.222998 0.780239 0.959894 0.127432
H107  H     H_    0.777002 0.780241 0.040102 0.127430
H108  H     H_    0.643132 0.046919 0.045658 0.124149
H109  H     H_    0.356868 0.046915 0.954341 0.124149
H110  H     H_    0.141872 0.598118 0.041707 0.118797
H111  H     H_    0.858129 0.598118 0.958293 0.118797
H112  H     H_    0.681322 0.228923 0.565530 0.158419
H113  H     H_    0.318716 0.228873 0.434455 0.158455
H114  H     H_    0.181321 0.728922 0.565531 0.158446
H115  H     H_    0.634172 0.570455 0.452655 0.142223
H116  H     H_    0.818716 0.728872 0.434455 0.158482
H117  H     H_    0.046340 0.536114 0.055928 0.132665
H118  H     H_    0.953660 0.536114 0.944071 0.132666
H119  H     H_    0.537799 0.045920 0.060146 0.135372
H120  H     H_    0.462203 0.045921 0.939852 0.135373
H121  H     H_    0.959061 0.523435 0.063656 0.122446
H122  H     H_    0.040939 0.523434 0.936343 0.122446
H123  H     H_    0.450726 0.017422 0.058825 0.120154
H124  H     H_    0.549275 0.017420 0.941173 0.120154
H125  H     H_    0.607599 0.848752 0.039622 0.106593
H126  H     H_    0.802244 0.898702 0.464676 0.144736
H127  H     H_    0.392400 0.848763 0.960382 0.106593
H128  H     H_    0.115555 0.285153 0.048270 0.108285
H129  H     H_    0.884444 0.285153 0.951731 0.108284
H130  H     H_    0.598030 0.823337 0.918719 0.113285
H131  H     H_    0.401969 0.823341 0.081283 0.113284
H132  H     H_    0.099510 0.346061 0.925133 0.117593
H133  H     H_    0.900489 0.346062 0.074867 0.117592
H134  H     H_    0.941557 0.205726 0.081926 0.115090
H135  H     H_    0.058442 0.205725 0.918076 0.115091
H136  H     H_    0.450914 0.690176 0.070116 0.122723
O1    O     O_R   0.957210 0.449410 0.665480 -0.409471
O2    O     O_R   0.167480 0.095300 0.164000 -0.531509
O3    O     O_R   0.332520 0.595300 0.836000 -0.532438
O4    O     O_R   0.667480 0.595300 0.164000 -0.532438
O5    O     O_R   0.946380 0.253940 0.826940 -0.507045
O6    O     O_R   0.053620 0.253940 0.173060 -0.507049
O7    O     O_R   0.446380 0.753940 0.826940 -0.507308
O8    O     O_R   0.553620 0.753940 0.173060 -0.507312
O9    O     O_3   0.834560 0.334570 0.748840 -0.313247
O10   O     O_3   0.165440 0.334570 0.251160 -0.313240
O11   O     O_3   0.334560 0.834570 0.748840 -0.310709
O12   O     O_R   0.042790 0.449410 0.334520 -0.409466
O13   O     O_3   0.665440 0.834570 0.251160 -0.310703
O14   O     O_R   0.820730 0.541240 0.668250 -0.522899
O15   O     O_R   0.179270 0.541240 0.331750 -0.522890
O16   O     O_R   0.320730 0.041240 0.668250 -0.523325
O17   O     O_R   0.679270 0.041240 0.331750 -0.523317
O18   O     O_R   0.714240 0.455060 0.663710 -0.517959
O19   O     O_R   0.285760 0.455060 0.336290 -0.517963
O20   O     O_R   0.214240 0.955060 0.663710 -0.518536
O21   O     O_R   0.785760 0.955060 0.336290 -0.518540
O22   O     O_R   0.736780 0.204870 0.675910 -0.495085
O23   O     O_R   0.457210 0.949410 0.665480 -0.409665
O24   O     O_R   0.263220 0.204870 0.324090 -0.495084
O25   O     O_R   0.236780 0.704870 0.675910 -0.495378
O26   O     O_R   0.763220 0.704870 0.324090 -0.495377
O27   O     O_R   0.833070 0.087590 0.673490 -0.532465
O28   O     O_R   0.166930 0.087590 0.326510 -0.532468
O29   O     O_R   0.333070 0.587590 0.673490 -0.532699
O30   O     O_R   0.666930 0.587590 0.326510 -0.532702
O31   O     O_R   0.946890 0.246800 0.676300 -0.489941
O32   O     O_R   0.053110 0.246800 0.323700 -0.489965
O33   O     O_R   0.446890 0.746800 0.676300 -0.490066
O34   O     O_R   0.542790 0.949410 0.334520 -0.409660
O35   O     O_R   0.553110 0.746800 0.323700 -0.490090
O36   O     O_R   0.956650 0.457120 0.827980 -0.513592
O37   O     O_R   0.043350 0.457120 0.172020 -0.513593
O38   O     O_R   0.456650 0.957120 0.827980 -0.513569
O39   O     O_R   0.543350 0.957120 0.172020 -0.513569
O40   O     O_R   0.820220 0.548390 0.818890 -0.511814
O41   O     O_R   0.179780 0.548390 0.181110 -0.511813
O42   O     O_R   0.320220 0.048390 0.818890 -0.512191
O43   O     O_R   0.679780 0.048390 0.181110 -0.512190
O44   O     O_R   0.713680 0.462770 0.826210 -0.527090
O45   O     O_R   0.736260 0.212010 0.826560 -0.502731
O46   O     O_R   0.286320 0.462770 0.173790 -0.527092
O47   O     O_R   0.213680 0.962770 0.826210 -0.527137
O48   O     O_R   0.786320 0.962770 0.173790 -0.527138
O49   O     O_R   0.263740 0.212010 0.173440 -0.502731
O50   O     O_R   0.236260 0.712010 0.826560 -0.502425
O51   O     O_R   0.763740 0.712010 0.173440 -0.502425
O52   O     O_R   0.832520 0.095300 0.836000 -0.531509

loop_
_geom_bond_atom_site_label_1
_geom_bond_atom_site_label_2
_ccdc_geom_bond_type
C92   H99   S    
C23   H15   S    
C30   H35   S    
C3    C79   S    
C37   H32   S    
C21   C110  S    
C40   H47   S    
C6    C85   S    
C1    O18   A    
C105  H134  S    
C90   H88   S    
Cr8   O9    S    
C25   H24   S    
C72   H84   S    
C19   H10   S    
C21   H12   S    
C74   C92   S    
Cr11  O26   S    
C41   H53   S    
C76   C94   S    
C48   Cl5   S    
C14   H49   S    
C100  H124  S    
C96   H117  S    
C88   H28   S    
C43   H61   S    
C3    O43   A    
Cr12  O9    S    
C97   C115  S    
C64   O30   A    
Cr6   O38   S    
C59   H70   S    
C25   C34   S    
C29   C64   S    
C78   H98   S    
C37   H104  S    
C96   C114  S    
C11   O8    A    
Cr1   O36   S    
C112  O23   A    
C27   C31   S    
Cr9   O19   S    
C35   C66   S    
C118  O44   A    
C119  O41   A    
C66   H21   S    
C76   H97   S    
C13   C33   S    
C39   H51   S    
C42   H50   S    
C40   H52   S    
C16   C20   S    
C119  O46   A    
C43   H57   S    
C66   C110  S    
C60   H72   S    
C33   O19   A    
Cr8   O18   S    
Cr7   O39   S    
C46   H63   S    
C74   C79   S    
C23   H13   S    
C51   Cl1   S    
C9    C114  S    
Cr11  O13   S    
C75   C93   S    
C104  C117  S    
Cr1   O40   S    
C53   C109  S    
C77   H22   S    
C5    O49   A    
C70   C79   S    
C26   C61   S    
C67   H78   S    
C106  H135  S    
C85   C90   S    
C81   C119  S    
C17   H112  S    
C61   O27   A    
C20   H11   S    
C106  C115  S    
C36   C77   S    
Cr10  O25   S    
Cr1   O9    S    
C103  C116  S    
C36   H93   S    
Cr5   O41   S    
C65   H77   S    
C49   C53   S    
C46   C51   S    
C84   C93   S    
C103  H125  S    
C2    C14   S    
C15   H66   S    
C86   C95   S    
C28   C63   S    
C26   C35   S    
C48   C52   S    
Cr11  O48   S    
Cr5   O10   S    
C44   O20   A    
C91   H42   S    
C35   H30   S    
Cr4   O13   S    
C50   Cl7   S    
C93   H100  S    
C71   H109  S    
C104  C107  S    
C99   H25   S    
C112  O33   A    
C102  H129  S    
C69   H80   S    
Cr2   O10   S    
Cr3   O7    S    
C103  H7    S    
C49   Cl6   S    
Cr3   O33   S    
C101  H5    S    
C113  O35   A    
C51   Cl8   S    
Cr5   O15   S    
C43   C52   S    
C7    C86   S    
C4    O52   A    
C70   H81   S    
C12   H1    S    
C13   C23   S    
C6    O50   A    
C68   H75   S    
C95   H107  S    
C2    C44   S    
C29   C38   S    
C76   H92   S    
C111  O12   A    
Cr5   O12   S    
C45   C53   S    
C25   H16   S    
C68   C85   S    
C22   H2    S    
C69   H76   S    
C102  H4    S    
C70   C87   S    
C97   H118  S    
C47   C50   S    
C9    O37   A    
Cr4   O4    S    
Cr11  O51   S    
C104  H6    S    
Cr8   O45   S    
C17   H8    S    
C39   C40   S    
C5    C84   S    
Cr10  O11   S    
C47   H62   S    
C2    C22   S    
C27   C62   S    
C72   C90   S    
C58   C67   S    
C90   H41   S    
C78   H94   S    
C87   H86   S    
C8    O36   A    
Cr12  O52   S    
C75   H96   S    
C19   C28   S    
C21   H126  S    
C101  H128  S    
Cr1   O14   S    
C26   C30   S    
C7    O51   A    
C4    O45   A    
C58   H69   S    
C101  C106  S    
C118  O40   A    
Cr2   O28   S    
C108  C117  S    
C16   H71   S    
C5    O2    A    
Cr4   O30   S    
C109  O1    A    
C100  C117  S    
C77   H27   S    
C109  O31   A    
C105  H133  S    
C108  H130  S    
Cr7   O17   S    
C10   C117  S    
C15   H60   S    
Cr7   O43   S    
C60   C69   S    
Cr8   O44   S    
Cr10  O50   S    
C9    O6    A    
C12   H64   S    
Cr4   O35   S    
C107  C116  S    
C55   O17   A    
C1    C24   S    
C67   H74   S    
C74   H95   S    
C70   H108  S    
C47   C56   S    
C73   H111  S    
C98   H119  S    
C30   H17   S    
C83   C87   S    
C41   C42   S    
C37   C88   S    
C50   Cl2   S    
C104  H127  S    
Cr5   O37   S    
C16   H67   S    
C80   C120  S    
C15   C19   S    
C57   H68   S    
C50   C54   S    
C91   H89   S    
C94   H101  S    
Cr6   O16   S    
C86   C91   S    
C92   H103  S    
C60   H38   S    
C49   Cl3   S    
C102  C105  S    
C89   H40   S    
C14   C18   S    
C102  C115  S    
C42   C56   S    
C39   H46   S    
C55   O21   A    
C12   C17   S    
Cr3   O3    S    
C72   C81   S    
C58   C80   S    
C32   H19   S    
C38   H115  S    
Cr3   O29   S    
Cr10  O47   S    
C101  C114  S    
C6    O3    A    
C12   C110  S    
Cr9   O49   S    
C20   H116  S    
C64   O26   A    
C47   H56   S    
C68   H79   S    
C35   H82   S    
C107  H131  S    
C29   C34   S    
C41   H48   S    
C10   O7    A    
C34   H45   S    
C28   C32   S    
C78   C95   S    
C46   C54   S    
Cr6   O11   S    
C11   C116  S    
C94   H106  S    
C97   H122  S    
Cr4   O8    S    
C98   C100  S    
C45   H59   S    
C7    O4    A    
C73   C82   S    
C45   C48   S    
C59   C81   S    
C57   C65   S    
C38   C99   S    
C27   C36   S    
C21   C30   S    
C113  O34   A    
C23   C32   S    
C62   O28   A    
C2    C77   S    
C4    C83   S    
C1    O14   A    
Cr6   O23   S    
C31   H18   S    
C95   H102  S    
C57   H34   S    
C14   H65   S    
C72   H110  S    
C108  H3    S    
C34   H20   S    
Cr3   O11   S    
C100  H120  S    
C106  H132  S    
C96   H121  S    
C24   C99   S    
C62   O24   A    
C57   C79   S    
C63   O29   A    
Cr12  O5    S    
C74   H90   S    
Cr6   O42   S    
C46   H55   S    
C65   H73   S    
C83   C92   S    
C17   C26   S    
Cr9   O10   S    
Cr11  O21   S    
C65   C83   S    
C120  O47   A    
C54   C113  S    
C51   C56   S    
C42   H54   S    
C78   C82   S    
Cr7   O34   S    
C60   C82   S    
C98   H123  S    
C28   C37   S    
Cr1   O1    S    
C103  C108  S    
C120  O42   A    
C18   H9    S    
C75   C80   S    
C8    C115  S    
C39   C52   S    
C67   C84   S    
C16   C24   S    
C89   H87   S    
C71   C80   S    
C33   O15   A    
Cr8   O22   S    
C20   C29   S    
C18   H113  S    
C111  O32   A    
C71   H83   S    
C22   C31   S    
C66   H26   S    
C105  C114  S    
C59   H37   S    
C24   C25   S    
C73   C91   S    
Cr10  O20   S    
Cr9   O46   S    
C43   C49   S    
C38   H33   S    
C52   C111  S    
C45   H58   S    
Cr2   O2    S    
C107  H136  S    
C59   C68   S    
Cr7   O13   S    
C85   C94   S    
C19   H114  S    
C98   C116  S    
C3    O48   A    
C71   C89   S    
C96   C97   S    
C75   H91   S    
C93   H105  S    
Cr12  O27   S    
C63   O25   A    
C13   C15   S    
C55   C110  S    
C84   C89   S    
C22   H14   S    
C36   H31   S    
C61   O22   A    
C44   O16   A    
C31   H43   S    
C32   H44   S    
C58   H36   S    
C18   C27   S    
C76   C81   S    
C48   Cl4   S    
C99   H29   S    
C88   H23   S    
C10   O38   A    
Cr2   O6    S    
C73   H85   S    
C8    O5    A    
Cr2   O32   S    
C11   O39   A    
C13   C88   S    
C41   C54   S    
C87   H39   S    
Cr12  O31   S    
C40   C53   S    
C82   C118  S    
Cr9   O24   S    
C56   C112  S    
C69   C86   S    
