data_mof_unit_48996.cif
_audit_creation_date              2012-12-11T20:41:33-0500
_audit_creation_method            fapswitch 2.2
_symmetry_space_group_name_H-M    P1
_symmetry_Int_Tables_number       1
_space_group_crystal_system       triclinic
_cell_length_a                    8.243635
_cell_length_b                    18.883986
_cell_length_c                    26.998426
_cell_angle_alpha                 97.266358
_cell_angle_beta                  92.247186
_cell_angle_gamma                 86.397901
_cell_volume                      4158.85160026

loop_
_atom_site_label
_atom_site_type_symbol
_atom_type_description
_atom_site_fract_x
_atom_site_fract_y
_atom_site_fract_z
_atom_type_partial_charge
Ba1   Ba    Ba6+2 0.852670 0.466460 0.522850 1.663388
Ba2   Ba    Ba6+2 0.337150 0.533490 0.477140 1.663390
C1    C     C_3   0.514823 0.237512 0.674728 -0.364810
C2    C     C_R   0.955843 0.575957 0.182970 0.585194
C3    C     C_2   0.775985 0.553362 0.273902 -0.087465
C4    C     C_3   0.082309 0.229681 0.636049 0.301735
C5    C     C_3   0.752708 0.574032 0.329253 -0.105705
C6    C     C_1   0.983862 0.489910 0.343348 0.039761
C7    C     C_2   0.025110 0.484614 0.295642 -0.086854
C8    C     C_2   0.914488 0.516729 0.257624 0.217650
C9    C     C_R   0.036233 0.508991 0.103452 -0.080293
C10   C     C_R   0.044963 0.445933 0.126615 -0.034215
C11   C     C_R   0.092006 0.381128 0.098146 -0.061294
C12   C     C_3   0.549002 0.300104 0.647173 0.344700
C13   C     C_R   0.991085 0.574311 0.132020 -0.026294
C14   C     C_2   0.855531 0.528606 0.361539 -0.263757
C15   C     C_2   0.351800 0.484738 0.641372 -0.275676
C16   C     C_3   0.977325 0.204397 0.674915 -0.227444
C17   C     C_R   0.167987 0.439765 0.972706 0.019545
C18   C     C_R   0.086128 0.568138 0.976539 0.019999
C19   C     C_R   0.145098 0.503037 0.949060 0.049428
C20   C     C_R   0.234713 0.377336 0.944242 -0.098890
C21   C     C_R   0.273554 0.376698 0.894355 -0.063389
C22   C     C_R   0.246819 0.437982 0.870131 -0.031120
C23   C     C_3   0.518018 0.646702 0.630258 0.301535
C24   C     C_R   0.181944 0.501293 0.897403 -0.078751
C25   C     C_R   0.154529 0.562986 0.873086 -0.032922
C26   C     C_R   0.192154 0.560675 0.822142 0.585633
C27   C     C_R   0.284742 0.437354 0.819282 0.587749
C28   C     C_3   0.203762 0.317334 0.411276 0.328160
C29   C     C_2   0.455280 0.483882 0.729361 -0.078628
C30   C     C_3   0.499894 0.490513 0.676077 -0.074473
C31   C     C_1   0.212001 0.514598 0.657484 0.048608
C32   C     C_2   0.171902 0.515283 0.704831 -0.082937
C33   C     C_2   0.299165 0.497722 0.743657 0.217842
C34   C     C_3   0.502418 0.674597 0.685361 -0.373635
C35   C     C_R   0.125052 0.441070 0.023773 0.019551
C36   C     C_R   0.072956 0.506889 0.051759 0.049420
C37   C     C_R   0.057296 0.570752 0.028645 0.020550
C38   C     C_R   0.131486 0.378647 0.048096 -0.100424
C39   C     C_R   0.982876 0.637168 0.109255 -0.066140
C40   C     C_3   0.202513 0.235895 0.400087 -0.204727
C41   C     C_R   0.056827 0.628572 0.950585 -0.102060
C42   C     C_R   0.090250 0.625929 0.900194 -0.062726
C43   C     C_R   0.014752 0.635548 0.058886 -0.102990
C44   C     C_2   0.414658 0.300747 0.522756 -0.228857
C45   C     C_3   0.001513 0.722326 0.346491 0.329132
C46   C     C_3   0.326959 0.253101 0.552432 -0.080984
C47   C     C_2   0.363916 0.174281 0.536053 -0.121390
C48   C     C_2   0.491965 0.151544 0.507047 -0.059995
C49   C     C_2   0.582585 0.206076 0.485468 -0.128025
C50   C     C_1   0.532462 0.274661 0.492568 0.052655
C51   C     C_R   0.651799 0.933335 0.491306 0.452144
C52   C     C_3   0.010908 0.682759 0.583703 0.307038
C53   C     C_R   0.546152 0.074103 0.499362 0.459673
C54   C     C_R   0.615429 0.807986 0.508946 -0.110408
C55   C     C_R   0.664926 0.735372 0.505410 0.057519
C56   C     C_3   0.020610 0.749965 0.296720 -0.310914
C57   C     C_R   0.903475 0.757104 0.461916 -0.007842
C58   C     C_R   0.855535 0.830297 0.465060 -0.147738
C59   C     C_R   0.708161 0.856341 0.487849 -0.064762
C60   C     C_R   0.803748 0.709978 0.479889 -0.270560
C61   C     C_3   0.994186 0.763398 0.597944 -0.383741
C62   C     C_3   0.669312 0.379249 0.372855 0.293044
C63   C     C_3   0.673621 0.361100 0.316402 -0.359493
C64   C     C_3   0.291590 0.207352 0.352487 -0.414728
C65   C     C_R   0.081099 0.173103 0.714827 -0.004085
C66   C     C_R   0.166994 0.217984 0.750739 -0.062351
C67   C     C_3   0.536426 0.714907 0.331527 0.332941
C68   C     C_R   0.266706 0.188816 0.787030 -0.050653
C69   C     C_R   0.279982 0.114843 0.788068 -0.061811
C70   C     C_R   0.193651 0.069856 0.752763 -0.054504
C71   C     C_R   0.094470 0.098757 0.716236 -0.040993
C72   C     C_R   0.572211 0.835519 0.306288 -0.005950
C73   C     C_R   0.615093 0.848095 0.258415 -0.044399
C74   C     C_R   0.730844 0.897386 0.252978 -0.060486
C75   C     C_R   0.804334 0.934477 0.295175 -0.064429
C76   C     C_R   0.761883 0.922488 0.342883 -0.059408
C77   C     C_R   0.645816 0.873426 0.348481 -0.057535
C78   C     C_3   0.451207 0.780898 0.312431 -0.215068
C79   C     C_R   0.004577 0.448862 0.177578 0.592333
H1    H     H_    0.604736 0.278851 0.611092 0.058838
H2    H     H_    0.578324 0.424390 0.381706 0.085897
H3    H     H_    0.629477 0.207368 0.683788 0.116835
H4    H     H_    0.768825 0.317930 0.306445 0.132267
H5    H     H_    0.701305 0.408897 0.299007 0.078506
H6    H     H_    0.553599 0.343058 0.301465 0.128076
H7    H     H_    0.431215 0.330266 0.640802 -0.066670
H8    H     H_    0.436527 0.200328 0.651059 0.051416
H9    H     H_    0.395625 0.632760 0.614929 0.028859
H10   H     H_    0.602704 0.598350 0.626512 0.031788
H11   H     H_    0.424972 0.725162 0.689549 0.137920
H12   H     H_    0.262077 0.211121 0.431738 0.074850
H13   H     H_    0.445156 0.635113 0.705140 0.078360
H14   H     H_    0.624490 0.684750 0.702723 0.123446
H15   H     H_    0.453125 0.257597 0.710023 0.147592
H16   H     H_    0.991199 0.663603 0.339746 0.028654
H17   H     H_    0.888248 0.748921 0.362852 -0.072793
H18   H     H_    0.119751 0.718289 0.275860 0.151298
H19   H     H_    0.905376 0.745217 0.274233 0.124210
H20   H     H_    0.049255 0.807178 0.302840 0.097725
H21   H     H_    0.641007 0.698196 0.307078 -0.030880
H22   H     H_    0.581056 0.729372 0.370773 -0.013560
H23   H     H_    0.074710 0.219893 0.396219 0.144664
H24   H     H_    0.357602 0.805191 0.338901 0.133056
H25   H     H_    0.145962 0.277423 0.653443 -0.011199
H26   H     H_    0.388592 0.764173 0.275997 0.091852
H27   H     H_    0.140866 0.458363 0.284104 0.117601
H28   H     H_    0.098689 0.331508 0.114561 0.119251
H29   H     H_    0.550949 0.473708 0.756803 0.094450
H30   H     H_    0.325541 0.327482 0.874751 0.103996
H31   H     H_    0.261976 0.327941 0.959703 0.065587
H32   H     H_    0.163735 0.326265 0.029194 0.066914
H33   H     H_    0.691827 0.576782 0.247721 0.098356
H34   H     H_    0.890876 0.662845 0.571779 0.005743
H35   H     H_    0.950771 0.688481 0.130415 0.114294
H36   H     H_    0.004725 0.678937 0.967888 0.067310
H37   H     H_    0.171678 0.185223 0.623799 -0.010723
H38   H     H_    0.065546 0.674021 0.882464 0.120452
H39   H     H_    0.048334 0.530362 0.716033 0.114966
H40   H     H_    0.008143 0.686738 0.045080 0.065944
H41   H     H_    0.838635 0.538991 0.401517 0.077369
H42   H     H_    0.361375 0.458555 0.603326 0.068103
H43   H     H_    0.295815 0.136157 0.552274 0.088813
H44   H     H_    0.688346 0.189087 0.463261 0.103496
H45   H     H_    0.095576 0.670716 0.552456 0.070341
H46   H     H_    0.507127 0.826650 0.529264 0.102336
H47   H     H_    0.932834 0.866270 0.450200 0.093582
H48   H     H_    0.392302 0.358036 0.531922 0.063953
H49   H     H_    0.899265 0.250061 0.692383 0.136009
H50   H     H_    0.841298 0.653761 0.477754 0.052216
H51   H     H_    0.896643 0.163674 0.655782 0.098982
H52   H     H_    0.329751 0.333566 0.412136 0.010242
H53   H     H_    0.150692 0.334336 0.448318 0.051145
H54   H     H_    0.286922 0.148275 0.345793 0.123096
H55   H     H_    0.420938 0.220783 0.356270 0.147769
H56   H     H_    0.904448 0.776941 0.627808 0.135263
H57   H     H_    0.233471 0.230327 0.319832 0.163918
H58   H     H_    0.157593 0.275384 0.750284 0.112069
H59   H     H_    0.334367 0.223456 0.814199 0.086407
H60   H     H_    0.357283 0.092382 0.816186 0.064131
H61   H     H_    0.204075 0.012547 0.753572 0.066471
H62   H     H_    0.029425 0.063140 0.688870 0.063730
H63   H     H_    0.560473 0.819264 0.225340 0.065006
H64   H     H_    0.764128 0.906580 0.216035 0.064512
H65   H     H_    0.894399 0.972388 0.290907 0.067989
H66   H     H_    0.819318 0.951122 0.375466 0.098048
H67   H     H_    0.952640 0.790370 0.565241 0.064414
H68   H     H_    0.613483 0.864626 0.385553 0.065877
H69   H     H_    0.113622 0.783555 0.611644 0.124942
H70   H     H_    0.790504 0.395140 0.387263 0.014487
N1    N     N_R   0.959278 0.513511 0.205296 -0.421678
N2    N     N_R   0.257152 0.498359 0.795768 -0.424368
N3    N     N_R   0.506404 0.955953 0.511519 -0.243964
N4    N     N_R   0.455039 0.024635 0.515567 -0.245981
N5    N     N_R   0.691214 0.051571 0.478685 -0.245529
N6    N     N_R   0.742888 0.982655 0.474721 -0.255403
O1    O     O_2   0.914730 0.537460 0.618690 -0.463618
O2    O     O_2   0.241415 0.752078 0.470251 -0.471779
O3    O     O_3   0.138701 0.738016 0.377435 -0.569002
O4    O     O_3   0.146720 0.537410 0.558510 -0.492264
O5    O     O_3   0.553920 0.415280 0.473710 -0.499996
O6    O     O_2   0.383540 0.672140 0.526840 -0.459957
O7    O     O_3   0.579436 0.700144 0.605975 -0.643034
O8    O     O_2   0.441726 0.520001 0.324557 -0.486990
O9    O     O_3   0.428235 0.659637 0.329016 -0.557671
O10   O     O_2   0.007814 0.393705 0.196947 -0.600888
O11   O     O_2   0.341515 0.382344 0.795883 -0.615752
O12   O     O_3   0.628009 0.318865 0.393643 -0.645777
O13   O     O_2   0.922981 0.633481 0.207621 -0.631714
O14   O     O_2   0.169227 0.614576 0.801474 -0.599669
O15   O     O_3   0.666360 0.409390 0.586570 -0.476768
O16   O     O_2   0.834229 0.448046 0.670890 -0.471729
O17   O     O_3   0.069994 0.651571 0.625568 -0.630146
O18   O     O_3   0.658489 0.342894 0.676171 -0.581723
O19   O     O_2   0.806150 0.327840 0.473120 -0.434157
O20   O     O_3   0.073640 0.373350 0.561550 -0.462452
O21   O     O_2   0.031243 0.252487 0.501099 -0.485323
O22   O     O_3   0.983449 0.246081 0.595035 -0.568883
O23   O     O_2   0.274960 0.462520 0.381280 -0.461686
O24   O     O_3   0.042980 0.462530 0.441480 -0.491642
O25   O     O_3   0.523340 0.590550 0.413420 -0.458457
O26   O     O_3   0.113667 0.348490 0.373922 -0.635817
O27   O     O_3   0.635780 0.584660 0.526290 -0.479202
O28   O     O_3   0.116060 0.626590 0.438450 -0.474226
P1    P     P_3+3 0.084800 0.558370 0.611580 0.997389
P2    P     P_3+3 0.628800 0.338360 0.458800 0.975531
P3    P     P_3+3 0.104903 0.279934 0.552847 0.974275
P4    P     P_3+3 0.104900 0.441570 0.388420 0.989917
P5    P     P_3+3 0.099987 0.719587 0.437510 0.982186
P6    P     P_3+3 0.664276 0.424359 0.652107 1.000676
P7    P     P_3+3 0.568783 0.674503 0.541429 0.952315
P8    P     P_3+3 0.536319 0.584550 0.348359 0.973500

loop_
_geom_bond_atom_site_label_1
_geom_bond_atom_site_label_2
_ccdc_geom_bond_type
C19   C24   A    
Ba1   O19   S    
C68   H59   S    
C4    O22   S    
C40   H12   S    
C28   O26   S    
C16   H51   S    
O9    P8    S    
C41   C42   A    
Ba2   O5    S    
C44   H48   S    
C45   H17   S    
C63   H5    S    
C61   H69   S    
Ba1   P1    S    
C7    H27   S    
C53   N4    A    
C57   P5    S    
C52   H45   S    
C78   H26   S    
C23   H9    S    
O4    P1    S    
O20   P3    S    
C15   C31   D    
C27   O11   D    
Ba1   O1    S    
C17   C19   A    
C22   C24   A    
C46   P3    S    
C35   C38   A    
O23   P4    D    
O18   P6    S    
C36   C37   A    
C3    H33   S    
C67   H21   S    
C52   C61   S    
C23   O7    S    
C44   C50   D    
C54   C55   A    
C32   C33   S    
Ba2   O25   S    
C54   H46   S    
C62   O12   S    
C14   H41   S    
C22   C27   A    
C11   C38   A    
C11   H28   S    
C17   C35   A    
C8    N1    S    
C67   O9    S    
O24   P4    S    
C25   C42   A    
C15   H42   S    
C77   H68   S    
C29   C30   S    
C6    C7    D    
C28   H53   S    
C21   C22   A    
Ba2   P4    S    
C1    H15   S    
C65   C71   A    
C50   P2    S    
C5    P8    S    
C7    C8    S    
C37   C43   A    
O21   P3    D    
C34   H11   S    
Ba1   P2    S    
Ba1   O4    S    
C57   C58   A    
C6    C14   D    
C72   C78   S    
C61   H56   S    
O2    P5    D    
Ba2   O23   S    
C4    C16   S    
O1    P1    D    
Ba2   O4    S    
Ba1   O27   S    
C63   H6    S    
C45   O3    S    
C67   H22   S    
O15   P6    S    
C32   H39   S    
C53   N5    A    
C2    N1    Am   
C44   C46   S    
C23   H10   S    
C72   C73   A    
C62   H70   S    
C49   C50   D    
C49   H44   S    
C55   C60   A    
C17   C20   A    
C56   H19   S    
C74   C75   A    
C13   C39   A    
C55   P7    S    
C3    C5    S    
C18   C37   A    
Ba1   O24   S    
C76   C77   A    
O22   P3    S    
C42   H38   S    
C43   H40   S    
C16   C65   S    
C75   C76   A    
C47   H43   S    
C78   H24   S    
O16   P6    D    
C65   C66   A    
C30   P6    S    
C40   H23   S    
C58   C59   A    
Ba2   O24   S    
C9    C36   A    
C70   H61   S    
C73   C74   A    
C62   H2    S    
C35   C36   A    
C26   O14   D    
C38   H32   S    
C64   H57   S    
C58   H47   S    
C6    P4    S    
C28   H52   S    
C52   H34   S    
O27   P7    S    
C48   C49   S    
C4    H25   S    
C56   H20   S    
Ba2   O27   S    
C10   C11   A    
C79   O10   D    
O12   P2    S    
N3    N4    A    
O6    P7    D    
C1    C12   S    
C2    O13   D    
C76   H66   S    
C41   H36   S    
C64   H55   S    
O26   P4    S    
C46   C47   S    
C74   H64   S    
C9    C13   A    
C72   C77   A    
C24   C25   A    
C26   N2    Am   
C29   C33   D    
C16   H49   S    
C12   H1    S    
C39   H35   S    
C51   C59   S    
C61   H67   S    
C25   C26   A    
C18   C41   A    
O19   P2    D    
C27   N2    Am   
C71   H62   S    
C12   O18   S    
N5    N6    A    
C57   C60   A    
C54   C59   A    
C60   H50   S    
C5    C14   S    
C56   H18   S    
C33   N2    S    
C70   C71   A    
C67   C78   S    
O8    P8    D    
Ba2   O6    S    
Ba1   O5    S    
C9    C10   A    
C63   H4    S    
C31   P1    S    
C79   N1    Am   
C21   H30   S    
Ba1   O15   S    
C51   N6    A    
C48   C53   S    
C45   H16   S    
C69   H60   S    
C1    H8    S    
C62   C63   S    
C52   O17   S    
C2    C13   A    
O25   P8    S    
Ba2   O28   S    
O3    P5    S    
C3    C8    D    
O17   P1    S    
C45   C56   S    
C34   H14   S    
O5    P2    S    
Ba1   Ba2   S    
C29   H29   S    
C31   C32   D    
C10   C79   A    
C68   C69   A    
C73   H63   S    
C23   C34   S    
C12   H7    S    
C64   H54   S    
C34   H13   S    
O28   P5    S    
C51   N3    A    
C69   C70   A    
C18   C19   A    
C66   C68   A    
C47   C48   D    
C1    H3    S    
C40   C64   S    
C15   C30   S    
C39   C43   A    
C20   C21   A    
C28   C40   S    
C66   H58   S    
O7    P7    S    
Ba1   O20   S    
C75   H65   S    
C4    H37   S    
C20   H31   S    
