data_mof_unit_9561.cif
_audit_creation_date              2012-12-10T16:42:56-0500
_audit_creation_method            fapswitch 2.2
_symmetry_space_group_name_H-M    P1
_symmetry_Int_Tables_number       1
_space_group_crystal_system       triclinic
_cell_length_a                    7.471753
_cell_length_b                    8.681483
_cell_length_c                    13.005963
_cell_angle_alpha                 87.518866
_cell_angle_beta                  80.593737
_cell_angle_gamma                 102.928633
_cell_volume                      808.398443535

loop_
_atom_site_label
_atom_site_type_symbol
_atom_type_description
_atom_site_fract_x
_atom_site_fract_y
_atom_site_fract_z
_atom_type_partial_charge
C1    C     C_R   0.452736 0.199765 0.503287 0.868309
C2    C     C_R   0.547264 0.800235 0.496713 0.868314
C3    C     C_R   0.470056 0.499407 0.700445 0.882103
C4    C     C_R   0.529946 0.500593 0.299554 0.882099
C5    C     C_R   0.536572 0.484996 0.188665 -0.245570
C6    C     C_R   0.463445 0.515017 0.811330 -0.245539
C7    C     C_R   0.350275 0.632241 0.966034 -0.214891
C8    C     C_R   0.649785 0.367809 0.033954 -0.214931
C9    C     C_R   0.355925 0.612613 0.860694 0.495066
C10   C     C_R   0.644105 0.387414 0.139299 0.495119
C11   C     C_R   0.574169 0.442574 0.866438 0.384377
C12   C     C_R   0.425875 0.557461 0.133552 0.384373
C13   C     C_R   0.556553 0.452189 0.974923 -0.084601
C14   C     C_R   0.443501 0.547856 0.025066 -0.084519
C15   C     C_2   0.426344 0.031706 0.504963 -0.284341
C16   C     C_2   0.573656 0.968294 0.495037 -0.284337
Cu1   Cu    Cu3+1 0.686350 0.517570 0.488220 1.134065
Cu2   Cu    Cu3+1 0.313650 0.482430 0.511780 1.134088
H1    H     H_    0.270616 0.712494 0.001140 0.208826
H2    H     H_    0.729475 0.287581 0.998843 0.208821
H3    H     H_    0.284475 0.959831 0.514422 0.215331
H4    H     H_    0.715525 0.040169 0.485579 0.215322
N1    N     N_2   0.033570 0.455950 0.529530 0.211084
N2    N     N_2   0.966430 0.544050 0.470470 0.211060
O1    O     O_R   0.621060 0.286250 0.492350 -0.523389
O2    O     O_R   0.378940 0.713750 0.507650 -0.523383
O3    O     O_R   0.306310 0.256580 0.512240 -0.575451
O4    O     O_R   0.693690 0.743420 0.487760 -0.575449
O5    O     O_R   0.631800 0.512400 0.642670 -0.564217
O6    O     O_R   0.368200 0.487600 0.357330 -0.564194
O7    O     O_R   0.317060 0.482730 0.662570 -0.578120
O8    O     O_R   0.682940 0.517270 0.337430 -0.578149
O9    O     O_3   0.312014 0.646856 0.184589 -0.572023
C17   C     C_3   0.124736 0.558259 0.201115 -0.073640
H5    H     H_    0.033293 0.635619 0.233109 0.218642
H6    H     H_    0.101988 0.453975 0.258343 0.197688
H7    H     H_    0.078736 0.517068 0.127889 0.130477
O10   O     O_3   0.688014 0.353161 0.815401 -0.571998
C18   C     C_3   0.875311 0.441713 0.798898 -0.073572
H8    H     H_    0.921137 0.483373 0.872089 0.130520
H9    H     H_    0.898208 0.545690 0.741387 0.197979
H10   H     H_    0.966795 0.364152 0.767231 0.218327
F1    F     F_    0.737564 0.305442 0.194203 -0.671943
F2    F     F_    0.262455 0.694576 0.805790 -0.671947
F3    F     F_    0.913934 0.323733 0.575365 -0.557858
F4    F     F_    0.086050 0.676283 0.424667 -0.557929

loop_
_geom_bond_atom_site_label_1
_geom_bond_atom_site_label_2
_ccdc_geom_bond_type
C11   O10   S    
C3    O7    A    
N1    N2    D    
C8    C13   A    
N1    F3    S    
C2    C16   S    
C1    O3    A    
C17   H7    S    
Cu1   O5    S    
C17   H6    S    
Cu2   O2    S    
C3    C6    S    
Cu1   O1    S    
C6    C9    A    
O9    C17   S    
C12   O9    S    
N2    F4    S    
C5    C10   A    
C2    O2    A    
C4    O8    A    
C13   C14   A    
C1    O1    A    
C11   C13   A    
C3    O5    A    
C8    H2    S    
C1    C15   S    
C8    C10   A    
C12   C14   A    
Cu1   Cu2   S    
C18   H10   S    
C7    H1    S    
C6    C11   A    
Cu2   O6    S    
Cu1   N2    S    
Cu2   N1    S    
C15   H3    S    
O10   C18   S    
C5    C12   A    
C18   H9    S    
C17   H5    S    
C18   H8    S    
C7    C9    A    
Cu1   O8    S    
C9    F2    S    
C2    O4    A    
Cu2   O7    S    
C10   F1    S    
Cu1   O4    S    
C7    C14   A    
C4    O6    A    
Cu2   O3    S    
C15   C16   D    
C16   H4    S    
C4    C5    S    
