data_mof_unit_61157.cif
_audit_creation_date              2012-12-11T14:43:36-0500
_audit_creation_method            fapswitch 2.2
_symmetry_space_group_name_H-M    P1
_symmetry_Int_Tables_number       1
_space_group_crystal_system       triclinic
_cell_length_a                    8.499304
_cell_length_b                    15.25954
_cell_length_c                    18.94442
_cell_angle_alpha                 97.555956
_cell_angle_beta                  93.184449
_cell_angle_gamma                 99.350265
_cell_volume                      2395.86817392

loop_
_atom_site_label
_atom_site_type_symbol
_atom_type_description
_atom_site_fract_x
_atom_site_fract_y
_atom_site_fract_z
_atom_type_partial_charge
Ba1   Ba    Ba6+2 0.852920 0.542430 0.466290 1.865921
Ba2   Ba    Ba6+2 0.336920 0.457650 0.533720 1.930133
C1    C     C_3   0.747669 0.861211 0.249298 0.761999
C2    C     C_3   0.693366 0.781172 0.291423 0.890587
C3    C     C_3   0.402619 0.285118 0.305855 0.373738
C4    C     C_3   0.373565 0.232164 0.229477 0.664962
C5    C     C_3   0.064721 0.270471 0.730316 0.846670
C6    C     C_3   0.042013 0.234864 0.802076 0.544844
C7    C     C_3   0.499961 0.221904 0.716726 0.456482
C8    C     C_3   0.427558 0.145054 0.756040 0.621397
C9    C     C_2   0.290554 0.529901 0.297507 -0.084441
C10   C     C_3   0.399826 0.576316 0.248785 -0.043943
C11   C     C_2   0.354051 0.553121 0.169748 0.038832
C12   C     C_3   0.159876 0.752044 0.279866 0.587079
C13   C     C_2   0.207741 0.504568 0.146687 -0.008667
C14   C     C_2   0.109119 0.458776 0.200274 -0.018300
C15   C     C_1   0.154302 0.476067 0.271283 0.027505
C16   C     C_R   0.042161 0.496718 0.929556 0.511852
C17   C     C_R   0.144907 0.501117 0.069938 0.486144
C18   C     C_R   0.085533 0.534720 0.803270 0.049527
C19   C     C_R   0.040017 0.517725 0.728221 0.032564
C20   C     C_R   0.782386 0.436197 0.753432 -0.049874
C21   C     C_R   0.830303 0.449090 0.827097 0.071341
C22   C     C_R   0.986622 0.493017 0.852108 0.057450
C23   C     C_3   0.234607 0.803820 0.222326 -0.315184
C24   C     C_R   0.893378 0.462049 0.704796 0.345106
C25   C     C_R   0.755208 0.236332 0.526452 0.327024
C26   C     C_R   0.840185 0.180100 0.559154 -0.090888
C27   C     C_R   0.764383 0.091653 0.562496 0.315935
C28   C     C_R   0.628826 0.050248 0.514242 -0.114726
C29   C     C_R   0.560565 0.108606 0.473131 0.396921
C30   C     C_R   0.609876 0.201987 0.487236 -0.036472
C31   C     C_R   0.395883 0.916835 0.480671 0.126816
C32   C     C_R   0.337056 0.823673 0.464721 -0.108885
C33   C     C_R   0.586504 0.789824 0.511491 0.164189
C34   C     C_3   0.248172 0.742212 0.637102 0.899743
C35   C     C_R   0.657086 0.881451 0.515929 0.079250
C36   C     C_R   0.561562 0.948793 0.503477 0.094697
C37   C     C_R   0.428621 0.762891 0.485236 -0.292168
C38   C     C_3   0.273554 0.842324 0.669064 0.659565
C39   C     C_3   0.956705 0.258044 0.370361 1.303861
C40   C     C_3   0.979450 0.160682 0.348650 0.087115
C41   C     C_3   0.715196 0.693244 0.701998 0.520799
C42   C     C_3   0.850403 0.738582 0.759602 0.524905
H1    H     H_    0.107377 0.161178 0.339988 0.052264
H2    H     H_    0.963061 0.749056 0.733376 0.084343
H3    H     H_    0.286670 0.287137 0.329002 -0.089360
H4    H     H_    0.294676 0.265433 0.196719 -0.015339
H5    H     H_    0.287584 0.757719 0.183961 0.050049
H6    H     H_    0.952837 0.291797 0.713284 -0.081635
H7    H     H_    0.998358 0.161203 0.791701 0.062890
H8    H     H_    0.438515 0.211650 0.661999 -0.077237
H9    H     H_    0.456203 0.080437 0.731088 -0.040973
H10   H     H_    0.295873 0.137983 0.753663 0.008134
H11   H     H_    0.250867 0.716222 0.300769 -0.089486
H12   H     H_    0.372652 0.694211 0.485247 0.095158
H13   H     H_    0.144968 0.832346 0.191910 0.196420
H14   H     H_    0.327798 0.860591 0.247043 0.114916
H15   H     H_    0.166218 0.728943 0.587620 -0.142861
N1    N     N_R   0.134543 0.571217 0.966653 -0.197604
N2    N     N_R   0.184070 0.573313 0.035044 -0.220094
N3    N     N_R   0.050674 0.426874 0.033135 -0.189436
N4    N     N_R   0.000690 0.424835 0.964638 -0.164055
O1    O     O_2   0.864880 0.449170 0.328210 -0.444659
O2    O     O_3   0.710947 0.751381 0.649688 -0.618658
O3    O     O_3   0.112716 0.812925 0.334008 -0.490955
O4    O     O_2   0.324830 0.550860 0.671840 -0.420280
O5    O     O_3   0.072140 0.549400 0.584410 -0.418837
O6    O     O_3   0.531230 0.386060 0.627150 -0.425593
O7    O     O_3   0.185264 0.693027 0.688713 -0.667070
O8    O     O_3   0.606300 0.390910 0.463140 -0.386083
O9    O     O_3   0.106650 0.339290 0.591370 -0.319897
O10   O     O_2   0.167219 0.177866 0.546058 -0.449883
O11   O     O_3   0.104035 0.202745 0.679626 -0.665223
O12   O     O_3   0.117570 0.450680 0.415600 -0.395022
O13   O     O_3   0.583420 0.609160 0.536870 -0.476691
O14   O     O_2   0.332740 0.278830 0.463690 -0.436872
O15   O     O_3   0.502039 0.242783 0.347083 -0.547918
O16   O     O_2   0.478175 0.471426 0.750819 -0.458808
O17   O     O_3   0.473645 0.303281 0.755137 -0.527440
O18   O     O_3   0.658480 0.614010 0.372860 -0.455674
O19   O     O_2   0.707814 0.528965 0.245437 -0.478722
O20   O     O_3   0.003546 0.306040 0.314989 -0.735322
O21   O     O_3   0.705772 0.700105 0.247373 -0.627994
O22   O     O_2   0.856970 0.721200 0.536350 -0.465442
O23   O     O_3   0.083060 0.660780 0.408640 -0.452965
O24   O     O_2   0.010950 0.816848 0.459773 -0.410582
P1    P     P_3+3 0.032340 0.422550 0.338860 1.107538
P2    P     P_3+3 0.682000 0.708060 0.557320 1.092755
P3    P     P_3+3 0.138627 0.777603 0.417975 1.056789
P4    P     P_3+3 0.157370 0.577530 0.661150 1.112166
P5    P     P_3+3 0.052455 0.223814 0.593353 1.176758
P6    P     P_3+3 0.618222 0.602070 0.279831 1.000293
P7    P     P_3+3 0.508408 0.278129 0.439907 1.196593
P8    P     P_3+3 0.569207 0.397525 0.720186 1.098260
F1    F     F_    0.794939 0.790694 0.352355 -0.653622
F2    F     F_    0.320546 0.852254 0.741510 -0.671935
N5    N     N_3   0.397718 0.894087 0.633627 -0.537788
H16   H     H_    0.509618 0.885376 0.654695 0.244737
H17   H     H_    0.393243 0.962311 0.645451 0.159868
N6    N     N_3   0.122717 0.875596 0.660485 -0.507116
H18   H     H_    0.098810 0.878451 0.606294 0.127596
H19   H     H_    0.136642 0.941218 0.687193 0.212734
F3    F     F_    0.799723 0.261187 0.378374 -0.731548
F4    F     F_    0.044768 0.291477 0.434248 -0.661497
N7    N     N_3   0.882372 0.119889 0.282423 -0.447448
H20   H     H_    0.918117 0.155393 0.240832 0.193341
H21   H     H_    0.762523 0.125328 0.288323 0.258125
N8    N     N_3   0.941895 0.107398 0.405955 -0.480596
H22   H     H_    0.818115 0.091652 0.406042 0.165083
H23   H     H_    0.983930 0.046805 0.394317 0.219855
N9    N     N_3   0.748771 0.605492 0.673664 -0.501317
H24   H     H_    0.837601 0.612326 0.638070 0.147954
H25   H     H_    0.645597 0.564685 0.648125 0.241531
N10   N     N_3   0.562239 0.682189 0.734591 -0.403454
H26   H     H_    0.572912 0.651071 0.780180 0.187119
H27   H     H_    0.531226 0.744901 0.750571 0.240274
F5    F     F_    0.910802 0.871352 0.245448 -0.661043
F6    F     F_    0.867981 0.684107 0.811622 -0.740321
N11   N     N_3   0.821875 0.826237 0.792618 -0.458753
H28   H     H_    0.929916 0.861523 0.818539 0.222680
H29   H     H_    0.743587 0.816659 0.832673 0.218108
N12   N     N_3   0.530774 0.782049 0.312330 -0.592662
H30   H     H_    0.521017 0.844412 0.339877 0.108567
H31   H     H_    0.514829 0.742585 0.352610 0.135813
N13   N     N_3   0.714531 0.946443 0.285139 -0.430091
H32   H     H_    0.739997 0.950802 0.340198 0.177757
H33   H     H_    0.594624 0.952052 0.275100 0.162549
N14   N     N_3   0.480244 0.376109 0.300097 -0.526157
H34   H     H_    0.492228 0.414597 0.350117 0.142820
H35   H     H_    0.595345 0.373684 0.284457 0.260893
N15   N     N_3   0.300546 0.138083 0.227623 -0.426625
H36   H     H_    0.340555 0.112118 0.272395 0.228336
H37   H     H_    0.176788 0.133218 0.226685 0.134956
F7    F     F_    0.517268 0.234507 0.198089 -0.650284
N16   N     N_3   0.673309 0.845020 0.176018 -0.443691
H38   H     H_    0.550016 0.825826 0.176566 0.115431
H39   H     H_    0.717082 0.792390 0.146754 0.201490
F8    F     F_    0.182879 0.345602 0.738222 -0.717142
N17   N     N_3   0.191542 0.252905 0.847510 -0.426220
H40   H     H_    0.172959 0.219195 0.891741 0.224163
H41   H     H_    0.216626 0.321419 0.867308 0.234790
F9    F     F_    0.927097 0.273610 0.837580 -0.706711
N18   N     N_3   0.670707 0.220900 0.712807 -0.467479
H42   H     H_    0.704829 0.252213 0.669061 0.074436
H43   H     H_    0.690547 0.155084 0.700410 0.189417
N19   N     N_3   0.021990 0.685395 0.248677 -0.379813
H44   H     H_    0.063443 0.628692 0.225522 0.103638
H45   H     H_    0.965635 0.708565 0.206135 0.213518
F10   F     F_    0.487938 0.160546 0.826771 -0.623124
N20   N     N_3   0.457614 0.591480 0.120297 -0.460609
H46   H     H_    0.564463 0.566245 0.123617 0.213134
H47   H     H_    0.483085 0.660836 0.135711 0.181556
N21   N     N_3   0.974146 0.391120 0.172436 -0.447226
H48   H     H_    0.870869 0.407367 0.194298 0.237336
H49   H     H_    0.993683 0.329285 0.185776 0.198116
N22   N     N_3   0.227349 0.596470 0.831128 -0.456243
H50   H     H_    0.218675 0.659376 0.816775 0.240924
H51   H     H_    0.325565 0.574424 0.809110 0.220587
N23   N     N_3   0.719658 0.421054 0.877617 -0.433410
H52   H     H_    0.678324 0.352179 0.864687 0.290168
H53   H     H_    0.622781 0.455005 0.874431 0.195651
N24   N     N_3   0.315594 0.564167 0.371825 -0.449732
H54   H     H_    0.402276 0.534302 0.395794 0.181617
H55   H     H_    0.356326 0.632251 0.376757 0.113709
F11   F     F_    0.848784 0.443065 0.634137 -0.670631
N25   N     N_3   0.283953 0.977961 0.482322 -0.424201
H56   H     H_    0.219455 0.968934 0.432552 0.241320
H57   H     H_    0.203914 0.963511 0.520715 0.166329
F12   F     F_    0.817882 0.050971 0.615966 -0.738329
N26   N     N_3   0.825256 0.902695 0.533128 -0.426740
H58   H     H_    0.879478 0.956684 0.509417 0.216363
H59   H     H_    0.849481 0.908565 0.588251 0.255434
F13   F     F_    0.462496 0.075774 0.413301 -0.710150
F14   F     F_    0.820979 0.323298 0.527332 -0.591195
F15   F     F_    0.391211 0.717881 0.621415 -0.766973

loop_
_geom_bond_atom_site_label_1
_geom_bond_atom_site_label_2
_ccdc_geom_bond_type
C30   P7    S    
C19   C24   A    
N6    H18   S    
C15   P1    S    
C39   C40   S    
N24   H54   S    
N26   H58   S    
C34   H15   S    
Ba1   O5    S    
N9    H25   S    
C1    N13   S    
N12   H30   S    
O3    P3    S    
O8    P7    S    
C13   C17   S    
C3    H3    S    
C23   H14   S    
Ba1   O8    S    
C4    H4    S    
C16   C22   S    
C26   C27   A    
N19   H45   S    
C40   N8    S    
N17   H41   S    
C1    N16   S    
Ba2   O5    S    
N8    H23   S    
C38   N5    S    
C3    C4    S    
O9    P5    S    
C16   N4    A    
N12   H31   S    
N7    H20   S    
C42   N11   S    
C17   N3    A    
Ba1   O18   S    
C13   C14   S    
C39   O20   S    
O14   P7    D    
O5    P4    S    
C28   C36   S    
Ba1   Ba2   S    
C20   P8    S    
O11   P5    S    
C8    H9    S    
N19   H44   S    
C41   N10   S    
C38   N6    S    
C2    F1    S    
N22   H50   S    
C24   F11   S    
C18   C22   A    
C42   H2    S    
C14   C15   D    
N10   H27   S    
N13   H33   S    
N20   H46   S    
C27   F12   S    
Ba2   O6    S    
C7    C8    S    
N21   H49   S    
O13   P2    S    
Ba1   P1    S    
C3    N14   S    
O20   P1    S    
N6    H19   S    
O19   P6    D    
C16   N1    A    
C31   N25   S    
C7    H8    S    
C23   H13   S    
Ba2   O9    S    
O4    P4    D    
N9    H24   S    
C7    N18   S    
N11   H29   S    
C5    O11   S    
Ba1   O22   S    
C32   C37   A    
Ba1   O12   S    
C34   C38   S    
N17   H40   S    
C11   N20   S    
N25   H57   S    
Ba2   O4    S    
O23   P3    S    
C25   F14   S    
C38   F2    S    
O22   P2    D    
N15   H36   S    
C42   F6    S    
C12   N19   S    
C1    C2    S    
C2    N12   S    
N1    N2    A    
C7    O17   S    
N23   H53   S    
C33   C37   A    
C41   C42   S    
C32   P3    S    
O16   P8    D    
C35   C36   A    
C1    F5    S    
N18   H43   S    
O18   P6    S    
C37   H12   S    
C2    O21   S    
C41   O2    S    
C21   N23   S    
N3    N4    A    
C9    N24   S    
C31   C32   A    
C12   O3    S    
C26   P5    S    
C10   C11   S    
O17   P8    S    
C40   N7    S    
O7    P4    S    
N21   H48   S    
C39   F4    S    
N15   H37   S    
C33   P2    S    
C4    N15   S    
C34   O7    S    
C34   F15   S    
N5    H17   S    
C18   N22   S    
C11   C13   D    
C14   N21   S    
C10   P6    S    
C4    F7    S    
C41   N9    S    
Ba2   O8    S    
Ba1   O1    S    
N25   H56   S    
Ba2   O13   S    
N11   H28   S    
N16   H39   S    
N14   H34   S    
C19   P4    S    
C6    H7    S    
Ba1   O23   S    
C9    C15   D    
Ba1   P2    S    
C33   C35   A    
C25   C30   A    
Ba1   O13   S    
C29   C30   A    
C5    H6    S    
N18   H42   S    
O6    P8    S    
C35   N26   S    
C9    C10   S    
O10   P5    D    
O15   P7    S    
N26   H59   S    
O2    P2    S    
C31   C36   A    
C39   F3    S    
C6    N17   S    
N23   H52   S    
Ba2   O14   S    
N8    H22   S    
C8    F10   S    
C5    F8    S    
C28   C29   A    
N7    H21   S    
C17   N2    A    
N13   H32   S    
O1    P1    D    
C12   H11   S    
C6    F9    S    
O21   P6    S    
N20   H47   S    
C12   C23   S    
Ba2   P4    S    
C8    H10   S    
C23   H5    S    
C5    C6    S    
C21   C22   A    
C27   C28   A    
O12   P1    S    
C18   C19   A    
N22   H51   S    
N5    H16   S    
C20   C24   A    
O24   P3    D    
C25   C26   A    
C20   C21   A    
N16   H38   S    
N24   H55   S    
C3    O15   S    
C40   H1    S    
Ba2   O12   S    
N10   H26   S    
N14   H35   S    
C29   F13   S    
