data_mof_unit_13626.cif
_audit_creation_date              2012-12-10T18:09:38-0500
_audit_creation_method            fapswitch 2.2
_symmetry_space_group_name_H-M    P1
_symmetry_Int_Tables_number       1
_space_group_crystal_system       triclinic
_cell_length_a                    15.153503
_cell_length_b                    15.181663
_cell_length_c                    9.412851
_cell_angle_alpha                 90.008329
_cell_angle_beta                  90.003327
_cell_angle_gamma                 89.999932
_cell_volume                      2165.47694777

loop_
_atom_site_label
_atom_site_type_symbol
_atom_type_description
_atom_site_fract_x
_atom_site_fract_y
_atom_site_fract_z
_atom_type_partial_charge
C1    C     C_R   0.120233 0.379900 0.500212 0.757507
C2    C     C_R   0.120274 0.620060 0.499792 0.757617
C3    C     C_R   0.620240 0.879907 0.500211 0.757548
C4    C     C_R   0.620265 0.120068 0.499792 0.757579
C5    C     C_3   0.092324 0.500387 0.083864 -0.189391
C6    C     C_3   0.092323 0.500488 0.916152 -0.189329
C7    C     C_3   0.592321 0.999275 0.083865 -0.189371
C8    C     C_3   0.592322 0.999376 0.916154 -0.189349
C9    C     C_R   0.880015 0.379820 0.499779 0.759271
C10   C     C_R   0.879989 0.620154 0.500217 0.759359
C11   C     C_R   0.380022 0.879814 0.499778 0.759278
C12   C     C_R   0.379983 0.120148 0.500217 0.759352
C13   C     C_3   0.844946 0.227345 0.576734 -0.384306
C14   C     C_3   0.786228 0.285186 0.344219 -0.380018
C15   C     C_3   0.785841 0.714416 0.655778 -0.379943
C16   C     C_3   0.845067 0.772783 0.423945 -0.384322
C17   C     C_3   0.344910 0.727382 0.576930 -0.384264
C18   C     C_3   0.286341 0.785074 0.344221 -0.379913
C19   C     C_3   0.285749 0.214325 0.655779 -0.380038
C20   C     C_3   0.345095 0.272811 0.424104 -0.384352
C21   C     C_3   0.272894 0.655466 0.577173 -0.384130
C22   C     C_3   0.215179 0.713527 0.344231 -0.377084
C23   C     C_3   0.214571 0.285857 0.655780 -0.376930
C24   C     C_3   0.273084 0.344734 0.423888 -0.384179
C25   C     C_3   0.772929 0.155430 0.576979 -0.384126
C26   C     C_3   0.715062 0.213642 0.344228 -0.376948
C27   C     C_3   0.714673 0.785957 0.655778 -0.377069
C28   C     C_3   0.773054 0.844702 0.423717 -0.384181
C29   C     C_3   0.726994 0.344838 0.575170 -0.384180
C30   C     C_3   0.727113 0.655288 0.424139 -0.384175
C31   C     C_3   0.226959 0.844873 0.574975 -0.384211
C32   C     C_3   0.227142 0.155316 0.423982 -0.384159
C33   C     C_3   0.811085 0.310823 0.499012 0.178418
C34   C     C_3   0.811041 0.689133 0.500981 0.178392
C35   C     C_3   0.311098 0.810811 0.499012 0.178412
C36   C     C_3   0.311030 0.189123 0.500982 0.178397
C37   C     C_3   0.189289 0.688973 0.499028 0.177964
C38   C     C_3   0.189220 0.310959 0.500977 0.177961
C39   C     C_3   0.689275 0.188987 0.499028 0.177947
C40   C     C_3   0.689232 0.810970 0.500976 0.177985
C41   C     C_3   0.154944 0.772967 0.574728 -0.384540
C42   C     C_3   0.155130 0.227225 0.424214 -0.384497
C43   C     C_3   0.654977 0.272934 0.574919 -0.384563
C44   C     C_3   0.655099 0.727194 0.424385 -0.384491
C45   C     C_3   0.955623 0.578472 0.083685 -0.186198
C46   C     C_3   0.955511 0.578399 0.916360 -0.187214
C47   C     C_3   0.956284 0.421153 0.083635 -0.187262
C48   C     C_3   0.956398 0.421081 0.916305 -0.186311
C49   C     C_3   0.456607 0.079039 0.083688 -0.186312
C50   C     C_3   0.456494 0.078966 0.916357 -0.187326
C51   C     C_3   0.455303 0.921724 0.083632 -0.187158
C52   C     C_3   0.455414 0.921651 0.916308 -0.186205
Cu1   Cu    Cu3+1 0.000100 0.500000 0.642410 0.882013
Cu2   Cu    Cu3+1 0.000100 0.500000 0.357590 0.882013
Cu3   Cu    Cu3+1 0.500100 0.000000 0.642410 0.882016
Cu4   Cu    Cu3+1 0.500100 0.000000 0.357590 0.882007
H1    H     H_    0.863204 0.243589 0.688261 0.155765
H2    H     H_    0.761222 0.343884 0.285789 0.154010
H3    H     H_    0.760719 0.655579 0.713708 0.153891
H4    H     H_    0.863565 0.756788 0.312431 0.155695
H5    H     H_    0.363092 0.743698 0.688463 0.155786
H6    H     H_    0.261365 0.843733 0.285653 0.153993
H7    H     H_    0.260608 0.155455 0.713601 0.153908
H8    H     H_    0.363645 0.256873 0.312590 0.155680
H9    H     H_    0.298447 0.595049 0.524245 0.137555
H10   H     H_    0.240551 0.654410 0.287299 0.152739
H11   H     H_    0.239739 0.344765 0.713507 0.152934
H12   H     H_    0.298464 0.404953 0.477618 0.137571
H13   H     H_    0.798447 0.095047 0.523906 0.137544
H14   H     H_    0.740393 0.154563 0.287146 0.152812
H15   H     H_    0.739884 0.844898 0.713369 0.152869
H16   H     H_    0.798460 0.904956 0.477315 0.137577
H17   H     H_    0.742621 0.363424 0.686776 0.155796
H18   H     H_    0.701784 0.404896 0.520794 0.138164
H19   H     H_    0.701785 0.595109 0.478016 0.138158
H20   H     H_    0.742979 0.636953 0.312515 0.155827
H21   H     H_    0.242517 0.863533 0.686574 0.155741
H22   H     H_    0.201782 0.904895 0.520455 0.138168
H23   H     H_    0.201783 0.095113 0.477751 0.138164
H24   H     H_    0.243066 0.137034 0.312357 0.155873
H25   H     H_    0.135948 0.757471 0.686198 0.157293
H26   H     H_    0.094952 0.798056 0.519745 0.137832
H27   H     H_    0.094944 0.201955 0.478411 0.137761
H28   H     H_    0.136527 0.243100 0.312707 0.157434
H29   H     H_    0.636048 0.257372 0.686394 0.157317
H30   H     H_    0.594952 0.298059 0.520072 0.137815
H31   H     H_    0.594949 0.701950 0.478716 0.137783
H32   H     H_    0.636425 0.743008 0.312887 0.157408
H33   H     H_    0.987596 0.639686 0.123437 0.130638
H34   H     H_    0.987239 0.639669 0.876374 0.130992
H35   H     H_    0.988599 0.360196 0.123650 0.130990
H36   H     H_    0.988957 0.360181 0.876539 0.130630
H37   H     H_    0.489326 0.139852 0.123466 0.130637
H38   H     H_    0.488967 0.139838 0.876342 0.130998
H39   H     H_    0.486874 0.860371 0.123618 0.130992
H40   H     H_    0.487228 0.860352 0.876566 0.130637
H41   H     H_    0.886026 0.580197 0.121042 0.134559
H42   H     H_    0.885862 0.579853 0.879282 0.134304
H43   H     H_    0.886649 0.419022 0.120662 0.134362
H44   H     H_    0.886815 0.418677 0.878973 0.134664
H45   H     H_    0.387031 0.081625 0.120999 0.134664
H46   H     H_    0.386862 0.081280 0.879328 0.134410
H47   H     H_    0.385653 0.920455 0.120709 0.134258
H48   H     H_    0.385813 0.920112 0.878929 0.134563
H49   H     H_    0.128950 0.559129 0.122415 0.133665
H50   H     H_    0.128866 0.559328 0.877749 0.133931
H51   H     H_    0.129444 0.441921 0.122335 0.133877
H52   H     H_    0.129526 0.442121 0.877547 0.133539
H53   H     H_    0.629680 0.057540 0.122495 0.133546
H54   H     H_    0.629597 0.057740 0.877674 0.133827
H55   H     H_    0.628707 0.940334 0.122259 0.133984
H56   H     H_    0.628790 0.940533 0.877627 0.133660
N1    N     N_3   0.001260 0.500000 0.143650 -0.106285
N2    N     N_3   0.001260 0.500000 0.856350 -0.106275
N3    N     N_3   0.501260 0.000000 0.143650 -0.106285
N4    N     N_3   0.501260 1.000000 0.856350 -0.106278
O1    O     O_R   0.091250 0.408820 0.620260 -0.595203
O2    O     O_R   0.091250 0.408820 0.379740 -0.594116
O3    O     O_R   0.091250 0.591180 0.620260 -0.594123
O4    O     O_R   0.091250 0.591180 0.379740 -0.595224
O5    O     O_R   0.591250 0.908820 0.620260 -0.595241
O6    O     O_R   0.591250 0.908820 0.379740 -0.594169
O7    O     O_R   0.591250 0.091180 0.620260 -0.594071
O8    O     O_R   0.591250 0.091180 0.379740 -0.595187
O9    O     O_R   0.908940 0.408800 0.620260 -0.596303
O10   O     O_R   0.908940 0.408800 0.379740 -0.597000
O11   O     O_R   0.908940 0.591200 0.620260 -0.597001
O12   O     O_R   0.908940 0.591200 0.379740 -0.596279
O13   O     O_R   0.408940 0.908800 0.620260 -0.596312
O14   O     O_R   0.408940 0.908800 0.379740 -0.597014
O15   O     O_R   0.408940 0.091200 0.620260 -0.596988
O16   O     O_R   0.408940 0.091200 0.379740 -0.596272
H57   H     H_    0.905298 0.201901 0.523222 0.137918
H58   H     H_    0.845453 0.260501 0.286548 0.153999
H59   H     H_    0.844933 0.738978 0.713949 0.154106
H60   H     H_    0.905304 0.798104 0.477956 0.137955
H61   H     H_    0.405299 0.701906 0.523567 0.137913
H62   H     H_    0.345605 0.760360 0.286687 0.153975
H63   H     H_    0.344808 0.238870 0.714057 0.154121
H64   H     H_    0.405308 0.298101 0.478222 0.137953
H65   H     H_    0.256564 0.637623 0.688822 0.155432
H66   H     H_    0.156358 0.737816 0.285069 0.156082
H67   H     H_    0.155540 0.261356 0.714155 0.155893
H68   H     H_    0.257128 0.362985 0.312271 0.155347
H69   H     H_    0.756670 0.137515 0.688623 0.155455
H70   H     H_    0.656201 0.237971 0.285212 0.156036
H71   H     H_    0.655676 0.761498 0.714287 0.155934
H72   H     H_    0.757038 0.862885 0.312093 0.155330

loop_
_geom_bond_atom_site_label_1
_geom_bond_atom_site_label_2
_ccdc_geom_bond_type
C12   O16   A    
C16   C28   S    
Cu3   Cu4   S    
Cu3   O5    S    
C12   O15   A    
Cu2   O4    S    
C23   H67   S    
C14   C33   S    
C7    C8    S    
C24   H12   S    
C5    H49   S    
Cu1   Cu2   S    
C13   H57   S    
Cu2   O10   S    
C32   C36   S    
C38   C42   S    
C19   C36   S    
C8    H56   S    
C49   H45   S    
C5    C6    S    
Cu1   O1    S    
C26   C39   S    
C29   H17   S    
Cu3   N4    S    
C28   C40   S    
C51   H47   S    
Cu2   N1    S    
C29   C33   S    
C47   H43   S    
C4    O8    A    
C26   H70   S    
C16   H4    S    
C7    N3    S    
C18   H62   S    
C22   H10   S    
Cu1   O11   S    
C16   C34   S    
C21   H9    S    
C6    N2    S    
C20   C24   S    
C19   H7    S    
Cu3   O13   S    
C24   C38   S    
C12   C36   S    
C44   H31   S    
C45   H33   S    
C18   C35   S    
C15   C34   S    
C3    O6    A    
C17   H5    S    
C46   H42   S    
C29   C43   S    
C9    C33   S    
C30   C44   S    
C28   H16   S    
C15   H3    S    
C10   O12   A    
C11   O13   A    
C31   H21   S    
C52   N4    S    
C14   H2    S    
Cu3   O7    S    
C28   H72   S    
C30   C34   S    
C51   C52   S    
C43   H29   S    
C48   H44   S    
C42   H28   S    
C2    O4    A    
C50   H38   S    
C39   C43   S    
C29   H18   S    
C14   H58   S    
C45   C46   S    
C22   C37   S    
Cu2   O12   S    
C51   N3    S    
C7    H53   S    
C4    O7    A    
Cu4   O6    S    
C20   H8    S    
C19   C23   S    
C13   C33   S    
C8    H54   S    
C32   H24   S    
C30   H20   S    
C15   C27   S    
C47   C48   S    
C4    C39   S    
C27   C40   S    
C41   H25   S    
C22   H66   S    
C6    H50   S    
C21   C37   S    
C10   C34   S    
C1    O1    A    
C14   C26   S    
Cu4   O16   S    
Cu1   O9    S    
C1    C38   S    
C19   H63   S    
C49   N3    S    
C3    C40   S    
C50   H46   S    
Cu3   O15   S    
Cu2   O2    S    
C26   H14   S    
C31   C35   S    
C13   H1    S    
C25   H13   S    
C10   O11   A    
C16   H60   S    
C11   O14   A    
Cu4   O8    S    
C27   H15   S    
Cu1   N2    S    
C31   H22   S    
C48   N2    S    
C5    H51   S    
C47   N1    S    
C52   H48   S    
C32   C42   S    
C31   C41   S    
C5    N1    S    
C18   C22   S    
C43   H30   S    
C47   H35   S    
C18   H6    S    
C42   H27   S    
C46   N2    S    
C13   C25   S    
C25   H69   S    
C2    O3    A    
Cu1   O3    S    
C46   H34   S    
C23   C38   S    
C9    O10   A    
C20   H64   S    
C11   C35   S    
C21   H65   S    
C45   H41   S    
C25   C39   S    
C32   H23   S    
C30   H19   S    
C2    C37   S    
C23   H11   S    
C24   H68   S    
C41   H26   S    
Cu4   N3    S    
C7    H55   S    
C52   H40   S    
C50   N4    S    
C1    O2    A    
C37   C41   S    
C9    O9    A    
C8    N4    S    
C20   C36   S    
C45   N1    S    
C40   C44   S    
C15   H59   S    
C27   H71   S    
C49   C50   S    
C48   H36   S    
C6    H52   S    
C17   H61   S    
C17   C35   S    
C49   H37   S    
C44   H32   S    
Cu4   O14   S    
C3    O5    A    
C51   H39   S    
C17   C21   S    
