data_mof_unit_60783.cif
_audit_creation_date              2012-12-11T14:19:12-0500
_audit_creation_method            fapswitch 2.2
_symmetry_space_group_name_H-M    P1
_symmetry_Int_Tables_number       1
_space_group_crystal_system       triclinic
_cell_length_a                    8.165196
_cell_length_b                    12.678952
_cell_length_c                    15.033224
_cell_angle_alpha                 95.437805
_cell_angle_beta                  98.953965
_cell_angle_gamma                 97.876139
_cell_volume                      1512.10674119

loop_
_atom_site_label
_atom_site_type_symbol
_atom_type_description
_atom_site_fract_x
_atom_site_fract_y
_atom_site_fract_z
_atom_type_partial_charge
Ba1   Ba    Ba6+2 0.153570 0.551840 0.456200 1.647931
Ba2   Ba    Ba6+2 0.656590 0.448150 0.543720 1.650488
C1    C     C_3   0.346221 0.777485 0.106734 -0.260608
C2    C     C_3   0.386375 0.762927 0.206628 0.406578
C3    C     C_3   0.579996 0.778236 0.669099 0.275556
C4    C     C_3   0.582588 0.898600 0.685045 -0.332858
C5    C     C_3   0.920532 0.159302 0.750843 0.329477
C6    C     C_3   0.986967 0.073423 0.804169 -0.393725
C7    C     C_3   0.436296 0.218460 0.792093 0.336641
C8    C     C_3   0.483903 0.191567 0.888351 -0.329868
C9    C     C_R   0.084540 0.183515 0.530867 -0.269258
C10   C     C_R   0.723997 0.815719 0.467764 -0.284327
C11   C     C_R   0.691395 0.994443 0.430617 -0.086536
C12   C     C_3   0.891312 0.834948 0.249229 0.325113
C13   C     C_R   0.625245 0.886053 0.427982 -0.005908
C14   C     C_R   0.887139 0.851089 0.514081 0.054538
C15   C     C_R   0.954174 0.963097 0.520218 -0.055945
C16   C     C_R   0.854746 0.035992 0.477597 -0.063385
C17   C     C_R   0.921817 0.148229 0.484633 0.059083
C18   C     C_R   0.183799 0.112757 0.568852 -0.008072
C19   C     C_R   0.118036 0.004466 0.566264 -0.100356
C20   C     C_R   0.230961 0.462717 0.766486 -0.281136
C21   C     C_R   0.133751 0.421582 0.826867 0.017031
C22   C     C_R   0.200817 0.429587 0.919184 -0.132756
C23   C     C_3   0.828060 0.926068 0.202016 -0.339042
C24   C     C_R   0.365569 0.484546 0.953263 0.010887
C25   C     C_R   0.455549 0.532789 0.890485 -0.112320
C26   C     C_R   0.388815 0.521199 0.798477 0.035160
C27   C     C_R   0.608055 0.547139 0.084599 -0.136139
C28   C     C_R   0.673447 0.565350 0.176893 0.012579
C29   C     C_R   0.414749 0.476147 0.210758 0.063455
C30   C     C_R   0.346414 0.458801 0.118332 -0.086761
C31   C     C_R   0.440239 0.496654 0.052842 0.005203
C32   C     C_R   0.575300 0.532825 0.239750 -0.301180
C33   C     C_3   0.747631 0.312426 0.266491 0.357308
C34   C     C_3   0.773866 0.289005 0.168897 -0.304458
C35   C     C_3   0.082679 0.688653 0.729606 0.302390
C36   C     C_3   0.133523 0.720795 0.831413 -0.388586
C37   C     C_3   0.311761 0.214803 0.327307 0.309012
C38   C     C_3   0.263005 0.098344 0.287469 0.360932
H1    H     H_    0.308995 0.687507 0.216237 0.065422
H2    H     H_    0.686154 0.216326 0.134781 0.190410
H3    H     H_    0.750324 0.358081 0.130748 0.050208
H4    H     H_    0.905418 0.274732 0.167628 0.124355
H5    H     H_    0.186711 0.657398 0.702441 0.010000
H6    H     H_    0.971238 0.625413 0.717361 0.071853
H7    H     H_    0.252765 0.777949 0.845819 0.139000
H8    H     H_    0.151093 0.649542 0.866855 0.061494
H9    H     H_    0.034286 0.759381 0.858241 0.135790
H10   H     H_    0.270379 0.226575 0.394659 -0.083816
H11   H     H_    0.448388 0.235522 0.332462 0.057540
H12   H     H_    0.382998 0.711062 0.064730 0.021527
H13   H     H_    0.125030 0.076250 0.278534 -0.034022
H14   H     H_    0.320999 0.047816 0.335377 -0.009994
H15   H     H_    0.521054 0.755722 0.223124 -0.101305
H16   H     H_    0.417234 0.853086 0.093341 0.178275
H17   H     H_    0.706961 0.762067 0.659721 0.012215
H18   H     H_    0.487772 0.747641 0.606138 0.063507
H19   H     H_    0.665687 0.932359 0.750143 0.124481
H20   H     H_    0.629704 0.936953 0.628681 0.070383
H21   H     H_    0.453396 0.916079 0.688404 0.139054
H22   H     H_    0.209386 0.777419 0.086155 0.163790
H23   H     H_    0.711831 0.894678 0.152626 0.134034
H24   H     H_    0.813783 0.121135 0.697311 0.081952
H25   H     H_    0.022669 0.195227 0.717012 -0.051664
H26   H     H_    0.019100 0.009051 0.757153 0.093708
H27   H     H_    0.100969 0.109588 0.853795 0.120110
H28   H     H_    0.891373 0.038217 0.842383 0.136973
H29   H     H_    0.302597 0.229308 0.781088 -0.067895
H30   H     H_    0.515397 0.294773 0.785665 0.098919
H31   H     H_    0.399988 0.119079 0.899591 0.130577
H32   H     H_    0.472809 0.260135 0.937925 0.085193
H33   H     H_    0.006696 0.867354 0.298910 0.087499
H34   H     H_    0.615597 0.175591 0.900018 0.158052
H35   H     H_    0.612960 0.045282 0.396657 0.111196
H36   H     H_    0.197367 0.953729 0.599728 0.100161
H37   H     H_    0.136966 0.267306 0.534933 0.076538
H38   H     H_    0.671306 0.732125 0.464589 0.068265
H39   H     H_    0.692519 0.572563 0.039927 0.079135
H40   H     H_    0.221377 0.414724 0.099966 0.077568
H41   H     H_    0.575762 0.582602 0.910591 0.071767
H42   H     H_    0.627602 0.546114 0.311302 0.069163
H43   H     H_    0.792785 0.802158 0.286801 -0.045434
H44   H     H_    0.179369 0.455651 0.695026 0.065961
H45   H     H_    0.801741 0.988277 0.252885 0.111785
H46   H     H_    0.922624 0.963108 0.164234 0.175437
H47   H     H_    0.619630 0.330049 0.265758 -0.032465
H48   H     H_    0.837387 0.383943 0.298113 0.057446
O1    O     O_2   0.168170 0.764170 0.543850 -0.469940
O2    O     O_3   0.230404 0.275595 0.266465 -0.614862
O3    O     O_3   0.929062 0.758793 0.184125 -0.582489
O4    O     O_2   0.642110 0.235770 0.456130 -0.489191
O5    O     O_3   0.911620 0.370210 0.454030 -0.496472
O6    O     O_3   0.444310 0.304480 0.619110 -0.478784
O7    O     O_3   0.766465 0.221262 0.310541 -0.619573
O8    O     O_3   0.400800 0.556680 0.607590 -0.482306
O9    O     O_3   0.875770 0.359510 0.664420 -0.479326
O10   O     O_2   0.792482 0.428737 0.822472 -0.492111
O11   O     O_3   0.863268 0.233330 0.810208 -0.594965
O12   O     O_3   0.898670 0.629780 0.545890 -0.494614
O13   O     O_3   0.409490 0.443300 0.392340 -0.497295
O14   O     O_2   0.674250 0.555830 0.719690 -0.461620
O15   O     O_3   0.535599 0.732637 0.745130 -0.639502
O16   O     O_2   0.524903 0.116316 0.564885 -0.491891
O17   O     O_3   0.463683 0.135107 0.730243 -0.602406
O18   O     O_3   0.365980 0.695510 0.380810 -0.493396
O19   O     O_2   0.278333 0.882389 0.424971 -0.503443
O20   O     O_3   0.046519 0.779211 0.688921 -0.643220
O21   O     O_3   0.349331 0.850293 0.260731 -0.546467
O22   O     O_2   0.136040 0.444100 0.280280 -0.454162
O23   O     O_3   0.934510 0.640480 0.335500 -0.485785
O24   O     O_2   0.015908 0.568010 0.177538 -0.497540
P1    P     P_3+3 0.998660 0.747790 0.570900 0.968995
P2    P     P_3+3 0.306970 0.411860 0.294270 1.003213
P3    P     P_3+3 0.889371 0.630698 0.217534 0.959016
P4    P     P_3+3 0.811620 0.252200 0.429030 0.979222
P5    P     P_3+3 0.915525 0.363022 0.782299 0.960215
P6    P     P_3+3 0.406087 0.832309 0.375017 0.965786
P7    P     P_3+3 0.498896 0.593014 0.720215 0.945847
P8    P     P_3+3 0.403233 0.165716 0.619745 0.950789
S1    S     S_3+6 0.331361 0.075819 0.180014 -0.086938
O25   O     O_2   0.500568 0.040208 0.195431 -0.309410
O26   O     O_2   0.207923 0.989576 0.119745 -0.324900
O27   O     O_3   0.347598 0.186915 0.126788 -0.541216
H49   H     H_    0.236323 0.184188 0.088118 0.340410
H50   H     H_    0.120872 0.393838 0.962198 0.070047

loop_
_geom_bond_atom_site_label_1
_geom_bond_atom_site_label_2
_ccdc_geom_bond_type
C37   H11   S    
C2    O21   S    
C3    O15   S    
C6    H26   S    
O8    P7    S    
C34   H2    S    
C33   C34   S    
C14   P1    S    
C5    C6    S    
C36   H9    S    
C38   S1    S    
C19   H36   S    
C9    C17   A    
C24   C25   A    
C35   C36   S    
C5    O11   S    
C11   C16   A    
C4    H21   S    
C22   C24   A    
C16   C17   A    
C23   H23   S    
C3    C4    S    
C30   H40   S    
C2    H1    S    
Ba2   O14   S    
C7    O17   S    
C27   C31   A    
Ba1   Ba2   S    
C1    H16   S    
S1    O27   S    
C9    H37   S    
Ba2   P4    S    
C10   C14   A    
Ba2   O9    S    
C14   C15   A    
C10   H38   S    
C21   C22   A    
O17   P8    S    
C11   H35   S    
C7    C8    S    
O22   P2    D    
O19   P6    D    
C36   H8    S    
Ba1   O18   S    
C8    H31   S    
Ba2   O12   S    
C20   C26   A    
O18   P6    S    
C22   H50   S    
O13   P2    S    
C33   H47   S    
C12   H43   S    
C4    H19   S    
Ba1   O12   S    
O21   P6    S    
C28   P3    S    
C12   O3    S    
O1    P1    D    
C9    C18   A    
C28   C32   A    
C12   H33   S    
C4    H20   S    
Ba2   O6    S    
C7    H30   S    
C35   O20   S    
C37   C38   S    
Ba2   O13   S    
C15   C19   A    
O5    P4    S    
C20   H44   S    
O20   P1    S    
C27   C28   A    
Ba1   O22   S    
O11   P5    S    
C33   H48   S    
C24   C31   S    
C29   C30   A    
C27   H39   S    
C10   C13   A    
C25   H41   S    
O7    P4    S    
C23   H45   S    
C15   C16   A    
S1    O25   D    
C29   C32   A    
Ba2   O4    S    
O4    P4    D    
C36   H7    S    
C3    H18   S    
C6    H28   S    
C38   H14   S    
C11   C13   A    
C2    H15   S    
C34   H4    S    
Ba1   P2    S    
C35   H5    S    
C1    C2    S    
Ba1   O13   S    
C18   P8    S    
O10   P5    D    
C1    H22   S    
C29   P2    S    
Ba1   O1    S    
C37   O2    S    
C5    H25   S    
Ba2   O5    S    
O15   P7    S    
O12   P1    S    
C7    H29   S    
C26   P7    S    
C21   P5    S    
C1    H12   S    
C33   O7    S    
O6    P8    S    
C13   P6    S    
C3    H17   S    
C30   C31   A    
Ba2   O8    S    
Ba1   O23   S    
C8    H34   S    
C17   P4    S    
Ba1   O8    S    
C23   H46   S    
O3    P3    S    
O2    P2    S    
C12   C23   S    
O9    P5    S    
C5    H24   S    
S1    O26   D    
Ba1   P1    S    
C37   H10   S    
C18   C19   A    
C6    H27   S    
Ba1   O5    S    
C38   H13   S    
C25   C26   A    
C20   C21   A    
C34   H3    S    
O23   P3    S    
C32   H42   S    
C35   H6    S    
O24   P3    D    
O14   P7    D    
O27   H49   S    
O16   P8    D    
C8    H32   S    
