data_mof_unit_30887.cif
_audit_creation_date              2012-12-10T16:57:02-0500
_audit_creation_method            fapswitch 2.2
_symmetry_space_group_name_H-M    P1
_symmetry_Int_Tables_number       1
_space_group_crystal_system       triclinic
_cell_length_a                    7.76725
_cell_length_b                    8.576622
_cell_length_c                    16.623454
_cell_angle_alpha                 91.832293
_cell_angle_beta                  80.526947
_cell_angle_gamma                 93.784063
_cell_volume                      1089.66712462

loop_
_atom_site_label
_atom_site_type_symbol
_atom_type_description
_atom_site_fract_x
_atom_site_fract_y
_atom_site_fract_z
_atom_type_partial_charge
C1    C     C_R   0.546247 0.794836 0.497954 0.974506
C2    C     C_R   0.377394 0.458695 0.223935 -0.216289
C3    C     C_R   0.548744 0.276796 0.835269 -0.225845
C4    C     C_R   0.377795 0.405084 0.144572 -0.212498
C5    C     C_R   0.400042 0.308882 0.891931 0.167374
C6    C     C_R   0.529812 0.347496 0.098665 0.174542
C7    C     C_R   0.270951 0.398977 0.869484 0.241440
C8    C     C_R   0.683694 0.346107 0.133174 0.230574
C9    C     C_R   0.297784 0.462677 0.791763 -0.268366
C10   C     C_R   0.682606 0.402880 0.212813 -0.274772
C11   C     C_2   0.395312 0.273216 0.977668 -0.239097
C12   C     C_R   0.453747 0.205164 0.502099 0.969011
C13   C     C_2   0.537428 0.313620 0.011386 -0.227729
C14   C     C_3   0.133421 0.577715 0.970779 -0.815145
C15   C     C_3   0.841181 0.121919 0.079243 -0.798176
C16   C     C_2   0.570611 0.958324 0.496817 -0.387047
C17   C     C_2   0.429371 0.041704 0.503362 -0.379640
C18   C     C_R   0.475702 0.493544 0.654326 0.870554
C19   C     C_R   0.522064 0.493323 0.345336 0.876425
C20   C     C_R   0.453188 0.439846 0.737742 -0.058659
C21   C     C_R   0.529244 0.457301 0.258682 -0.060365
C22   C     C_R   0.576749 0.344187 0.759449 -0.210084
H1    H     H_    0.693976 0.318808 0.717303 0.167866
H2    H     H_    0.296058 0.990507 0.509613 0.179111
H3    H     H_    0.022934 0.380300 0.439320 0.188409
H4    H     H_    0.977075 0.619736 0.560654 0.190364
H5    H     H_    0.005983 0.421874 0.899964 0.226626
H6    H     H_    0.146538 0.677694 0.928812 0.241393
H7    H     H_    0.248804 0.581602 0.002516 0.255000
H8    H     H_    0.014412 0.589373 0.017211 0.242832
H9    H     H_    0.953041 0.338546 0.106295 0.224768
H10   H     H_    0.833759 0.068923 0.139965 0.240854
H11   H     H_    0.964044 0.089629 0.039905 0.238026
H12   H     H_    0.257585 0.500282 0.258192 0.161755
H13   H     H_    0.729504 0.073856 0.050229 0.255480
H14   H     H_    0.800500 0.399428 0.239496 0.157110
H15   H     H_    0.198965 0.532363 0.774365 0.156133
H16   H     H_    0.661412 0.344146 0.972806 0.180124
H17   H     H_    0.269758 0.244925 0.015176 0.175986
H18   H     H_    0.259923 0.414151 0.118922 0.140801
H19   H     H_    0.647096 0.204635 0.851064 0.148833
H20   H     H_    0.703922 0.009529 0.490580 0.179202
N1    N     N_2   0.953500 0.457650 0.478520 -0.176491
N2    N     N_2   0.046500 0.542350 0.521480 -0.174799
N3    N     N_2   0.118286 0.431552 0.925848 -0.316956
N4    N     N_2   0.840417 0.290268 0.087817 -0.319154
O1    O     O_R   0.388470 0.738640 0.505270 -0.609224
O2    O     O_R   0.611530 0.261360 0.494730 -0.613437
O3    O     O_R   0.679650 0.711510 0.491500 -0.625877
O4    O     O_R   0.320350 0.288490 0.508500 -0.628406
O5    O     O_R   0.337210 0.515200 0.623500 -0.616285
O6    O     O_R   0.662790 0.484800 0.376500 -0.619625
O7    O     O_R   0.628380 0.488060 0.609730 -0.627889
O8    O     O_R   0.371620 0.511940 0.390270 -0.625463
Zn1   Zn    Zn3+2 0.305580 0.518120 0.509190 0.938060
Zn2   Zn    Zn3+2 0.694420 0.481880 0.490810 0.934158

loop_
_geom_bond_atom_site_label_1
_geom_bond_atom_site_label_2
_ccdc_geom_bond_type
C12   C17   S    
C2    C4    A    
N1    N2    D    
C4    H18   S    
O3    Zn2   S    
C9    C20   A    
C12   O4    A    
O4    Zn1   S    
C15   N4    S    
O2    Zn2   S    
C12   O2    A    
C7    C9    A    
C2    H12   S    
C2    C21   A    
C9    H15   S    
C3    C5    A    
H4    N2    S    
C15   H10   S    
C1    C16   S    
C6    C13   S    
C11   H17   S    
C11   C13   D    
N2    Zn1   S    
H3    N1    S    
C13   H16   S    
C14   H8    S    
C7    N3    S    
C19   O8    A    
C15   H13   S    
C19   C21   S    
C20   C22   A    
C18   O5    A    
C5    C11   S    
C14   N3    S    
O5    Zn1   S    
C10   C21   A    
C8    N4    S    
C17   H2    S    
H5    N3    S    
C14   H7    S    
C16   H20   S    
N1    Zn2   S    
C18   C20   S    
O1    Zn1   S    
C4    C6    A    
O7    Zn2   S    
C5    C7    A    
C22   H1    S    
C3    H19   S    
C3    C22   A    
C6    C8    A    
C18   O7    A    
C14   H6    S    
O8    Zn1   S    
C1    O3    A    
C19   O6    A    
C15   H11   S    
C8    C10   A    
C1    O1    A    
O6    Zn2   S    
C16   C17   D    
C10   H14   S    
H9    N4    S    
