data_mof_unit_62273.cif
_audit_creation_date              2012-10-26T18:55:16-0400
_audit_creation_method            fapswitch 2.2
_symmetry_space_group_name_H-M    P1
_symmetry_Int_Tables_number       1
_space_group_crystal_system       triclinic
_cell_length_a                    12.741361
_cell_length_b                    13.908841
_cell_length_c                    27.83466
_cell_angle_alpha                 90.23281
_cell_angle_beta                  92.569535
_cell_angle_gamma                 98.133708
_cell_volume                      4877.98982516

loop_
_atom_site_label
_atom_site_type_symbol
_atom_type_description
_atom_site_fract_x
_atom_site_fract_y
_atom_site_fract_z
_atom_type_partial_charge
C1    C     C_R   0.483394 0.315860 0.499648 0.554198
C2    C     C_R   0.515095 0.418868 0.872402 0.028443
C3    C     C_R   0.502999 0.502452 0.354440 0.011094
C4    C     C_R   0.496665 0.496849 0.645404 0.012732
C5    C     C_R   0.508581 0.414190 0.973929 0.027501
C6    C     C_R   0.488177 0.586137 0.025721 0.027391
C7    C     C_R   0.482182 0.585971 0.974560 -0.003598
C8    C     C_R   0.500796 0.411316 0.024719 -0.003649
C9    C     C_R   0.495854 0.500958 0.948896 0.033812
C10   C     C_R   0.494366 0.497884 0.050574 0.033673
C11   C     C_R   0.530161 0.333208 0.947208 -0.128927
C12   C     C_R   0.516604 0.684141 0.500367 0.553109
C13   C     C_R   0.489431 0.672150 0.053079 -0.128791
C14   C     C_R   0.532947 0.335592 0.897520 -0.093623
C15   C     C_R   0.491146 0.670617 0.102878 -0.093412
C16   C     C_R   0.501240 0.501968 0.407322 0.555741
C17   C     C_R   0.498757 0.497845 0.592626 0.555905
C18   C     C_R   0.497472 0.323924 0.050473 -0.116665
C19   C     C_R   0.461556 0.668105 0.948153 -0.116845
C20   C     C_1   0.526361 0.787351 0.499750 0.036492
C21   C     C_1   0.473631 0.212653 0.500309 0.037730
C22   C     C_2   0.543292 0.978061 0.498102 0.096041
C23   C     C_R   0.494321 0.496410 0.101719 -0.049079
C24   C     C_2   0.456699 0.021949 0.502025 0.096424
C25   C     C_1   0.465246 0.125687 0.501062 0.031957
C26   C     C_1   0.534740 0.874320 0.499033 0.031225
C27   C     C_2   0.028430 0.472541 0.486642 0.053755
C28   C     C_2   0.971572 0.527512 0.513325 0.053485
C29   C     C_1   0.854556 0.519662 0.509744 0.227251
C30   C     C_1   0.145445 0.480360 0.490240 0.226213
C31   C     C_R   0.498540 0.411637 0.177937 0.420129
C32   C     C_R   0.481439 0.584329 0.821196 0.420446
C33   C     C_R   0.493156 0.582324 0.177812 0.405550
C34   C     C_R   0.496839 0.502500 0.897771 -0.049060
C35   C     C_R   0.516020 0.420245 0.822173 0.405967
C36   C     C_R   0.587834 0.546124 0.279534 -0.024266
C37   C     C_R   0.413567 0.446827 0.719886 -0.024626
C38   C     C_R   0.590726 0.548884 0.329754 0.072588
C39   C     C_R   0.411949 0.444279 0.669697 0.071629
C40   C     C_R   0.413890 0.455432 0.327785 -0.146847
C41   C     C_R   0.581868 0.549690 0.672292 -0.146198
C42   C     C_R   0.411968 0.453428 0.277731 -0.051936
C43   C     C_R   0.582456 0.551754 0.722343 -0.051128
C44   C     C_R   0.498927 0.498639 0.253443 0.211102
C45   C     C_R   0.496177 0.408325 0.127047 0.025194
C46   C     C_R   0.498260 0.500472 0.746251 0.212850
C47   C     C_R   0.479641 0.587115 0.872012 0.024763
C48   C     C_R   0.495248 0.321250 0.100409 0.117546
C49   C     C_R   0.460266 0.669900 0.898129 0.117115
C50   C     C_R   0.492559 0.583579 0.127545 0.028451
Cu1   Cu    Cu3+1 0.395330 0.493960 0.496930 1.081520
Cu2   Cu    Cu3+1 0.604670 0.506040 0.503070 1.082277
H1    H     H_    0.345710 0.419342 0.345729 0.153893
H2    H     H_    0.654620 0.581753 0.260525 0.160266
H3    H     H_    0.548245 0.267213 0.963703 0.124615
H4    H     H_    0.492075 0.742881 0.037202 0.124984
H5    H     H_    0.647649 0.590423 0.654501 0.151507
H6    H     H_    0.342700 0.416970 0.257743 0.154579
H7    H     H_    0.648431 0.593010 0.742614 0.152581
H8    H     H_    0.549403 0.271294 0.878808 0.181018
H9    H     H_    0.491835 0.738682 0.122050 0.182187
H10   H     H_    0.493075 0.254758 0.032452 0.136548
H11   H     H_    0.442690 0.732362 0.965518 0.136389
H12   H     H_    0.349135 0.406421 0.738646 0.158396
I1    I     I_    0.049643 0.631830 0.563534 -0.226685
I2    I     I_    0.950353 0.368291 0.436401 -0.227023
I3    I     I_    0.487353 0.178238 0.129122 -0.207375
I4    I     I_    0.426220 0.804160 0.868392 -0.203813
I5    I     I_    0.282539 0.353442 0.634619 -0.227937
I6    I     I_    0.727615 0.630868 0.363939 -0.227166
I7    I     I_    0.302532 0.944097 0.510027 -0.218860
I8    I     I_    0.697460 0.055923 0.490111 -0.220238
N1    N     N_R   0.496547 0.497448 0.201828 -0.404652
N2    N     N_R   0.499035 0.501871 0.797793 -0.405344
N3    N     N_1   0.238040 0.484880 0.492320 -0.166558
N4    N     N_1   0.761960 0.515120 0.507680 -0.166033
O1    O     O_R   0.399110 0.356330 0.497030 -0.483192
O2    O     O_2   0.465362 0.662353 0.794915 -0.427614
O3    O     O_2   0.534169 0.340634 0.797722 -0.468880
O4    O     O_2   0.489850 0.665349 0.202648 -0.469480
O5    O     O_R   0.600890 0.643670 0.502970 -0.484147
O6    O     O_R   0.575890 0.366530 0.502210 -0.481567
O7    O     O_R   0.424110 0.633470 0.497790 -0.481604
O8    O     O_R   0.411620 0.494910 0.427670 -0.505834
O9    O     O_R   0.588380 0.505090 0.572330 -0.504498
O10   O     O_R   0.588400 0.505120 0.432860 -0.465861
O11   O     O_R   0.411600 0.494880 0.567140 -0.466488
O12   O     O_2   0.504673 0.330927 0.203799 -0.428765

loop_
_geom_bond_atom_site_label_1
_geom_bond_atom_site_label_2
_ccdc_geom_bond_type
C2    C35   A    
C38   I6    S    
C35   N2    A    
C1    C21   S    
C23   C45   A    
C49   I4    S    
C1    O1    A    
C42   H6    S    
C47   C49   A    
C29   N4    T    
C17   O9    A    
Cu2   O9    S    
Cu1   N3    S    
C5    C11   A    
C32   N2    A    
C11   C14   A    
C31   N1    A    
C4    C41   A    
C16   O8    A    
C15   C50   A    
C35   O3    S    
C3    C38   A    
C19   H11   S    
C43   H7    S    
C13   H4    S    
C2    C34   A    
C40   C42   A    
C27   C30   S    
C16   O10   A    
C41   C43   A    
Cu2   O5    S    
C42   C44   A    
C22   I8    S    
C39   I5    S    
Cu1   Cu2   S    
C24   C25   S    
Cu1   O11   S    
C18   H10   S    
C23   C50   A    
C1    O6    A    
C8    C18   A    
C12   O7    A    
Cu1   O1    S    
C5    C9    A    
C19   C49   A    
C4    C39   A    
C12   C20   S    
C15   H9    S    
Cu2   O6    S    
C4    C17   S    
C33   N1    A    
C3    C40   A    
C7    C19   A    
C13   C15   A    
C22   C26   S    
C9    C34   A    
C32   C47   A    
C22   C24   D    
C36   C44   A    
Cu1   O7    S    
C46   N2    S    
C37   H12   S    
C11   H3    S    
C45   C48   A    
C7    C9    A    
C21   C25   T    
C28   C29   S    
C31   O12   S    
C17   O11   A    
Cu2   N4    S    
C18   C48   A    
C6    C10   A    
C5    C8    A    
C33   O4    S    
C6    C7    A    
C10   C23   A    
C14   H8    S    
Cu2   O10   S    
C28   I1    S    
C33   C50   A    
C41   H5    S    
C37   C39   A    
C27   I2    S    
C6    C13   A    
C30   N3    T    
C20   C26   T    
C36   C38   A    
C12   O5    A    
C48   I3    S    
C44   N1    S    
C2    C14   A    
C43   C46   A    
C36   H2    S    
C32   O2    S    
C8    C10   A    
C40   H1    S    
C31   C45   A    
C27   C28   D    
C34   C47   A    
C37   C46   A    
Cu1   O8    S    
C3    C16   S    
C24   I7    S    
