data_mof_unit_28239.cif
_audit_creation_date              2013-03-05T16:01:30-0500
_audit_creation_method            fapswitch 2.2
_symmetry_space_group_name_H-M    P1
_symmetry_Int_Tables_number       1
_space_group_crystal_system       triclinic
_cell_length_a                    19.993857
_cell_length_b                    7.211256
_cell_length_c                    19.764968
_cell_angle_alpha                 90.006965
_cell_angle_beta                  98.734885
_cell_angle_gamma                 90.00618
_cell_volume                      2816.67699453

loop_
_atom_site_label
_atom_site_type_symbol
_atom_site_description
_atom_site_fract_x
_atom_site_fract_y
_atom_site_fract_z
_atom_type_partial_charge
O1    O     O_R   0.188410 0.619490 0.310050 -0.591376
O2    O     O_R   0.811590 0.380510 0.689950 -0.566173
O3    O     O_R   0.311590 0.119490 0.189950 -0.591752
O4    O     O_R   0.688410 0.880510 0.810050 -0.566653
O5    O     O_R   0.327280 0.288800 0.321740 -0.589362
O6    O     O_R   0.672720 0.711200 0.678260 -0.562530
O7    O     O_R   0.172720 0.788800 0.178260 -0.589074
O8    O     O_R   0.827280 0.211200 0.821740 -0.562029
C1    C     C_R   0.351167 0.458307 0.338651 1.014147
C2    C     C_R   0.648645 0.541750 0.661575 1.011798
C3    C     C_R   0.148851 0.958281 0.161326 1.014287
C4    C     C_R   0.851389 0.041790 0.838388 1.012170
O9    O     O_R   0.189900 0.289710 0.318190 -0.575759
O10   O     O_R   0.810100 0.710290 0.681810 -0.601732
O11   O     O_R   0.310100 0.789710 0.181810 -0.575252
O12   O     O_R   0.689900 0.210290 0.818190 -0.601450
O13   O     O_R   0.173230 0.120350 0.186370 -0.563329
O14   O     O_R   0.826770 0.879650 0.813630 -0.588016
O15   O     O_R   0.326770 0.620350 0.313630 -0.562840
O16   O     O_R   0.673230 0.379650 0.686370 -0.587861
C5    C     C_R   0.169664 0.458326 0.334010 0.945537
C6    C     C_R   0.830685 0.541763 0.666339 0.948197
C7    C     C_R   0.330342 0.958325 0.165997 0.945545
C8    C     C_R   0.669315 0.041766 0.833662 0.948076
O17   O     O_3   0.244690 0.453290 0.206760 -0.280902
O18   O     O_3   0.755310 0.546710 0.793240 -0.283654
O19   O     O_3   0.255310 0.953290 0.293240 -0.280936
O20   O     O_3   0.744690 0.046710 0.706760 -0.283787
V1    V     V_3+5 0.250980 0.178070 0.258020 1.236822
V2    V     V_3+5 0.749020 0.821930 0.741980 1.232049
V3    V     V_3+5 0.249020 0.678070 0.241980 1.237397
V4    V     V_3+5 0.750980 0.321930 0.758020 1.232553
C9    C     C_R   0.467728 0.129751 0.068101 -0.134299
C10   C     C_R   0.563770 0.862500 0.964332 -0.127660
C11   C     C_R   0.032317 0.629743 0.431956 -0.134388
C12   C     C_R   0.936252 0.362450 0.535692 -0.127838
H1    H     H_    0.502509 0.245678 0.070812 0.174657
H2    H     H_    0.561404 0.738814 0.994995 0.170409
H3    H     H_    0.997549 0.745674 0.429263 0.174644
H4    H     H_    0.938617 0.238751 0.505025 0.170347
C13   C     C_R   0.422847 0.119078 0.115772 -0.079870
C14   C     C_R   0.612600 0.872769 0.920713 -0.076906
C15   C     C_R   0.077194 0.619084 0.384282 -0.079215
C16   C     C_R   0.887412 0.372729 0.579299 -0.076613
H5    H     H_    0.423748 0.227816 0.153676 0.193427
H6    H     H_    0.646172 0.755914 0.918240 0.148628
H7    H     H_    0.076307 0.727839 0.346403 0.194125
H8    H     H_    0.853834 0.255865 0.581763 0.148479
C17   C     C_R   0.378356 0.968330 0.115498 -0.224398
C18   C     C_R   0.618747 0.032689 0.881590 -0.216331
C19   C     C_R   0.121664 0.468328 0.384525 -0.224908
C20   C     C_R   0.881261 0.532674 0.618420 -0.215603
C21   C     C_R   0.379400 0.829090 0.065922 -0.146863
C22   C     C_R   0.574413 0.181588 0.886668 -0.150080
C23   C     C_R   0.120610 0.329074 0.434083 -0.147222
C24   C     C_R   0.925604 0.681578 0.613355 -0.151092
H9    H     H_    0.344913 0.712689 0.064251 0.164692
H10   H     H_    0.577490 0.305197 0.856108 0.187831
H11   H     H_    0.155084 0.212669 0.435733 0.164776
H12   H     H_    0.922526 0.805202 0.643916 0.187242
C25   C     C_R   0.422298 0.841419 0.015992 0.561976
C26   C     C_R   0.523438 0.170667 0.928188 0.558695
C27   C     C_R   0.077718 0.341390 0.484019 0.562039
C28   C     C_R   0.976591 0.670646 0.571850 0.558604
C29   C     C_R   0.468050 0.993283 0.017299 -0.103260
C30   C     C_R   0.518194 0.009192 0.968544 -0.100271
C31   C     C_R   0.031981 0.493255 0.482736 -0.103384
C32   C     C_R   0.981836 0.509152 0.531492 -0.099921
C33   C     C_R   0.087277 0.968423 0.108864 -0.453151
C34   C     C_R   0.913104 0.032812 0.890726 -0.448250
C35   C     C_R   0.412765 0.468586 0.391080 -0.453217
C36   C     C_R   0.586949 0.532600 0.609224 -0.448123
C37   C     C_R   0.036171 0.027887 0.919329 -0.172294
C38   C     C_R   0.964270 0.963756 0.079841 -0.178973
C39   C     C_R   0.463899 0.524080 0.580790 -0.172143
C40   C     C_R   0.535801 0.467329 0.419926 -0.178802
C41   C     C_R   0.977865 0.042472 0.870049 0.282689
C42   C     C_R   0.022585 0.953568 0.129248 0.297889
C43   C     C_R   0.522218 0.539348 0.630017 0.283271
C44   C     C_R   0.477470 0.456481 0.370554 0.297260
C45   C     C_R   0.908246 0.005932 0.961343 0.493327
C46   C     C_R   0.092186 0.992666 0.038147 0.493015
C47   C     C_R   0.591816 0.508041 0.538500 0.493085
C48   C     C_R   0.407866 0.490487 0.461903 0.493159
C49   C     C_R   0.968043 0.990976 0.010082 -0.026494
C50   C     C_R   0.032389 0.003879 0.989226 -0.027396
C51   C     C_R   0.532023 0.492397 0.489789 -0.026602
C52   C     C_R   0.467670 0.502321 0.510787 -0.027423
H13   H     H_    0.085102 0.037402 0.902423 0.230180
H14   H     H_    0.915376 0.953591 0.096795 0.227646
H15   H     H_    0.414986 0.531331 0.597831 0.229987
H16   H     H_    0.584696 0.459328 0.402875 0.227689
O21   O     O_3   0.416448 0.704629 0.966556 -0.717933
H17   H     H_    0.437552 0.747360 0.927194 0.353079
O22   O     O_3   0.479421 0.318775 0.926231 -0.709259
H18   H     H_    0.438323 0.280109 0.944735 0.344632
O23   O     O_3   0.083557 0.204585 0.533435 -0.717911
H19   H     H_    0.062463 0.247309 0.572806 0.353152
O24   O     O_3   0.020617 0.818763 0.573820 -0.709545
H20   H     H_    0.061724 0.780082 0.555338 0.344625
O25   O     O_3   0.153955 0.006330 0.014765 -0.740817
H21   H     H_    0.191763 0.992554 0.052899 0.294652
O26   O     O_3   0.846495 0.993218 0.984812 -0.747528
H22   H     H_    0.808699 0.012697 0.947059 0.293300
O27   O     O_3   0.346098 0.501381 0.485420 -0.740791
H23   H     H_    0.308298 0.487665 0.447271 0.294556
O28   O     O_3   0.653570 0.498147 0.514914 -0.747498
H24   H     H_    0.691321 0.517570 0.552722 0.293276
N1    N     N_R   0.014832 0.928631 0.199996 0.234433
O29   O     O_R   0.963876 0.834325 0.215762 -0.381438
O30   O     O_R   0.053691 0.016484 0.248370 -0.416046
N2    N     N_R   0.985820 0.063690 0.799126 0.237968
O31   O     O_R   0.038333 0.993323 0.776843 -0.351106
O32   O     O_R   0.944786 0.167679 0.758047 -0.399400
N3    N     N_R   0.485243 0.433396 0.299718 0.234343
O33   O     O_R   0.536579 0.341314 0.283676 -0.381347
O34   O     O_R   0.445915 0.520660 0.251561 -0.415501
N4    N     N_R   0.514350 0.558514 0.701025 0.237904
O35   O     O_R   0.462553 0.484183 0.723385 -0.351503
O36   O     O_R   0.554613 0.664537 0.742088 -0.399184

loop_
_geom_bond_atom_site_label_1
_geom_bond_atom_site_label_2
_geom_bond_distance
_ccdc_geom_bond_type
O17   V3    1.760948 S    
C47   C51   1.420977 A    
C51   C52   1.412482 A    
O1    C5    1.330183 A    
O25   H21   0.988114 S    
C23   H11   1.083550 S    
O19   V1    1.761123 S    
O13   V1    1.981508 S    
O3    C7    1.330150 A    
O22   H18   0.988924 S    
C10   C14   1.399123 A    
O4    V2    1.988025 S    
O15   V3    1.981653 S    
C10   C30   1.406950 A    
N2    O32   1.301002 A    
O23   H19   0.988927 S    
C9    C29   1.406578 A    
C49   C50   1.412378 A    
O18   V4    1.760948 S    
O21   H17   0.988925 S    
C28   C32   1.424335 A    
O9    V1    1.998737 S    
C36   C43   1.416975 A    
N1    O30   1.301246 A    
C22   H10   1.083783 S    
O4    C8    1.330368 A    
C25   O21   1.380756 S    
C7    C17   1.487950 S    
N3    O33   1.301501 A    
C43   N4    1.442431 S    
O1    V3    1.988040 S    
O2    V4    1.988040 S    
C14   H6    1.083108 S    
O3    V1    1.988026 S    
C34   C45   1.427020 A    
N4    O35   1.301562 A    
C35   C44   1.416085 A    
C33   C46   1.426735 A    
C21   C25   1.405171 A    
C1    O15   1.332282 A    
C28   O24   1.380795 S    
C2    O16   1.332408 A    
N3    O34   1.301221 A    
C23   C27   1.405194 A    
O2    C6    1.330369 A    
O28   H24   0.988117 S    
C24   C28   1.404415 A    
O14   V2    1.981508 S    
C11   C15   1.398445 A    
C39   H15   1.082886 S    
C16   C20   1.404286 A    
O11   C7    1.333552 A    
O12   C8    1.333414 A    
C26   O22   1.380798 S    
C34   C41   1.417443 A    
C33   C42   1.415996 A    
O10   V2    1.998735 S    
C13   C17   1.404069 A    
N2    O31   1.301667 A    
O7    C3    1.336110 A    
O5    V1    1.991720 S    
C8    C18   1.488214 S    
C27   C31   1.424571 A    
O7    V3    1.991975 S    
C26   C30   1.424337 A    
C20   C24   1.405663 A    
C31   C32   1.496786 S    
O8    V4    1.991974 S    
C40   C44   1.404571 A    
C12   H4    1.083471 S    
C21   H9    1.083549 S    
C22   C26   1.404427 A    
C46   C50   1.421191 A    
C9    H1    1.083449 S    
C24   H12   1.083781 S    
C45   O26   1.386308 S    
C41   N2    1.442743 S    
C11   H3    1.083453 S    
O5    C1    1.336140 A    
O24   H20   0.988920 S    
C44   N3    1.441555 S    
C11   C31   1.406569 A    
O8    C4    1.336087 A    
C3    C33   1.486091 S    
C48   O27   1.386276 S    
O9    C5    1.333566 A    
C18   C22   1.405673 A    
C40   C51   1.405956 A    
C14   C18   1.404282 A    
O6    V2    1.991720 S    
C40   H16   1.082902 S    
C12   C16   1.399123 A    
C5    C19   1.487987 S    
C6    C20   1.488205 S    
C35   C48   1.426760 A    
O16   V4    1.981655 S    
C4    C34   1.486324 S    
C3    O13   1.332278 A    
C37   C41   1.404964 A    
C1    C35   1.486087 S    
C10   H2    1.083476 S    
C48   C52   1.421136 A    
O6    C2    1.336107 A    
C12   C32   1.406948 A    
O11   V3    1.998747 S    
O12   V4    1.998747 S    
O27   H23   0.988114 S    
C9    C13   1.398467 A    
O10   C6    1.333445 A    
O20   V2    1.761123 S    
C37   H13   1.082931 S    
C27   O23   1.380752 S    
N1    O29   1.301490 A    
C15   C19   1.404046 A    
C15   H7    1.082602 S    
C17   C21   1.405266 A    
C38   H14   1.082969 S    
C46   O25   1.386294 S    
C47   O28   1.386269 S    
C42   N1    1.441387 S    
C19   C23   1.405273 A    
C38   C49   1.406031 A    
N4    O36   1.300999 A    
C37   C50   1.405732 A    
C36   C47   1.426924 A    
C25   C29   1.424569 A    
C39   C52   1.405801 A    
C29   C30   1.496783 S    
C38   C42   1.404513 A    
C4    O14   1.332458 A    
O26   H22   0.988109 S    
C13   H5    1.082681 S    
C39   C43   1.404903 A    
C45   C49   1.420992 A    
C16   H8    1.083106 S    
C2    C36   1.486239 S    
