data_mof_unit_64063.cif
_audit_creation_date              2013-03-05T16:45:16-0500
_audit_creation_method            fapswitch 2.2
_symmetry_space_group_name_H-M    P1
_symmetry_Int_Tables_number       1
_space_group_crystal_system       triclinic
_cell_length_a                    19.067839
_cell_length_b                    19.214693
_cell_length_c                    19.222509
_cell_angle_alpha                 94.613007
_cell_angle_beta                  90.150409
_cell_angle_gamma                 85.771814
_cell_volume                      7000.83535206

loop_
_atom_site_label
_atom_site_type_symbol
_atom_site_description
_atom_site_fract_x
_atom_site_fract_y
_atom_site_fract_z
_atom_type_partial_charge
Zn1   Zn    Zn3+2 0.558430 0.558420 0.558430 0.981049
Zn2   Zn    Zn3+2 0.437090 0.558800 0.446440 1.010963
Zn3   Zn    Zn3+2 0.446060 0.446060 0.558420 1.008051
Zn4   Zn    Zn3+2 0.558420 0.436720 0.436720 0.996799
O1    O     O_3   0.500000 0.500000 0.500000 -0.493828
O2    O     O_R   0.536460 0.451300 0.340640 -0.642863
O3    O     O_R   0.545320 0.545300 0.655970 -0.640829
O4    O     O_R   0.451560 0.656600 0.467300 -0.656465
O5    O     O_R   0.466660 0.346810 0.536100 -0.637607
O6    O     O_R   0.340900 0.545940 0.467290 -0.628311
O7    O     O_R   0.655960 0.450920 0.450930 -0.643164
O8    O     O_R   0.347180 0.467040 0.545670 -0.633027
O9    O     O_R   0.655970 0.536100 0.536110 -0.636629
O10   O     O_R   0.536480 0.656330 0.545680 -0.636406
O11   O     O_R   0.545300 0.340270 0.450920 -0.630702
O12   O     O_R   0.451550 0.536740 0.347440 -0.606408
O13   O     O_R   0.466670 0.466660 0.655960 -0.642472
C1    C     C_R   0.492242 0.492266 0.311093 0.908363
C2    C     C_R   0.507217 0.507362 0.689460 0.807744
C3    C     C_R   0.492960 0.690053 0.507783 0.791693
C4    C     C_R   0.506116 0.310172 0.491613 0.834043
C5    C     C_R   0.310510 0.507993 0.508032 0.868738
C6    C     C_R   0.689442 0.492142 0.492329 0.814358
C7    C     C_R   0.766513 0.486730 0.492323 -0.050670
C8    C     C_R   0.802632 0.493561 0.555763 -0.265798
C9    C     C_R   0.876260 0.486244 0.557370 0.292860
C10   C     C_R   0.914229 0.477557 0.493487 0.224079
C11   C     C_R   0.877630 0.468640 0.430511 -0.161373
C12   C     C_R   0.804292 0.472433 0.429838 -0.213746
C13   C     C_R   0.118501 0.535006 0.460985 0.261192
C14   C     C_R   0.192059 0.528413 0.455813 -0.241116
C15   C     C_R   0.086213 0.526439 0.525904 0.118067
N1    N     N_2   0.988478 0.479037 0.490051 -0.114125
N2    N     N_2   0.012241 0.524711 0.531656 -0.062990
C16   C     C_R   0.233524 0.513652 0.513709 -0.120367
H1    H     H_    0.217155 0.534974 0.406496 0.225851
H2    H     H_    0.906200 0.460360 0.381563 0.194730
H3    H     H_    0.777061 0.466116 0.380458 0.168507
C17   C     C_R   0.201476 0.507722 0.578110 -0.272105
C18   C     C_R   0.128229 0.516351 0.585343 0.270653
H4    H     H_    0.233801 0.499043 0.623494 0.206463
H5    H     H_    0.773277 0.501043 0.604321 0.197470
C19   C     C_R   0.509339 0.510952 0.766120 -0.016115
C20   C     C_R   0.473965 0.463365 0.802247 -0.194036
C21   C     C_R   0.475356 0.466853 0.874860 -0.159334
C22   C     C_R   0.512259 0.518396 0.912762 0.327764
C23   C     C_R   0.546839 0.566196 0.876638 -0.134476
C24   C     C_R   0.545908 0.562362 0.803879 -0.202747
C25   C     C_R   0.550476 0.514836 0.127054 0.318912
C26   C     C_R   0.546985 0.521777 0.200772 -0.036200
C27   C     C_R   0.498617 0.479317 0.088494 0.136085
N3    N     N_2   0.514596 0.524905 0.986795 -0.108086
N4    N     N_2   0.497032 0.472308 0.014480 -0.148617
C28   C     C_R   0.492199 0.491516 0.234984 -0.183010
H6    H     H_    0.574961 0.606344 0.905086 0.183372
H7    H     H_    0.573305 0.599959 0.777271 0.181971
C29   C     C_R   0.441815 0.454612 0.195995 0.252918
C30   C     C_R   0.446437 0.448622 0.123288 -0.269777
H8    H     H_    0.447064 0.429670 0.901101 0.169407
H9    H     H_    0.407794 0.420877 0.092873 0.214770
H10   H     H_    0.445184 0.423343 0.774424 0.183617
C31   C     C_R   0.498847 0.234502 0.483173 -0.057372
C32   C     C_R   0.433424 0.209920 0.497730 -0.249468
C33   C     C_R   0.423367 0.138375 0.491858 0.293423
C34   C     C_R   0.481050 0.090213 0.473695 0.222275
C35   C     C_R   0.546423 0.115146 0.457027 -0.201004
C36   C     C_R   0.554893 0.186946 0.461056 -0.202466
C37   C     C_R   0.574042 0.862294 0.503058 0.150007
C38   C     C_R   0.564114 0.792056 0.511105 -0.261127
C39   C     C_R   0.515981 0.908104 0.488395 0.244168
N5    N     N_2   0.471791 0.017796 0.475456 -0.132212
N6    N     N_2   0.526902 0.980082 0.482737 -0.185563
C40   C     C_R   0.497344 0.765985 0.504211 -0.083058
H11   H     H_    0.609463 0.756788 0.520886 0.176773
H12   H     H_    0.591052 0.079177 0.441493 0.173514
H13   H     H_    0.605508 0.205180 0.448891 0.174438
C41   C     C_R   0.437968 0.811662 0.490822 0.104113
C42   C     C_R   0.448503 0.882153 0.482167 -0.168670
H14   H     H_    0.404134 0.917324 0.470411 0.209933
H15   H     H_    0.389401 0.246952 0.512705 0.210305
N7    N     N_R   0.608402 0.540335 0.091700 0.212177
O14   O     O_R   0.651391 0.496727 0.054415 -0.351257
O15   O     O_R   0.612460 0.607320 0.088742 -0.381438
N8    N     N_R   0.386860 0.421231 0.228993 0.217084
O16   O     O_R   0.362229 0.365228 0.198471 -0.342694
O17   O     O_R   0.355793 0.450332 0.285303 -0.371758
C43   C     C_3   0.647202 0.887567 0.510220 -0.404924
C44   C     C_3   0.678673 0.897030 0.438952 -0.792417
H16   H     H_    0.681343 0.846677 0.405993 0.264258
H17   H     H_    0.646664 0.937237 0.411937 0.262864
H18   H     H_    0.732750 0.914272 0.445763 0.259702
H19   H     H_    0.645704 0.937788 0.543370 0.224394
H20   H     H_    0.682673 0.849470 0.536659 0.216417
N9    N     N_R   0.077493 0.552296 0.400920 0.226223
O18   O     O_R   0.018831 0.591325 0.408321 -0.354049
O19   O     O_R   0.102361 0.535700 0.338311 -0.333918
C45   C     C_3   0.364652 0.784603 0.486584 -0.386782
C46   C     C_3   0.302948 0.840461 0.491620 -0.786070
H21   H     H_    0.307855 0.877011 0.538891 0.277183
H22   H     H_    0.300126 0.869853 0.444134 0.272280
H23   H     H_    0.252983 0.814725 0.495480 0.262524
H24   H     H_    0.359911 0.751824 0.436738 0.244198
H25   H     H_    0.358297 0.751073 0.530335 0.209607
N10   N     N_R   0.354958 0.115451 0.506548 0.221184
O20   O     O_R   0.334942 0.056608 0.477680 -0.369679
O21   O     O_R   0.309899 0.156100 0.544548 -0.345716
N11   N     N_R   0.911212 0.482631 0.623366 0.237471
O22   O     O_R   0.962730 0.435406 0.630311 -0.307202
O23   O     O_R   0.884279 0.517582 0.678970 -0.316289
N12   N     N_R   0.097118 0.514988 0.653205 0.253105
O24   O     O_R   0.128651 0.478976 0.700230 -0.322527
O25   O     O_R   0.042548 0.557125 0.671418 -0.285227
C47   C     C_3   0.602905 0.559577 0.242475 -0.358335
C48   C     C_3   0.670116 0.512192 0.248959 -0.761146
H26   H     H_    0.658961 0.464698 0.275050 0.265823
H27   H     H_    0.693426 0.496065 0.196796 0.293611
H28   H     H_    0.709113 0.540869 0.280716 0.236295
H29   H     H_    0.615212 0.607543 0.217958 0.253955
H30   H     H_    0.584030 0.578593 0.295684 0.175975

loop_
_geom_bond_atom_site_label_1
_geom_bond_atom_site_label_2
_geom_bond_distance
_ccdc_geom_bond_type
C43   C44   1.526565 S    
O8    C5    1.280364 A    
C39   C42   1.415157 A    
N10   O21   1.301685 A    
C45   C46   1.530784 S    
C17   H4    1.083608 S    
C41   C42   1.406824 A    
C10   N1    1.419967 S    
C5    C16   1.467643 S    
C9    C10   1.419100 A    
O4    C3    1.277910 A    
C31   C36   1.397743 A    
Zn1   O1    1.933366 S    
C11   C12   1.394993 A    
N8    O17   1.300926 A    
C13   C14   1.402028 A    
C30   H9    1.083742 S    
C46   H21   1.110967 S    
C22   N3    1.419390 S    
O9    C6    1.279854 A    
C24   H7    1.082998 S    
C25   N7    1.434974 S    
C7    C12   1.399773 A    
Zn3   O8    1.918021 S    
N12   O24   1.301478 A    
C37   C38   1.397343 A    
C25   C27   1.416782 A    
C12   H3    1.083294 S    
C6    C7    1.465588 S    
C38   C40   1.404247 A    
Zn2   O12   1.932094 S    
C19   C24   1.404418 A    
C45   H24   1.110779 S    
C35   C36   1.396794 A    
C47   H30   1.109782 S    
C43   H19   1.111385 S    
N11   O23   1.301436 A    
N10   O20   1.301374 A    
N7    O15   1.300908 A    
C2    C19   1.470257 S    
C48   H26   1.110135 S    
C32   H15   1.083532 S    
O2    C1    1.274603 A    
O10   C3    1.277750 A    
C7    C8    1.400646 A    
Zn4   O2    1.930469 S    
C17   C18   1.400243 A    
C42   H14   1.078322 S    
C18   N12   1.437385 S    
C8    C9    1.401106 A    
C34   N5    1.418559 S    
O6    C5    1.279589 A    
N7    O14   1.301121 A    
C47   H29   1.108566 S    
C27   N4    1.418723 S    
C15   N2    1.418138 S    
C8    H5    1.083744 S    
C16   C17   1.398531 A    
C19   C20   1.403158 A    
C31   C32   1.402711 A    
Zn3   O5    1.932373 S    
C23   C24   1.394752 A    
C44   H18   1.110320 S    
N11   O22   1.301367 A    
N1    N2    1.248581 D    
C29   N8    1.442148 S    
C38   H11   1.084211 S    
C27   C30   1.392346 A    
C26   C28   1.420057 A    
N8    O16   1.301649 A    
Zn4   O7    1.915301 S    
N9    O19   1.301512 A    
C4    C31   1.466711 S    
C45   H25   1.111876 S    
C37   C39   1.405166 A    
C44   H17   1.110132 S    
C25   C26   1.413872 A    
C46   H22   1.110518 S    
C14   C16   1.399015 A    
Zn2   O1    1.938092 S    
Zn1   O9    1.919408 S    
Zn2   O6    1.916339 S    
N3    N4    1.246644 D    
C23   H6    1.083184 S    
C47   C48   1.527178 S    
C33   N10   1.442875 S    
C22   C23   1.398139 A    
C21   H8    1.082667 S    
Zn1   O3    1.931142 S    
Zn2   O4    1.929501 S    
C20   C21   1.392300 A    
Zn4   O1    1.941241 S    
Zn3   O1    1.934842 S    
C9    N11   1.435720 S    
C48   H27   1.109528 S    
Zn1   O10   1.931864 S    
C20   H10   1.083113 S    
C46   H23   1.110618 S    
O3    C2    1.276607 A    
C26   C47   1.524205 S    
C33   C34   1.409974 A    
Zn4   O11   1.929186 S    
N5    N6    1.245898 D    
C13   N9    1.439979 S    
C13   C15   1.419653 A    
O5    C4    1.273321 A    
C29   C30   1.395576 A    
C11   H2    1.083156 S    
C35   H12   1.082788 S    
C43   H20   1.112032 S    
O7    C6    1.280138 A    
O13   C2    1.276554 A    
C3    C40   1.474642 S    
Zn3   O13   1.930362 S    
C15   C18   1.411658 A    
N9    O18   1.301471 A    
N12   O25   1.301105 A    
C48   H28   1.110475 S    
C1    C28   1.461920 S    
C32   C33   1.397560 A    
C21   C22   1.410966 A    
O11   C4    1.282230 A    
C44   H16   1.111022 S    
O12   C1    1.276508 A    
C34   C35   1.414503 A    
C10   C11   1.400587 A    
C37   C43   1.512930 S    
C40   C41   1.416551 A    
C14   H1    1.083539 S    
C39   N6    1.426442 S    
C41   C45   1.526784 S    
C36   H13   1.083104 S    
C28   C29   1.413744 A    
