data_mof_unit_8163.cif
_audit_creation_date              2012-12-10T17:09:56-0500
_audit_creation_method            fapswitch 2.2
_symmetry_space_group_name_H-M    P1
_symmetry_Int_Tables_number       1
_space_group_crystal_system       triclinic
_cell_length_a                    10.773772
_cell_length_b                    12.975192
_cell_length_c                    11.717193
_cell_angle_alpha                 100.535229
_cell_angle_beta                  94.027925
_cell_angle_gamma                 90.655937
_cell_volume                      1605.88477345

loop_
_atom_site_label
_atom_site_type_symbol
_atom_type_description
_atom_site_fract_x
_atom_site_fract_y
_atom_site_fract_z
_atom_type_partial_charge
C1    C     C_R   0.498291 0.299121 0.478115 0.759221
C2    C     C_R   0.067901 0.411866 0.540068 0.042800
C3    C     C_R   0.128628 0.494019 0.499372 -0.189979
C4    C     C_R   0.060489 0.572091 0.456398 0.384868
C5    C     C_R   0.932229 0.570063 0.455690 -0.212473
C6    C     C_R   0.870745 0.491876 0.498707 -0.157562
C7    C     C_R   0.485929 0.814736 0.535940 -0.195120
C8    C     C_R   0.498569 0.185679 0.465662 -0.068622
C9    C     C_R   0.549626 0.015801 0.360138 -0.107277
C10   C     C_R   0.542100 0.123506 0.366772 -0.185871
C11   C     C_R   0.459285 0.139853 0.556442 -0.185965
C12   C     C_R   0.262542 0.498668 0.499942 0.861132
C13   C     C_R   0.465554 0.031696 0.550989 0.014385
C14   C     C_R   0.512753 0.969710 0.451995 0.112058
C15   C     C_R   0.523175 0.862459 0.445836 -0.276626
C16   C     C_R   0.435217 0.875431 0.633923 0.356512
C17   C     C_R   0.426233 0.984263 0.641877 0.320154
C18   C     C_R   0.395119 0.395388 0.016530 -0.241053
C19   C     C_R   0.403298 0.402988 0.138175 0.368619
C20   C     C_R   0.543356 0.549358 0.159502 0.069048
C21   C     C_R   0.538453 0.542184 0.035856 -0.030875
C22   C     C_R   0.462470 0.463719 0.964669 -0.028944
C23   C     C_R   0.496513 0.700964 0.522190 0.906838
C24   C     C_R   0.455823 0.453723 0.842008 0.051813
C25   C     C_R   0.597610 0.596413 0.857321 0.094941
C26   C     C_R   0.606886 0.609736 0.980160 0.276648
C27   C     C_R   0.737312 0.497395 0.499566 0.805355
C28   C     C_R   0.134223 0.329178 0.577856 -0.162342
C29   C     C_R   0.071754 0.248606 0.616063 -0.103729
C30   C     C_R   0.942625 0.248033 0.616238 -0.111193
C31   C     C_R   0.875220 0.327988 0.578128 -0.149792
C32   C     C_R   0.936755 0.411047 0.540082 0.098945
Cu1   Cu    Cu3+1 0.509250 0.507730 0.615930 0.991290
Cu2   Cu    Cu3+1 0.490750 0.492270 0.384070 0.981773
H1    H     H_    0.573403 0.158427 0.296311 0.163576
H2    H     H_    0.424340 0.189627 0.631186 0.186438
H3    H     H_    0.396362 0.393576 0.787787 0.134805
H4    H     H_    0.650019 0.648586 0.815381 0.170977
H5    H     H_    0.338148 0.333754 0.961433 0.168018
H6    H     H_    0.601577 0.608879 0.215696 0.172690
H7    H     H_    0.234301 0.324954 0.576901 0.127132
H8    H     H_    0.123738 0.185872 0.644661 0.180053
H9    H     H_    0.894341 0.184838 0.644967 0.158113
H10   H     H_    0.774900 0.323117 0.577320 0.143111
H11   H     H_    0.880059 0.631364 0.423889 0.184388
H12   H     H_    0.561142 0.815792 0.370295 0.191402
H13   H     H_    0.585373 0.968692 0.283844 0.175542
N1    N     N_R   0.523180 0.519350 0.790130 -0.213058
N2    N     N_R   0.476820 0.480650 0.209890 -0.189663
O1    O     O_R   0.506570 0.354460 0.582000 -0.604374
O2    O     O_R   0.490940 0.341410 0.386200 -0.593299
O3    O     O_R   0.327470 0.506530 0.597920 -0.565648
O4    O     O_R   0.311840 0.493480 0.402120 -0.561556
O5    O     O_R   0.509060 0.658590 0.613800 -0.545621
O6    O     O_R   0.493430 0.645540 0.418000 -0.579121
O7    O     O_R   0.688160 0.506520 0.597880 -0.584375
O8    O     O_R   0.672530 0.493470 0.402080 -0.581786
Cl1   Cl    Cl    0.133211 0.676759 0.407192 -0.547676
Cl2   Cl    Cl    0.363887 0.059596 0.765656 -0.580498
Cl3   Cl    Cl    0.704468 0.711532 0.059751 -0.593769
C33   C     C_3   0.334876 0.317917 0.182423 -0.715999
H14   H     H_    0.263100 0.277576 0.116002 0.203125
H15   H     H_    0.400659 0.256749 0.199999 0.229073
H16   H     H_    0.283667 0.347727 0.258938 0.246096
Cl4   Cl    Cl    0.375431 0.816805 0.744520 -0.467074

loop_
_geom_bond_atom_site_label_1
_geom_bond_atom_site_label_2
_ccdc_geom_bond_type
C33   H16   S    
C6    C32   A    
C9    C14   A    
C23   O6    A    
C20   N2    A    
C16   Cl4   S    
C13   C14   A    
C25   H4    S    
Cu2   O8    S    
C1    C8    S    
C11   C13   A    
C1    O1    A    
C19   N2    A    
C6    C27   S    
C20   H6    S    
C13   C17   A    
C18   H5    S    
C27   O7    A    
Cu1   O7    S    
C7    C15   A    
C24   H3    S    
Cu1   O1    S    
Cu2   O6    S    
C21   C22   A    
Cu1   O3    S    
C1    O2    A    
C25   N1    A    
Cu2   O2    S    
C30   C31   A    
C26   Cl3   S    
C17   Cl2   S    
C8    C11   A    
C7    C23   S    
C5    C6    A    
Cu2   O4    S    
C2    C32   A    
C7    C16   A    
C12   O3    A    
C21   C26   A    
C19   C33   S    
C2    C3    A    
C27   O8    A    
C33   H14   S    
C29   H8    S    
C10   H1    S    
C22   C24   A    
C30   H9    S    
C9    H13   S    
C16   C17   A    
C31   H10   S    
C29   C30   A    
C3    C4    A    
C24   N1    A    
C28   H7    S    
Cu1   Cu2   S    
C20   C21   A    
C23   O5    A    
C8    C10   A    
C18   C19   A    
C9    C10   A    
C4    Cl1   S    
Cu1   O5    S    
C33   H15   S    
Cu1   N1    S    
C14   C15   A    
C28   C29   A    
Cu2   N2    S    
C2    C28   A    
C3    C12   S    
C15   H12   S    
C25   C26   A    
C18   C22   A    
C5    H11   S    
C31   C32   A    
C12   O4    A    
C4    C5    A    
C11   H2    S    
