data_mof_unit_30561.cif
_audit_creation_date              2013-03-05T15:44:59-0500
_audit_creation_method            fapswitch 2.2
_symmetry_space_group_name_H-M    P1
_symmetry_Int_Tables_number       1
_space_group_crystal_system       triclinic
_cell_length_a                    17.402844
_cell_length_b                    24.413778
_cell_length_c                    15.121767
_cell_angle_alpha                 90.21655
_cell_angle_beta                  125.981542
_cell_angle_gamma                 89.865113
_cell_volume                      5198.92931386

loop_
_atom_site_label
_atom_site_type_symbol
_atom_site_description
_atom_site_fract_x
_atom_site_fract_y
_atom_site_fract_z
_atom_type_partial_charge
C1    C     C_R   0.349114 0.349061 0.908598 -0.144539
C2    C     C_R   0.687572 0.373309 0.091119 -0.028611
C3    C     C_R   0.817103 0.867451 0.908479 -0.074832
C4    C     C_R   0.188076 0.873526 0.092961 -0.057744
H1    H     H_    0.307537 0.334837 0.824820 0.119592
H2    H     H_    0.743506 0.363389 0.175000 0.129933
H3    H     H_    0.764541 0.856548 0.824756 0.143768
H4    H     H_    0.242985 0.866856 0.178239 0.155208
N1    N     N_R   0.395440 0.396300 0.944370 -0.052774
N2    N     N_R   0.604560 0.396300 0.055630 -0.055855
N3    N     N_R   0.895440 0.896300 0.944370 -0.058519
N4    N     N_R   0.104560 0.896300 0.055630 -0.061323
C5    C     C_R   0.441802 0.651525 0.089561 -0.089322
C6    C     C_R   0.559438 0.651156 0.911512 -0.116324
C7    C     C_R   0.939856 0.150415 0.090288 -0.069693
C8    C     C_R   0.100245 0.122081 0.910902 -0.162684
N5    N     N_R   0.449890 0.602500 0.055780 -0.081868
N6    N     N_R   0.550110 0.602500 0.944220 -0.079104
N7    N     N_R   0.949890 0.102500 0.055780 -0.075724
N8    N     N_R   0.050110 0.102500 0.944220 -0.055724
C9    C     C_R   0.481169 0.453088 0.247447 -0.142033
C10   C     C_R   0.453232 0.453906 0.698982 -0.139086
C11   C     C_R   0.003047 0.954242 0.271097 -0.134419
C12   C     C_R   0.951882 0.953233 0.699173 -0.152298
H5    H     H_    0.470234 0.410555 0.256040 0.115135
H6    H     H_    0.433994 0.412194 0.669519 0.117723
H7    H     H_    0.009818 0.913119 0.300384 0.106674
H8    H     H_    0.937546 0.911035 0.671897 0.126799
N9    N     N_R   0.525090 0.470990 0.205640 -0.056955
N10   N     N_R   0.474910 0.470990 0.794360 -0.053159
N11   N     N_R   0.025090 0.970990 0.205640 -0.053627
N12   N     N_R   0.974910 0.970990 0.794360 -0.054864
C13   C     C_R   0.231804 0.543823 0.755726 -0.030723
C14   C     C_R   0.760901 0.544099 0.298541 -0.048802
C15   C     C_R   0.731218 0.045550 0.725071 -0.020861
C16   C     C_R   0.251395 0.043848 0.306212 -0.060698
H9    H     H_    0.207812 0.584919 0.749067 0.166566
H10   H     H_    0.776362 0.584790 0.331951 0.192462
H11   H     H_    0.708374 0.087759 0.709160 0.142624
H12   H     H_    0.260335 0.084554 0.338775 0.160921
N13   N     N_R   0.320240 0.527820 0.794510 -0.040980
N14   N     N_R   0.679760 0.527820 0.205490 -0.055627
N15   N     N_R   0.820240 0.027820 0.794510 -0.047120
N16   N     N_R   0.179760 0.027820 0.205490 -0.065139
C17   C     C_R   0.483718 0.545017 0.252454 -0.056246
C18   C     C_R   0.458332 0.545272 0.701365 -0.028678
C19   C     C_R   0.996770 0.046310 0.264666 -0.071461
C20   C     C_R   0.953836 0.044604 0.699079 -0.053599
H13   H     H_    0.478074 0.587246 0.269407 0.152793
H14   H     H_    0.448663 0.587685 0.676857 0.166702
H15   H     H_    0.993693 0.088766 0.282726 0.133612
H16   H     H_    0.942039 0.086636 0.671643 0.149354
N17   N     N_R   0.524580 0.527810 0.205160 -0.056207
N18   N     N_R   0.475420 0.527810 0.794840 -0.053114
N19   N     N_R   0.024580 0.027810 0.205160 -0.060263
N20   N     N_R   0.975420 0.027810 0.794840 -0.047129
C21   C     C_R   0.233479 0.452595 0.753696 -0.081629
C22   C     C_R   0.758580 0.452991 0.297130 -0.079675
C23   C     C_R   0.732759 0.953806 0.719608 -0.064061
C24   C     C_R   0.250309 0.952991 0.302627 -0.052220
N21   N     N_R   0.320750 0.470990 0.794990 -0.054814
N22   N     N_R   0.679250 0.470990 0.205010 -0.060603
N23   N     N_R   0.820750 0.970990 0.794990 -0.062399
N24   N     N_R   0.179250 0.970990 0.205010 -0.058972
C25   C     C_R   0.352756 0.652068 0.908761 0.308183
C26   C     C_R   0.649964 0.650702 0.092653 0.358550
C27   C     C_R   0.854093 0.151573 0.908277 0.260336
C28   C     C_R   0.188714 0.126424 0.093743 0.391546
N25   N     N_R   0.393580 0.602500 0.942610 -0.104075
N26   N     N_R   0.606420 0.602500 0.057390 -0.099934
N27   N     N_R   0.893580 0.102500 0.942610 -0.092904
N28   N     N_R   0.106420 0.102500 0.057390 -0.102138
C29   C     C_R   0.440483 0.348467 0.090795 -0.086040
C30   C     C_R   0.596662 0.376029 0.907826 -0.122348
C31   C     C_R   0.908356 0.867173 0.090532 -0.095131
C32   C     C_R   0.099069 0.874969 0.910239 -0.111362
H17   H     H_    0.482174 0.333921 0.174182 0.122522
H18   H     H_    0.569290 0.369337 0.823419 0.110262
H19   H     H_    0.939465 0.855599 0.173418 0.100398
H20   H     H_    0.073558 0.870597 0.826154 0.101480
N29   N     N_R   0.451750 0.396300 0.057540 -0.054786
N30   N     N_R   0.548250 0.396300 0.942460 -0.047428
N31   N     N_R   0.951750 0.896300 0.057540 -0.049518
N32   N     N_R   0.048250 0.896300 0.942460 -0.050920
C33   C     C_R   0.376397 0.319038 0.998539 0.169462
C34   C     C_R   0.683960 0.360844 0.999502 0.151364
C35   C     C_R   0.819806 0.852274 0.998611 0.121458
C36   C     C_R   0.188910 0.861247 0.003691 0.115329
C37   C     C_R   0.384375 0.685568 0.999765 -0.041377
C38   C     C_R   0.617989 0.684198 0.003038 -0.065614
C39   C     C_R   0.880738 0.181711 0.999153 0.001654
C40   C     C_R   0.187968 0.137230 0.003196 -0.009123
C41   C     C_R   0.455192 0.498493 0.279042 0.129913
C42   C     C_R   0.443143 0.499388 0.639352 0.104436
C43   C     C_R   0.980629 0.000472 0.303946 0.140885
C44   C     C_R   0.939126 0.998404 0.639127 0.136813
C45   C     C_R   0.176773 0.497682 0.731123 0.079773
C46   C     C_R   0.811257 0.498171 0.356687 0.095402
C47   C     C_R   0.674987 0.999680 0.679462 0.123452
C48   C     C_R   0.295033 0.997899 0.368245 0.111497
Ni1   Ni    Ni4+2 0.435420 0.434250 0.870220 0.237658
Ni2   Ni    Ni4+2 0.564580 0.434250 0.129780 0.235302
Ni3   Ni    Ni4+2 0.935420 0.934250 0.870220 0.242540
Ni4   Ni    Ni4+2 0.064580 0.934250 0.129780 0.232983
Ni5   Ni    Ni4+2 0.563400 0.564580 0.128670 0.286912
Ni6   Ni    Ni4+2 0.436600 0.564580 0.871330 0.312627
Ni7   Ni    Ni4+2 0.063400 0.064580 0.128670 0.275043
Ni8   Ni    Ni4+2 0.936600 0.064580 0.871330 0.318144
C49   C     C_2   0.924917 0.456791 0.535977 -0.097807
C50   C     C_2   0.022454 0.453293 0.635347 -0.076339
C51   C     C_2   0.421772 0.952340 0.527632 -0.028444
C52   C     C_2   0.524409 0.955415 0.600477 0.011090
C53   C     C_2   0.897813 0.499097 0.467079 -0.140666
C54   C     C_2   0.075468 0.498357 0.681789 -0.151893
C55   C     C_2   0.369701 0.997560 0.484055 -0.214510
C56   C     C_2   0.572749 0.000182 0.609563 -0.175607
H21   H     H_    0.880613 0.420633 0.511849 0.137622
H22   H     H_    0.054420 0.412887 0.656490 0.131718
H23   H     H_    0.393629 0.912272 0.492004 0.159103
H24   H     H_    0.560863 0.917405 0.636138 0.204805
H25   H     H_    0.942288 0.534922 0.488432 0.159662
H26   H     H_    0.042305 0.538323 0.665950 0.150427
H27   H     H_    0.395528 0.037046 0.524336 0.153333
H28   H     H_    0.538356 0.038369 0.568906 0.155969
C57   C     C_R   0.300873 0.773783 0.907737 -0.051968
C58   C     C_R   0.708647 0.769030 0.099898 -0.057250
C59   C     C_R   0.739366 0.231537 0.929307 -0.071826
C60   C     C_R   0.193220 0.230077 0.960829 -0.115861
C61   C     C_R   0.691107 0.275417 0.928258 -0.142234
C62   C     C_R   0.238523 0.274235 0.956678 -0.179082
C63   C     C_R   0.248489 0.816208 0.908091 -0.198581
C64   C     C_R   0.764563 0.808159 0.098508 -0.184502
H29   H     H_    0.614226 0.273155 0.877670 0.160393
H30   H     H_    0.201198 0.313062 0.927966 0.158127
H31   H     H_    0.191208 0.832956 0.830344 0.150240
H32   H     H_    0.824947 0.823233 0.176100 0.154982
C65   C     C_R   0.740788 0.320008 0.996246 -0.083391
C66   C     C_R   0.332741 0.269367 0.994602 -0.087553
C67   C     C_R   0.265521 0.833224 0.006403 -0.035782
C68   C     C_R   0.745580 0.824140 0.998873 -0.048494
C69   C     C_R   0.840629 0.321442 0.065934 0.225267
C70   C     C_R   0.382898 0.219576 0.033268 0.215596
C71   C     C_R   0.351829 0.817547 0.105300 0.221788
C72   C     C_R   0.655691 0.811912 0.901858 0.247431
C73   C     C_R   0.402294 0.772525 0.104225 0.223967
C74   C     C_R   0.600809 0.770547 0.903531 0.205535
C75   C     C_R   0.890741 0.276460 0.065538 0.214462
C76   C     C_R   0.335026 0.173370 0.033357 0.265263
C77   C     C_R   0.365669 0.745009 0.004062 -0.030587
C78   C     C_R   0.638059 0.742836 0.002548 -0.027024
C79   C     C_R   0.838003 0.231845 0.996829 -0.009200
C80   C     C_R   0.240866 0.180252 0.999381 -0.047789
C81   C     C_R   0.376585 0.539281 0.454361 0.210985
C82   C     C_R   0.378973 0.538688 0.362838 0.224700
C83   C     C_R   0.875680 0.030780 0.453643 0.199066
C84   C     C_R   0.889183 0.032656 0.371239 0.237314
C85   C     C_R   0.427637 0.495698 0.352592 -0.047573
C86   C     C_R   0.423460 0.496985 0.532315 -0.045176
C87   C     C_R   0.961479 0.000116 0.382821 -0.075834
C88   C     C_R   0.935527 0.996328 0.543411 -0.059435
C89   C     C_R   0.463693 0.451510 0.424872 -0.160334
C90   C     C_R   0.461863 0.452266 0.513507 -0.155239
C91   C     C_R   0.018353 0.965864 0.471824 -0.174699
C92   C     C_R   0.004840 0.963577 0.551208 -0.162374
H33   H     H_    0.502020 0.418102 0.420077 0.146525
H34   H     H_    0.498190 0.419414 0.572161 0.145607
H35   H     H_    0.075445 0.941858 0.481763 0.151325
H36   H     H_    0.052470 0.938236 0.622091 0.146767
H37   H     H_    0.286479 0.763170 0.830745 0.227416
H38   H     H_    0.726266 0.757938 0.178213 0.220797
H39   H     H_    0.699209 0.196321 0.879171 0.142848
H40   H     H_    0.120740 0.234851 0.934966 0.180958
N33   N     N_R   0.889421 0.368850 0.131920 0.254568
O1    O     O_R   0.872310 0.416610 0.085953 -0.355413
O2    O     O_R   0.936063 0.366097 0.237558 -0.335669
N34   N     N_R   0.481292 0.216535 0.074566 0.257838
O3    O     O_R   0.511236 0.240737 0.023527 -0.385389
O4    O     O_R   0.542082 0.191080 0.165636 -0.263059
N35   N     N_R   0.392858 0.850527 0.201961 0.240515
O5    O     O_R   0.398502 0.903377 0.196174 -0.340689
O6    O     O_R   0.416117 0.828934 0.293150 -0.322597
N36   N     N_R   0.614937 0.846517 0.808744 0.227567
O7    O     O_R   0.608856 0.898881 0.819828 -0.409102
O8    O     O_R   0.589980 0.826639 0.715401 -0.378181
N37   N     N_R   0.496522 0.761256 0.198509 0.250975
O9    O     O_R   0.567561 0.765281 0.192024 -0.352441
O10   O     O_R   0.511810 0.745986 0.289934 -0.290376
N38   N     N_R   0.504006 0.762323 0.811565 0.252048
O11   O     O_R   0.437313 0.762149 0.825897 -0.376105
O12   O     O_R   0.482624 0.751128 0.715339 -0.287069
N39   N     N_R   0.992653 0.276932 0.128575 0.252896
O13   O     O_R   0.034509 0.262013 0.083917 -0.355659
O14   O     O_R   0.044176 0.288545 0.232375 -0.300206
N40   N     N_R   0.379193 0.120146 0.061207 0.267116
O15   O     O_R   0.426418 0.104433 0.023556 -0.293699
O16   O     O_R   0.369138 0.086151 0.119781 -0.320033
N41   N     N_R   0.322298 0.579812 0.464515 0.249192
O17   O     O_R   0.258885 0.564590 0.479101 -0.337946
O18   O     O_R   0.344352 0.631402 0.473697 -0.281397
N42   N     N_R   0.328995 0.579276 0.278672 0.244806
O19   O     O_R   0.349594 0.630924 0.301544 -0.309870
O20   O     O_R   0.272245 0.564145 0.176852 -0.368101
N43   N     N_R   0.800056 0.060833 0.444559 0.255920
O21   O     O_R   0.748842 0.037870 0.471096 -0.340103
O22   O     O_R   0.784202 0.111788 0.413911 -0.272022
N44   N     N_R   0.826920 0.064030 0.273974 0.260250
O23   O     O_R   0.836164 0.116977 0.276299 -0.331797
O24   O     O_R   0.772878 0.039180 0.180208 -0.332045
H41   H     H_    0.484657 0.662972 0.174294 0.202752
H42   H     H_    0.517421 0.662965 0.826949 0.203530
H43   H     H_    0.979937 0.163673 0.174575 0.157426
H44   H     H_    0.073271 0.129454 0.826912 0.144672
H45   H     H_    0.213338 0.410133 0.744022 0.097661
H46   H     H_    0.770902 0.411003 0.324700 0.105533
H47   H     H_    0.712576 0.912160 0.691433 0.123700
H48   H     H_    0.256375 0.911066 0.328664 0.103955
N45   N     N_R   0.302823 0.669010 0.797266 0.225530
O25   O     O_R   0.335117 0.654422 0.741979 -0.352414
O26   O     O_R   0.213643 0.682558 0.743504 -0.415519
N46   N     N_R   0.703749 0.666598 0.204675 0.208067
O27   O     O_R   0.665625 0.664008 0.257060 -0.391716
O28   O     O_R   0.795507 0.671351 0.259655 -0.412881
N47   N     N_R   0.825696 0.174362 0.805590 0.231071
O29   O     O_R   0.794381 0.224374 0.779302 -0.369670
O30   O     O_R   0.843323 0.147828 0.744596 -0.406157
N48   N     N_R   0.246013 0.154054 0.196893 0.226464
O31   O     O_R   0.206737 0.173096 0.242006 -0.376975
O32   O     O_R   0.333804 0.166570 0.238927 -0.344771

loop_
_geom_bond_atom_site_label_1
_geom_bond_atom_site_label_2
_geom_bond_distance
_ccdc_geom_bond_type
N6    N26   1.385053 A    
N40   O16   1.300896 A    
N39   O14   1.300840 A    
C22   N22   1.334736 A    
N22   Ni2   1.847748 S    
N7    Ni7   1.847912 S    
C23   C47   1.384302 A    
C45   C54   1.455842 S    
C6    N6    1.334811 A    
C15   H11   1.079541 S    
N47   O29   1.300702 A    
C14   N14   1.339972 A    
C3    N3    1.334683 A    
N13   N21   1.387462 A    
C35   C68   1.466506 S    
C38   C78   1.475436 S    
C17   C41   1.392413 A    
C32   N32   1.339030 A    
N46   O28   1.301822 A    
C89   C90   1.359316 A    
N15   N23   1.387462 A    
C26   C38   1.391016 A    
C71   N35   1.436002 S    
C62   H30   1.085266 S    
N33   O1    1.301044 A    
N16   N24   1.387449 A    
C7    N7    1.331421 A    
N10   N18   1.387204 A    
C9    C41   1.381615 A    
C11   C43   1.376305 A    
C89   H33   1.081292 S    
C43   C87   1.414546 S    
C88   C92   1.391883 A    
N38   O12   1.300661 A    
C8    N8    1.328139 A    
N4    Ni4   1.872322 S    
C63   H31   1.080595 S    
C12   C44   1.363609 A    
N44   O24   1.300875 A    
C57   H37   1.068036 S    
N37   O10   1.300882 A    
C81   N41   1.435327 S    
C23   H47   1.077605 S    
C59   H39   1.085201 S    
C82   N42   1.436310 S    
N4    N32   1.385054 A    
C51   H23   1.084095 S    
C81   C86   1.413004 A    
N41   O18   1.300492 A    
N36   O7    1.300829 A    
C6    C38   1.393869 A    
C8    H44   1.080092 S    
C26   N46   1.424727 S    
C34   C65   1.423595 S    
C59   C79   1.389137 A    
C90   H34   1.083388 S    
N7    N27   1.385053 A    
C60   C80   1.392706 A    
N20   Ni8   1.872868 S    
C51   C52   1.448267 S    
C75   N39   1.437972 S    
N42   O19   1.300450 A    
C22   C46   1.376662 A    
C40   C80   1.421781 S    
C7    H43   1.081254 S    
C87   C91   1.389105 A    
C11   H7    1.076778 S    
C4    N4    1.332177 A    
C15   N15   1.333726 A    
N14   N22   1.387449 A    
C27   N27   1.326169 A    
C20   N20   1.330692 A    
C4    H4    1.074931 S    
N34   O4    1.301296 A    
N40   O15   1.301313 A    
C17   N17   1.336987 A    
C42   C86   1.445164 S    
C74   C78   1.408877 A    
N27   Ni8   1.875318 S    
N35   O6    1.300702 A    
C69   N33   1.434076 S    
C10   C42   1.377488 A    
C50   H22   1.084262 S    
C2    H2    1.079572 S    
C48   C55   1.442765 S    
C67   C71   1.414641 A    
C30   N30   1.320446 A    
C83   N43   1.439811 S    
C29   N29   1.332814 A    
N46   O27   1.299951 A    
C18   H14   1.080126 S    
N29   Ni2   1.840589 S    
N33   O2    1.300805 A    
C1    C33   1.363673 A    
C41   C85   1.448799 S    
C72   N36   1.425520 S    
C55   H27   1.085464 S    
N13   Ni6   1.868693 S    
C6    H42   1.075197 S    
C69   C75   1.402897 A    
C3    C35   1.387638 A    
N39   O13   1.301606 A    
C5    H41   1.073072 S    
C16   H12   1.077647 S    
C1    N1    1.326580 A    
C28   N28   1.330714 A    
C82   C85   1.411242 A    
N23   Ni3   1.847361 S    
C66   C70   1.407872 A    
C47   C56   1.439865 S    
C52   H24   1.073964 S    
N18   Ni6   1.872868 S    
N44   O23   1.300776 A    
C46   C53   1.449603 S    
C19   H15   1.080110 S    
N3    N31   1.385053 A    
N45   O25   1.300226 A    
C9    N9    1.321510 A    
N2    N30   1.385054 A    
C13   H9    1.067934 S    
C32   C36   1.399513 A    
C73   N37   1.432157 S    
N38   O11   1.299888 A    
C11   N11   1.320633 A    
C49   H21   1.084922 S    
N21   Ni1   1.847361 S    
C59   C61   1.354069 A    
C36   C67   1.476128 S    
C58   H38   1.070129 S    
N5    Ni5   1.847913 S    
C72   C74   1.402079 A    
N43   O22   1.300364 A    
C57   C63   1.380277 A    
N41   O17   1.301219 A    
C18   C42   1.380677 A    
N28   Ni7   1.881070 S    
C58   C64   1.374228 A    
C91   H35   1.084300 S    
C64   H32   1.079883 S    
C21   C45   1.379835 A    
C18   N18   1.333490 A    
C60   H40   1.085152 S    
C27   C39   1.374783 A    
C17   H13   1.079542 S    
C65   C69   1.406847 A    
N12   Ni3   1.878776 S    
C53   H25   1.084289 S    
C16   C48   1.371840 A    
C30   C34   1.376149 A    
C27   N47   1.438231 S    
C15   C47   1.376089 A    
C70   C76   1.404403 A    
C29   C33   1.369036 A    
C57   C77   1.400241 A    
C61   H29   1.084299 S    
C22   H46   1.080634 S    
C92   H36   1.085056 S    
C76   N40   1.440729 S    
N34   O3    1.301477 A    
C44   C88   1.412225 S    
C21   H45   1.076681 S    
C8    C40   1.382150 A    
N48   O32   1.300464 A    
C10   H6    1.081900 S    
C1    H1    1.081589 S    
C16   N16   1.339300 A    
C32   H20   1.077549 S    
C62   C66   1.387870 A    
C85   C89   1.397143 A    
C50   C54   1.338786 D    
C52   C56   1.337322 D    
C84   N44   1.433887 S    
N31   Ni4   1.840589 S    
C12   H8    1.082043 S    
C19   N19   1.324962 A    
N16   Ni7   1.868331 S    
C31   C35   1.385988 A    
C71   C73   1.411318 A    
C9    H5    1.078120 S    
N5    N25   1.385053 A    
C29   H17   1.081520 S    
C20   C44   1.371324 A    
C5    C37   1.394044 A    
C83   C88   1.406438 A    
C14   H10   1.073426 S    
C23   N23   1.329875 A    
C84   C87   1.407886 A    
N24   Ni4   1.847748 S    
C76   C80   1.409757 A    
C24   C48   1.371374 A    
N26   Ni5   1.881072 S    
C60   C62   1.360297 A    
C70   N34   1.439036 S    
N25   Ni6   1.875318 S    
N47   O30   1.300562 A    
C21   N21   1.336018 A    
C4    C36   1.390072 A    
C49   C53   1.342801 D    
C64   C68   1.396539 A    
C25   C37   1.403307 A    
C3    H3    1.071554 S    
C5    N5    1.338800 A    
C24   N24   1.326158 A    
C13   N13   1.342961 A    
N11   Ni4   1.873083 S    
C14   C46   1.376868 A    
C68   C72   1.410911 A    
C24   H48   1.080529 S    
C51   C55   1.331640 D    
C10   N10   1.324125 A    
C49   C50   1.466169 S    
C39   C79   1.420482 S    
C58   C78   1.398834 A    
C74   N38   1.434899 S    
C31   N31   1.331462 A    
N37   O9    1.300311 A    
C26   N26   1.329701 A    
C25   N45   1.432068 S    
N9    N17   1.387217 A    
N6    Ni6   1.848399 S    
C25   N25   1.343319 A    
C75   C79   1.408507 A    
N2    Ni2   1.872322 S    
C37   C77   1.496012 S    
C28   C40   1.387943 A    
N30   Ni1   1.840091 S    
N10   Ni1   1.878776 S    
N9    Ni2   1.873083 S    
C2    C34   1.382205 A    
C13   C45   1.381220 A    
N15   Ni8   1.868693 S    
N45   O26   1.302314 A    
N14   Ni5   1.868331 S    
N36   O8    1.300750 A    
C91   C92   1.353408 A    
C63   C67   1.395961 A    
C86   C90   1.391795 A    
C28   N48   1.431762 S    
C7    C39   1.371020 A    
N35   O5    1.301412 A    
C54   H26   1.085899 S    
N17   Ni5   1.878576 S    
C20   H16   1.081392 S    
C61   C65   1.393224 A    
N1    Ni1   1.878128 S    
N48   O31   1.301052 A    
C30   H18   1.080328 S    
N19   Ni7   1.878576 S    
C83   C84   1.398076 A    
N32   Ni3   1.840091 S    
C19   C43   1.373536 A    
N8    N28   1.385053 A    
N3    Ni3   1.878128 S    
N43   O21   1.301543 A    
N11   N19   1.387217 A    
C81   C82   1.408821 A    
C56   H28   1.083855 S    
C31   H19   1.071686 S    
C33   C66   1.414880 S    
N12   N20   1.387204 A    
N42   O20   1.301206 A    
C73   C77   1.418301 A    
N1    N29   1.385053 A    
N8    Ni8   1.848399 S    
C12   N12   1.318592 A    
C2    N2    1.333234 A    
