data_mof_unit_67805.cif
_audit_creation_date              2012-12-10T16:53:56-0500
_audit_creation_method            fapswitch 2.2
_symmetry_space_group_name_H-M    P1
_symmetry_Int_Tables_number       1
_space_group_crystal_system       triclinic
_cell_length_a                    7.822452
_cell_length_b                    8.563932
_cell_length_c                    10.76637
_cell_angle_alpha                 91.441443
_cell_angle_beta                  85.521897
_cell_angle_gamma                 93.572501
_cell_volume                      717.501010872

loop_
_atom_site_label
_atom_site_type_symbol
_atom_type_description
_atom_site_fract_x
_atom_site_fract_y
_atom_site_fract_z
_atom_type_partial_charge
C1    C     C_R   0.544359 0.793999 0.486132 0.953656
C2    C     C_3   0.495013 0.514688 0.121899 -0.452765
C3    C     C_3   0.450483 0.343986 0.072027 1.025077
C4    C     C_3   0.681066 0.567666 0.064245 0.974417
C5    C     C_2   0.565063 0.953874 0.450041 -0.246115
C6    C     C_2   0.426668 0.044015 0.461829 -0.158965
C7    C     C_R   0.503023 0.509656 0.741547 1.046130
C8    C     C_R   0.454281 0.206438 0.489439 0.917784
C9    C     C_R   0.498926 0.507274 0.258365 1.074052
C10   C     C_3   0.341502 0.606186 0.938171 0.303213
C11   C     C_3   0.360103 0.635500 0.081606 -0.490914
C12   C     C_3   0.485539 0.336002 0.925158 -0.342830
C13   C     C_3   0.676703 0.598557 0.922868 0.261365
C14   C     C_3   0.502911 0.514550 0.878452 -0.391573
N1    N     N_2   0.950330 0.457950 0.465890 0.153801
N2    N     N_2   0.049670 0.542050 0.534110 -0.087073
O1    O     O_R   0.389250 0.738570 0.508370 -0.554806
O2    O     O_R   0.678390 0.711620 0.486510 -0.714269
O3    O     O_R   0.355430 0.513500 0.696140 -0.538792
O4    O     O_R   0.644580 0.486550 0.674270 -0.663153
O5    O     O_R   0.321610 0.288380 0.513490 -0.584503
O6    O     O_R   0.610750 0.261430 0.491630 -0.613436
O7    O     O_R   0.355420 0.513450 0.325730 -0.622148
O8    O     O_R   0.644570 0.486500 0.303860 -0.504637
Zn1   Zn    Zn3+2 0.306940 0.517990 0.514600 1.151985
Zn2   Zn    Zn3+2 0.693060 0.482010 0.485400 1.112512
F1    F     F_    0.194864 0.509471 0.923874 -0.600340
F2    F     F_    0.793294 0.451464 0.079570 -0.505077
C15   C     C_2   0.648517 0.250759 0.880673 0.686390
H1    H     H_    0.685361 0.241746 0.781675 0.096042
O9    O     O_2   0.737558 0.188004 0.950553 -0.424955
F3    F     F_    0.542939 0.237829 0.130358 -0.562693
C16   C     C_2   0.739692 0.007936 0.395406 0.651174
H2    H     H_    0.853253 0.962126 0.429103 0.053766
O10   O     O_2   0.756867 0.096735 0.307678 -0.366681
C17   C     C_2   0.242117 0.987224 0.458275 0.631283
H3    H     H_    0.145295 0.034412 0.524070 0.084447
O11   O     O_2   0.195736 0.894886 0.377748 -0.510315
F4    F     F_    0.027828 0.348146 0.395971 -0.510624
C18   C     C_2   0.985265 0.663628 0.610948 0.632466
H4    H     H_    0.853467 0.672795 0.633442 0.148516
O12   O     O_2   0.084098 0.759626 0.656932 -0.551250
C19   C     C_2   0.297536 0.755496 0.875529 0.514520
H5    H     H_    0.183146 0.812655 0.911193 0.145398
O13   O     O_2   0.382844 0.812566 0.786621 -0.542509
C20   C     C_2   0.424906 0.803921 0.112886 0.480922
H6    H     H_    0.422428 0.899219 0.049008 0.087536
O14   O     O_2   0.472935 0.837699 0.215316 -0.488837
C21   C     C_2   0.179149 0.617092 0.148058 0.818958
H7    H     H_    0.124215 0.505256 0.180552 0.210770
O15   O     O_2   0.087283 0.727650 0.159430 -0.488043
C22   C     C_2   0.337636 0.238227 0.868198 0.508256
H8    H     H_    0.207587 0.234316 0.911275 0.236497
O16   O     O_2   0.360701 0.163651 0.770695 -0.617866
F5    F     F_    0.280759 0.301394 0.108533 -0.645333
F6    F     F_    0.819610 0.533927 0.862144 -0.587605
C23   C     C_2   0.700031 0.773069 0.895815 0.447912
H9    H     H_    0.710314 0.860783 0.969327 0.154974
O17   O     O_2   0.714710 0.819819 0.789457 -0.561914
F7    F     F_    0.747887 0.697389 0.128082 -0.633798

loop_
_geom_bond_atom_site_label_1
_geom_bond_atom_site_label_2
_ccdc_geom_bond_type
C10   F1    S    
C2    C4    S    
C19   H5    S    
C9    O8    A    
C15   H1    S    
C11   C21   S    
C12   C15   S    
C8    O6    A    
O2    Zn2   S    
C12   C14   S    
C13   F6    S    
O1    Zn1   S    
C4    F7    S    
C21   O15   D    
C18   O12   D    
C2    C3    S    
C1    O2    A    
C15   O9    D    
C13   C14   S    
C19   O13   D    
N1    F4    S    
C23   H9    S    
C5    C6    D    
O4    Zn2   S    
N2    C18   S    
C1    C5    S    
C2    C11   S    
C17   O11   D    
C18   H4    S    
C16   O10   D    
C22   O16   D    
C3    F5    S    
C16   H2    S    
C7    O3    A    
C5    C16   S    
O7    Zn1   S    
C10   C14   S    
C3    F3    S    
O3    Zn1   S    
C20   O14   D    
C23   O17   D    
C13   C23   S    
C10   C11   S    
C4    F2    S    
N1    N2    D    
N2    Zn1   S    
C22   H8    S    
C7    O4    A    
O6    Zn2   S    
C4    C13   S    
C21   H7    S    
O5    Zn1   S    
C20   H6    S    
C17   H3    S    
C11   C20   S    
C6    C8    S    
C3    C12   S    
C12   C22   S    
C10   C19   S    
C2    C9    S    
C1    O1    A    
C7    C14   S    
C9    O7    A    
O8    Zn2   S    
C6    C17   S    
N1    Zn2   S    
C8    O5    A    
