data_mof_unit_11287.cif
_audit_creation_date              2012-12-10T17:07:10-0500
_audit_creation_method            fapswitch 2.2
_symmetry_space_group_name_H-M    P1
_symmetry_Int_Tables_number       1
_space_group_crystal_system       triclinic
_cell_length_a                    17.299788
_cell_length_b                    11.054282
_cell_length_c                    10.15088
_cell_angle_alpha                 111.500518
_cell_angle_beta                  95.967493
_cell_angle_gamma                 94.385309
_cell_volume                      1782.53194074

loop_
_atom_site_label
_atom_site_type_symbol
_atom_type_description
_atom_site_fract_x
_atom_site_fract_y
_atom_site_fract_z
_atom_type_partial_charge
C1    C     C_R   0.493491 0.254384 0.441027 0.876011
C2    C     C_R   0.505566 0.745543 0.559018 0.848780
C3    C     C_2   0.489236 0.113705 0.408619 -0.314770
C4    C     C_2   0.508146 0.886102 0.591582 -0.339419
C5    C     C_2   0.499099 0.069667 0.515209 -0.099373
C6    C     C_2   0.495831 0.929971 0.485268 -0.154471
C7    C     C_2   0.507382 0.510130 0.079734 0.317071
C8    C     C_2   0.493789 0.487611 0.919477 0.320232
C9    C     C_R   0.352274 0.497547 0.515931 0.753630
C10   C     C_R   0.647219 0.491147 0.481439 0.824775
C11   C     C_R   0.268065 0.478679 0.518370 -0.096047
C12   C     C_R   0.728992 0.467502 0.469000 -0.046054
C13   C     C_R   0.219729 0.369342 0.413838 -0.073389
C14   C     C_R   0.768509 0.400185 0.545623 -0.094686
C15   C     C_R   0.138482 0.354480 0.421426 0.002379
C16   C     C_R   0.846877 0.378180 0.528742 -0.053021
C17   C     C_R   0.107255 0.451435 0.531007 0.110500
C18   C     C_R   0.885379 0.427385 0.438500 0.142206
C19   C     C_R   0.156963 0.555581 0.635327 -0.181355
C20   C     C_R   0.844404 0.489088 0.360252 -0.179652
C21   C     C_R   0.236603 0.568918 0.629387 -0.177525
C22   C     C_R   0.767089 0.508789 0.375092 -0.210740
C23   C     C_2   0.022946 0.449482 0.541048 -0.115207
C24   C     C_2   0.969082 0.420811 0.425817 -0.124245
Cu1   Cu    Cu3+1 0.513640 0.521550 0.643210 0.947206
Cu2   Cu    Cu3+1 0.486360 0.478450 0.356790 0.941725
H1    H     H_    0.737320 0.558990 0.314875 0.148531
H2    H     H_    0.273789 0.651529 0.710516 0.158379
H3    H     H_    0.987396 0.404297 0.322020 0.123597
H4    H     H_    0.005303 0.483615 0.647060 0.130374
H5    H     H_    0.133653 0.628745 0.720571 0.147139
H6    H     H_    0.873172 0.525414 0.289771 0.141380
H7    H     H_    0.483386 0.862489 0.374268 0.183361
H8    H     H_    0.510391 0.137098 0.626362 0.190413
H9    H     H_    0.520241 0.953982 0.702471 0.151134
H10   H     H_    0.478237 0.045930 0.297636 0.141217
N1    N     N_2   0.465840 0.446060 0.141630 -0.155772
N2    N     N_2   0.534160 0.553940 0.858370 -0.143908
O1    O     O_R   0.507280 0.332200 0.576490 -0.563478
O2    O     O_R   0.492720 0.667800 0.423510 -0.586343
O3    O     O_R   0.484240 0.295800 0.334620 -0.594834
O4    O     O_R   0.515760 0.704200 0.665380 -0.577748
O5    O     O_R   0.399260 0.520290 0.634950 -0.589809
O6    O     O_R   0.600740 0.479710 0.365050 -0.591236
O7    O     O_R   0.376220 0.483890 0.393080 -0.573876
O8    O     O_R   0.623780 0.516110 0.606920 -0.574721
C25   C     C_2   0.256318 0.265841 0.307537 0.345348
H11   H     H_    0.313002 0.241099 0.338878 0.058073
O9    O     O_2   0.225361 0.210776 0.183602 -0.570410
C26   C     C_2   0.727177 0.343191 0.634535 0.383280
H12   H     H_    0.752260 0.363249 0.743988 0.035755
O10   O     O_2   0.666360 0.269259 0.583964 -0.527828
C27   C     C_2   0.885025 0.295038 0.596623 0.365115
H13   H     H_    0.875821 0.303459 0.703499 0.035647
O11   O     O_2   0.924763 0.212691 0.531491 -0.453993
C28   C     C_2   0.088416 0.232882 0.324269 0.394579
H14   H     H_    0.086969 0.200081 0.209433 0.118085
O12   O     O_2   0.048955 0.167282 0.372612 -0.469151
C29   C     C_3   0.425257 0.388857 0.827840 -0.780126
H15   H     H_    0.369623 0.424459 0.861609 0.205038
H16   H     H_    0.416695 0.367103 0.715358 0.270092
H17   H     H_    0.433334 0.289940 0.824303 0.179903
C30   C     C_3   0.569253 0.620648 0.174617 -0.781349
H18   H     H_    0.627667 0.601493 0.143976 0.185226
H19   H     H_    0.551202 0.715531 0.177931 0.190366
H20   H     H_    0.581845 0.635422 0.285133 0.274873
C31   C     C_3   0.606613 0.641705 0.918202 -0.521832
H21   H     H_    0.625454 0.677910 0.837371 0.231690
H22   H     H_    0.598645 0.733824 0.004442 0.170005
H23   H     H_    0.654829 0.588842 0.941779 0.167760
C32   C     C_3   0.409309 0.329767 0.073132 -0.484556
H24   H     H_    0.386578 0.300695 0.156003 0.241028
H25   H     H_    0.355449 0.349002 0.019842 0.183573
H26   H     H_    0.437583 0.245050 0.008993 0.165444

loop_
_geom_bond_atom_site_label_1
_geom_bond_atom_site_label_2
_ccdc_geom_bond_type
Cu1   O4    S    
C10   O8    A    
C32   H26   S    
C2    C4    S    
C23   C24   D    
C30   H19   S    
Cu2   N1    S    
C9    O7    A    
C7    C8    S    
C14   C16   A    
C12   C22   A    
Cu1   N2    S    
C11   C13   A    
C26   O10   D    
C25   H11   S    
C6    H7    S    
C12   C14   A    
C3    C5    D    
C31   H23   S    
C19   H5    S    
C15   C28   S    
Cu1   O5    S    
N1    C32   S    
C26   H12   S    
C7    N1    D    
C4    H9    S    
Cu2   O6    S    
C32   H24   S    
C25   O9    D    
C14   C26   S    
C27   H13   S    
C5    H8    S    
C9    C11   S    
C7    C30   S    
C17   C23   S    
C10   C12   S    
C3    H10   S    
C2    O4    A    
C18   C24   S    
C16   C18   A    
C19   C21   A    
C21   H2    S    
C28   O12   D    
C18   C20   A    
C22   H1    S    
C27   O11   D    
C13   C15   A    
C5    C6    S    
Cu2   O2    S    
C29   H16   S    
C9    O5    A    
C1    O1    A    
C10   O6    A    
C31   H21   S    
N2    C31   S    
C23   H4    S    
C2    O2    A    
C29   H15   S    
C28   H14   S    
C4    C6    D    
C20   H6    S    
C8    C29   S    
C1    C3    S    
C32   H25   S    
C24   H3    S    
C29   H17   S    
Cu2   O7    S    
C17   C19   A    
Cu1   Cu2   S    
C15   C17   A    
C13   C25   S    
Cu1   O8    S    
C11   C21   A    
C16   C27   S    
Cu1   O1    S    
C30   H20   S    
C1    O3    A    
Cu2   O3    S    
C20   C22   A    
C30   H18   S    
C31   H22   S    
C8    N2    D    
