data_mof_unit_41685.cif
_audit_creation_date              2012-12-10T18:00:49-0500
_audit_creation_method            fapswitch 2.2
_symmetry_space_group_name_H-M    P1
_symmetry_Int_Tables_number       1
_space_group_crystal_system       triclinic
_cell_length_a                    15.866887
_cell_length_b                    10.784159
_cell_length_c                    9.528072
_cell_angle_alpha                 90.009806
_cell_angle_beta                  89.923494
_cell_angle_gamma                 90.102994
_cell_volume                      1630.35412445

loop_
_atom_site_label
_atom_site_type_symbol
_atom_type_description
_atom_site_fract_x
_atom_site_fract_y
_atom_site_fract_z
_atom_type_partial_charge
C1    C     C_R   0.497538 0.262398 0.499951 0.769592
C2    C     C_R   0.502462 0.737601 0.500049 0.769592
C3    C     C_R   0.445750 0.932247 0.413820 -0.136628
C4    C     C_R   0.554250 0.067752 0.586180 -0.136629
C5    C     C_R   0.503910 0.871526 0.499800 -0.150733
C6    C     C_R   0.496089 0.128473 0.500200 -0.150732
C7    C     C_R   0.445844 0.425642 0.074441 -0.003232
C8    C     C_R   0.554156 0.574357 0.925558 -0.003232
C9    C     C_R   0.445869 0.425669 0.925693 -0.001435
C10   C     C_R   0.554131 0.574331 0.074306 -0.001435
C11   C     C_R   0.339795 0.499919 0.500050 0.816755
C12   C     C_R   0.660205 0.500081 0.499950 0.816756
C13   C     C_3   0.971526 0.419139 0.597380 -0.193981
C14   C     C_3   0.028473 0.580861 0.402620 -0.193981
C15   C     C_3   0.027418 0.386845 0.469716 0.204716
C16   C     C_3   0.972582 0.613155 0.530284 0.204717
C17   C     C_1   0.250108 0.499982 0.500207 -0.173900
C18   C     C_1   0.749892 0.500018 0.499793 -0.173901
C19   C     C_3   0.028093 0.533682 0.628191 -0.195670
C20   C     C_3   0.971907 0.466318 0.371808 -0.195670
C21   C     C_3   0.082897 0.500089 0.500173 0.106695
C22   C     C_3   0.917103 0.499911 0.499827 0.106695
C23   C     C_1   0.174574 0.500091 0.500256 -0.061487
C24   C     C_1   0.825426 0.499909 0.499743 -0.061488
C25   C     C_R   0.440273 0.061120 0.413788 0.006116
C26   C     C_R   0.559727 0.938880 0.586213 0.006117
Cu1   Cu    Cu3+1 0.500000 0.500020 0.640660 0.955521
Cu2   Cu    Cu3+1 0.500000 0.499980 0.359340 0.955520
H1    H     H_    0.947146 0.352401 0.676363 0.145791
H2    H     H_    0.052854 0.647599 0.323637 0.145791
H3    H     H_    0.947838 0.438010 0.267232 0.143682
H4    H     H_    0.052162 0.561990 0.732768 0.143683
H5    H     H_    0.402659 0.878085 0.350105 0.185551
H6    H     H_    0.597340 0.121914 0.649895 0.185550
H7    H     H_    0.402489 0.365960 0.130434 0.126725
H8    H     H_    0.597511 0.634039 0.869566 0.126726
H9    H     H_    0.402553 0.365968 0.869768 0.129031
H10   H     H_    0.597447 0.634031 0.130232 0.129031
N1    N     N_R   0.500020 0.500030 0.852070 -0.165563
N2    N     N_R   0.499980 0.499970 0.147930 -0.165564
O1    O     O_R   0.500000 0.319660 0.618740 -0.574753
O2    O     O_R   0.500000 0.680340 0.381260 -0.574753
O3    O     O_R   0.499990 0.319630 0.381170 -0.583285
O4    O     O_R   0.500010 0.680370 0.618830 -0.583284
O5    O     O_R   0.379080 0.500000 0.618760 -0.573966
O6    O     O_R   0.620920 0.500000 0.381240 -0.573966
O7    O     O_R   0.379080 0.499970 0.381190 -0.582831
O8    O     O_R   0.620920 0.500030 0.618810 -0.582831
C27   C     C_3   0.061351 0.257895 0.435218 -0.406741
C28   C     C_3   0.989997 0.165606 0.410176 -0.816800
H11   H     H_    0.950311 0.156623 0.505753 0.250775
H12   H     H_    0.950136 0.196303 0.321029 0.253712
H13   H     H_    0.016844 0.073335 0.384529 0.248547
H14   H     H_    0.101340 0.263675 0.339653 0.212378
H15   H     H_    0.100920 0.225053 0.523775 0.206212
C29   C     C_3   0.938649 0.742104 0.564782 -0.406743
C30   C     C_3   0.010002 0.834394 0.589824 -0.816800
H16   H     H_    0.049864 0.803697 0.678971 0.253712
H17   H     H_    0.049689 0.843376 0.494247 0.250775
H18   H     H_    0.983156 0.926664 0.615471 0.248547
H19   H     H_    0.899079 0.774946 0.476225 0.206212
H20   H     H_    0.898660 0.736324 0.660347 0.212377
C31   C     C_2   0.373522 0.122751 0.329450 0.343920
H21   H     H_    0.358847 0.219910 0.345035 0.067074
O9    O     O_2   0.333072 0.065029 0.242110 -0.551788
C32   C     C_2   0.626477 0.877249 0.670551 0.343923
H22   H     H_    0.641153 0.780091 0.654964 0.067073
O10   O     O_2   0.666924 0.934970 0.757895 -0.551789

loop_
_geom_bond_atom_site_label_1
_geom_bond_atom_site_label_2
_ccdc_geom_bond_type
Cu1   O8    S    
C32   O10   D    
C7    N2    A    
C16   C29   S    
Cu2   O7    S    
C8    N1    A    
C2    O2    A    
C4    H6    S    
C27   H14   S    
Cu1   O1    S    
Cu2   O3    S    
C28   H12   S    
C13   C15   S    
C10   H10   S    
C12   O8    A    
C7    C9    A    
Cu1   O5    S    
C31   O9    D    
C28   H11   S    
C10   N2    A    
C6    C25   A    
Cu2   O6    S    
C30   H16   S    
C17   C23   T    
C7    H7    S    
C14   H2    S    
C16   C19   S    
C18   C24   T    
C19   H4    S    
C14   C21   S    
C1    O1    A    
C19   C21   S    
C20   C22   S    
C13   C22   S    
C32   H22   S    
C22   C24   S    
C15   C27   S    
C21   C23   S    
C8    H8    S    
C15   C20   S    
C20   H3    S    
C29   H20   S    
C4    C26   A    
C30   H17   S    
C2    C5    S    
C11   O5    A    
C3    H5    S    
Cu2   N2    S    
C12   C18   S    
C5    C26   A    
C28   H13   S    
C14   C20   S    
C15   C21   S    
C3    C25   A    
C29   C30   S    
C9    N1    A    
C12   O6    A    
C4    C6    A    
C25   C31   S    
Cu2   O2    S    
Cu1   Cu2   S    
C27   C28   S    
C13   C19   S    
C29   H19   S    
C11   C17   S    
C30   H18   S    
C16   C22   S    
C1    C6    S    
C14   C16   S    
C27   H15   S    
C11   O7    A    
Cu1   O4    S    
C1    O3    A    
C8    C10   A    
C2    O4    A    
C31   H21   S    
C13   H1    S    
Cu1   N1    S    
C3    C5    A    
C9    H9    S    
C26   C32   S    
