data_mof_unit_42923.cif
_audit_creation_date              2012-12-10T17:08:48-0500
_audit_creation_method            fapswitch 2.2
_symmetry_space_group_name_H-M    P1
_symmetry_Int_Tables_number       1
_space_group_crystal_system       triclinic
_cell_length_a                    27.826393
_cell_length_b                    11.028087
_cell_length_c                    9.819059
_cell_angle_alpha                 111.04841
_cell_angle_beta                  98.189052
_cell_angle_gamma                 91.070151
_cell_volume                      2775.50531555

loop_
_atom_site_label
_atom_site_type_symbol
_atom_type_description
_atom_site_fract_x
_atom_site_fract_y
_atom_site_fract_z
_atom_type_partial_charge
C1    C     C_R   0.496483 0.254108 0.440673 0.871561
C2    C     C_R   0.503517 0.745892 0.559327 0.871567
C3    C     C_R   0.101648 0.492551 0.492653 -0.062956
C4    C     C_R   0.898344 0.507068 0.507325 -0.062967
C5    C     C_R   0.126580 0.383620 0.499947 -0.046507
C6    C     C_R   0.873455 0.616185 0.500446 -0.046492
C7    C     C_R   0.099161 0.272339 0.495483 -0.001285
C8    C     C_R   0.900918 0.727578 0.505386 -0.001246
C9    C     C_R   0.127867 0.599025 0.482843 -0.013740
C10   C     C_R   0.872082 0.400468 0.516710 -0.013735
C11   C     C_R   0.354653 0.499227 0.502866 -0.042709
C12   C     C_R   0.645346 0.500733 0.497125 -0.042702
C13   C     C_R   0.973670 0.393605 0.512779 0.056794
C14   C     C_R   0.026303 0.605874 0.487017 0.056802
C15   C     C_R   0.975627 0.610884 0.494808 0.044396
C16   C     C_R   0.024380 0.388732 0.505355 0.044383
C17   C     C_R   0.949392 0.503927 0.504929 0.067122
C18   C     C_R   0.050599 0.495640 0.495052 0.067112
C19   C     C_R   0.946255 0.292238 0.530185 -0.201686
C20   C     C_R   0.053656 0.707017 0.469006 -0.201897
C21   C     C_R   0.896543 0.295219 0.530428 -0.137981
C22   C     C_R   0.103362 0.704062 0.468666 -0.138009
C23   C     C_R   0.407499 0.499874 0.501166 0.803688
C24   C     C_R   0.592500 0.500120 0.498833 0.803689
C25   C     C_R   0.049435 0.277610 0.501771 -0.269925
C26   C     C_R   0.950636 0.722229 0.499005 -0.270142
C27   C     C_2   0.494567 0.114797 0.407189 -0.342840
C28   C     C_2   0.505433 0.885203 0.592810 -0.342841
C29   C     C_2   0.500900 0.069560 0.516646 -0.143775
C30   C     C_2   0.499100 0.930440 0.483354 -0.143777
C31   C     C_2   0.504184 0.510548 0.081302 -0.073444
C32   C     C_2   0.495816 0.489452 0.918698 -0.073449
C33   C     C_R   0.178044 0.391982 0.513592 0.565211
C34   C     C_R   0.821991 0.607909 0.486766 0.565258
C35   C     C_R   0.178281 0.597896 0.485696 0.537379
C36   C     C_R   0.821669 0.401667 0.513858 0.537429
C37   C     C_R   0.285859 0.515558 0.633972 -0.094939
C38   C     C_R   0.714142 0.484406 0.366026 -0.094966
C39   C     C_R   0.336041 0.516722 0.633947 -0.213918
C40   C     C_R   0.663960 0.483297 0.366061 -0.213887
C41   C     C_R   0.322212 0.480505 0.372176 -0.203571
C42   C     C_R   0.677784 0.519342 0.627789 -0.203538
C43   C     C_R   0.272200 0.479369 0.372535 -0.093456
C44   C     C_R   0.727795 0.520413 0.627416 -0.093494
C45   C     C_R   0.253835 0.496909 0.503198 0.350656
C46   C     C_R   0.746161 0.502930 0.496769 0.350754
Cu1   Cu    Cu3+1 0.508480 0.521810 0.644910 0.950332
Cu2   Cu    Cu3+1 0.491520 0.478190 0.355090 0.950332
H1    H     H_    0.335397 0.466666 0.269428 0.164276
H2    H     H_    0.664598 0.533134 0.730524 0.164269
H3    H     H_    0.512023 0.951262 0.707713 0.152918
H4    H     H_    0.487977 0.048738 0.292287 0.152916
H5    H     H_    0.467480 0.417045 0.845707 0.160270
H6    H     H_    0.532520 0.582955 0.154292 0.160262
H7    H     H_    0.547905 0.622656 0.934473 0.195086
H8    H     H_    0.452095 0.377344 0.065527 0.195085
H9    H     H_    0.247588 0.464669 0.271103 0.145988
H10   H     H_    0.752405 0.535016 0.728823 0.145929
H11   H     H_    0.639834 0.468863 0.263838 0.159184
H12   H     H_    0.360170 0.531243 0.736191 0.159199
H13   H     H_    0.728175 0.470546 0.264543 0.144792
H14   H     H_    0.271828 0.529467 0.735469 0.144867
H15   H     H_    0.877297 0.213886 0.541792 0.195012
H16   H     H_    0.122566 0.785236 0.456857 0.195175
H17   H     H_    0.961923 0.208870 0.545897 0.136460
H18   H     H_    0.037915 0.790104 0.452744 0.136642
H19   H     H_    0.030716 0.189109 0.495783 0.122703
H20   H     H_    0.969425 0.810848 0.505572 0.122823
H21   H     H_    0.492524 0.864671 0.368252 0.181111
H22   H     H_    0.507475 0.135328 0.631748 0.181112
N1    N     N_R   0.202243 0.496077 0.502222 -0.475863
N2    N     N_R   0.797750 0.503686 0.497731 -0.475898
N3    N     N_2   0.478780 0.445430 0.137360 -0.284890
N4    N     N_2   0.521220 0.554570 0.862640 -0.284894
O1    O     O_R   0.504520 0.332330 0.577400 -0.578598
O2    O     O_R   0.495480 0.667670 0.422600 -0.578596
O3    O     O_R   0.490210 0.295500 0.332650 -0.571495
O4    O     O_R   0.509790 0.704500 0.667350 -0.571492
O5    O     O_R   0.437420 0.518430 0.622370 -0.582096
O6    O     O_R   0.562580 0.481570 0.377630 -0.582094
O7    O     O_R   0.423110 0.481600 0.377610 -0.576337
O8    O     O_R   0.576890 0.518400 0.622390 -0.576338
O9    O     O_2   0.204049 0.299272 0.541527 -0.492136
O10   O     O_2   0.796027 0.700833 0.459185 -0.492061
O11   O     O_2   0.796490 0.300607 0.524834 -0.521338
O12   O     O_2   0.203418 0.698838 0.474335 -0.521332
C47   C     C_2   0.119029 0.143869 0.472947 0.470749
H23   H     H_    0.107831 0.085617 0.533261 0.032195
O13   O     O_2   0.144798 0.097606 0.378914 -0.482515
C48   C     C_2   0.881108 0.856199 0.528548 0.470966
H24   H     H_    0.892367 0.914802 0.468696 0.031947
O14   O     O_2   0.855318 0.902167 0.622594 -0.482553

loop_
_geom_bond_atom_site_label_1
_geom_bond_atom_site_label_2
_ccdc_geom_bond_type
C47   H23   S    
C45   N1    S    
C8    C26   A    
C14   C18   A    
C25   H19   S    
Cu1   O5    S    
C37   H14   S    
C34   O10   S    
C3    C9    A    
C20   H18   S    
C19   C21   A    
C32   N4    D    
C35   O12   S    
C9    C22   A    
C31   N3    D    
C27   C29   D    
C1    O3    A    
Cu2   O7    S    
C3    C18   A    
Cu1   O8    S    
C24   O8    A    
C12   C42   A    
H7    N4    S    
C24   O6    A    
C7    C47   S    
C31   C32   S    
C44   H10   S    
C5    C33   A    
C19   H17   S    
C46   N2    S    
C38   H13   S    
C35   N1    A    
C40   H11   S    
C41   C43   A    
C42   C44   A    
C41   H1    S    
C44   C46   A    
C10   C21   A    
C21   H15   S    
C13   C19   A    
C1    O1    A    
C14   C20   A    
C4    C6    A    
C5    C7    A    
C33   N1    A    
C15   C26   A    
C6    C8    A    
C6    C34   A    
Cu2   O3    S    
C12   C40   A    
C29   C30   S    
C2    O4    A    
C33   O9    S    
C48   O14   D    
Cu1   Cu2   S    
C11   C39   A    
C43   C45   A    
C42   H2    S    
C4    C17   A    
C20   C22   A    
C47   O13   D    
C8    C48   S    
C37   C45   A    
C34   N2    A    
C32   H5    S    
C30   H21   S    
C2    O2    A    
C27   H4    S    
C1    C27   S    
C29   H22   S    
C16   C25   A    
C15   C17   A    
H8    N3    S    
C23   O7    A    
Cu2   N3    S    
Cu1   N4    S    
C3    C5    A    
C10   C36   A    
C36   O11   S    
C12   C24   S    
C7    C25   A    
C13   C17   A    
C26   H20   S    
Cu2   O6    S    
C28   C30   D    
Cu1   O1    S    
C37   C39   A    
C38   C40   A    
C48   H24   S    
C39   H12   S    
C11   C23   S    
C28   H3    S    
C11   C41   A    
C31   H6    S    
C38   C46   A    
C43   H9    S    
C22   H16   S    
Cu2   O2    S    
C16   C18   A    
C13   C16   A    
C9    C35   A    
C14   C15   A    
C2    C28   S    
Cu1   O4    S    
C23   O5    A    
C4    C10   A    
C36   N2    A    
