data_mof_unit_24932.cif
_audit_creation_date              2012-12-10T16:44:16-0500
_audit_creation_method            fapswitch 2.2
_symmetry_space_group_name_H-M    P1
_symmetry_Int_Tables_number       1
_space_group_crystal_system       triclinic
_cell_length_a                    7.43831
_cell_length_b                    8.686188
_cell_length_c                    13.380454
_cell_angle_alpha                 93.793498
_cell_angle_beta                  77.369633
_cell_angle_gamma                 103.165778
_cell_volume                      821.302537863

loop_
_atom_site_label
_atom_site_type_symbol
_atom_type_description
_atom_site_fract_x
_atom_site_fract_y
_atom_site_fract_z
_atom_type_partial_charge
C1    C     C_R   0.545626 0.800182 0.502492 0.868116
C2    C     C_R   0.425009 0.506672 0.973214 0.014964
C3    C     C_R   0.440381 0.445176 0.871239 -0.038327
C4    C     C_R   0.549535 0.476572 0.033269 0.063266
C5    C     C_R   0.684033 0.384449 0.991253 0.072403
C6    C     C_R   0.685254 0.314289 0.894611 -0.309001
C7    C     C_R   0.557655 0.335652 0.837434 0.484089
C8    C     C_R   0.541779 0.531385 0.135001 -0.223239
C9    C     C_R   0.795636 0.408469 0.150188 -0.206297
C10   C     C_R   0.336864 0.493916 0.806185 -0.095226
C11   C     C_2   0.571764 0.968110 0.502923 -0.362553
C12   C     C_R   0.397915 0.487662 0.694188 0.854506
C13   C     C_2   0.430420 0.031949 0.493356 -0.392984
C14   C     C_R   0.455136 0.199848 0.496210 0.916595
C15   C     C_R   0.601182 0.507517 0.305814 0.782497
C16   C     C_R   0.809202 0.355240 0.048898 -0.146167
C17   C     C_R   0.656408 0.490985 0.194512 -0.051094
C18   C     C_R   0.197522 0.578561 0.846999 -0.215498
C19   C     C_R   0.170858 0.627142 0.948863 -0.136239
C20   C     C_R   0.285292 0.595522 0.010872 -0.156316
Cu1   Cu    Cu3+1 0.321300 0.483160 0.488710 0.948857
Cu2   Cu    Cu3+1 0.678700 0.516840 0.511290 0.972038
H1    H     H_    0.884692 0.375771 0.195613 0.143323
H2    H     H_    0.294186 0.960514 0.484415 0.178193
H3    H     H_    0.010878 0.617593 0.579307 0.220759
H4    H     H_    0.989069 0.382324 0.420749 0.220545
H5    H     H_    0.779371 0.235516 0.865011 0.165810
H6    H     H_    0.912663 0.285611 0.016848 0.140471
H7    H     H_    0.440803 0.598887 0.172614 0.138664
H8    H     H_    0.116236 0.615348 0.798571 0.147973
H9    H     H_    0.259091 0.642104 0.087901 0.127529
H10   H     H_    0.064830 0.694877 0.979232 0.147349
H11   H     H_    0.707858 0.039566 0.512092 0.190392
N1    N     N_2   0.947230 0.542220 0.528320 -0.209566
N2    N     N_2   0.052770 0.457780 0.471680 -0.213818
O1    O     O_R   0.383920 0.714220 0.492660 -0.588029
O2    O     O_R   0.685730 0.742660 0.511730 -0.587847
O3    O     O_R   0.275440 0.478800 0.636790 -0.597838
O4    O     O_R   0.577250 0.507240 0.655860 -0.544054
O5    O     O_R   0.314270 0.257340 0.488270 -0.588667
O6    O     O_R   0.616080 0.285780 0.507340 -0.558436
O7    O     O_R   0.422750 0.492760 0.344140 -0.582237
O8    O     O_R   0.724560 0.521200 0.363210 -0.594579
O9    O     O_3   0.543026 0.241900 0.750715 -0.559556
C21   C     C_3   0.396680 0.107259 0.778591 -0.354621
H12   H     H_    0.257535 0.140240 0.804726 0.152890
H13   H     H_    0.425257 0.038654 0.838611 0.166713
H14   H     H_    0.387817 0.028244 0.710621 0.194244

loop_
_geom_bond_atom_site_label_1
_geom_bond_atom_site_label_2
_ccdc_geom_bond_type
C16   H6    S    
C2    C4    A    
C6    C7    A    
C18   H8    S    
C19   C20   A    
C15   O7    A    
C8    C17   A    
C1    C11   S    
C6    H5    S    
C1    O2    A    
H3    N1    S    
C4    C8    A    
C12   O4    A    
C2    C3    A    
C15   O8    A    
Cu1   O1    S    
C21   H12   S    
C11   C13   D    
Cu1   O5    S    
C10   C12   S    
C10   C18   A    
C14   O6    A    
Cu1   N2    S    
C19   H10   S    
Cu1   Cu2   S    
C9    C16   A    
C18   C19   A    
C3    C7    A    
C21   H13   S    
C12   O3    A    
C5    C6    A    
Cu2   N1    S    
C3    C10   A    
Cu2   O6    S    
C8    H7    S    
C14   O5    A    
Cu1   O7    S    
H4    N2    S    
C11   H11   S    
O9    C21   S    
C13   H2    S    
N1    N2    D    
C21   H14   S    
C9    C17   A    
C15   C17   S    
C2    C20   A    
C9    H1    S    
C5    C16   A    
C7    O9    S    
C13   C14   S    
Cu2   O2    S    
Cu2   O4    S    
Cu1   O3    S    
Cu2   O8    S    
C1    O1    A    
C4    C5    A    
C20   H9    S    
