data_mof_unit_48434.cif
_audit_creation_date              2012-12-10T19:28:31-0500
_audit_creation_method            fapswitch 2.2
_symmetry_space_group_name_H-M    P1
_symmetry_Int_Tables_number       1
_space_group_crystal_system       triclinic
_cell_length_a                    28.013108
_cell_length_b                    10.451371
_cell_length_c                    9.758529
_cell_angle_alpha                 90.459696
_cell_angle_beta                  89.95991
_cell_angle_gamma                 90.226114
_cell_volume                      2856.94223906

loop_
_atom_site_label
_atom_site_type_symbol
_atom_type_description
_atom_site_fract_x
_atom_site_fract_y
_atom_site_fract_z
_atom_type_partial_charge
C1    C     C_R   0.500300 0.257591 0.499395 0.851553
C2    C     C_R   0.499700 0.742409 0.500604 0.851552
C3    C     C_R   0.100405 0.496156 0.519221 -0.060822
C4    C     C_R   0.899595 0.503843 0.480782 -0.060822
C5    C     C_R   0.125023 0.379277 0.522334 -0.119005
C6    C     C_R   0.874977 0.620721 0.477669 -0.119005
C7    C     C_R   0.099641 0.265233 0.535364 -0.217524
C8    C     C_R   0.900359 0.734765 0.464638 -0.217525
C9    C     C_R   0.126439 0.611657 0.522388 -0.012140
C10   C     C_R   0.873561 0.388341 0.477615 -0.012140
C11   C     C_R   0.354383 0.498898 0.499387 -0.173902
C12   C     C_R   0.645617 0.501101 0.500613 -0.173901
C13   C     C_R   0.974079 0.382808 0.493016 0.068307
C14   C     C_R   0.025921 0.617190 0.506987 0.068307
C15   C     C_R   0.975781 0.619860 0.486754 -0.092648
C16   C     C_R   0.024219 0.380138 0.513249 -0.092648
C17   C     C_R   0.950061 0.502298 0.487541 0.024838
C18   C     C_R   0.049939 0.497700 0.512462 0.024837
C19   C     C_R   0.947037 0.270033 0.470550 -0.188598
C20   C     C_R   0.052963 0.729965 0.529453 -0.188596
C21   C     C_R   0.897654 0.272351 0.467683 -0.174676
C22   C     C_R   0.102346 0.727648 0.532320 -0.174675
C23   C     C_R   0.406452 0.500135 0.500015 0.885715
C24   C     C_R   0.593548 0.499865 0.499985 0.885716
C25   C     C_R   0.050045 0.265270 0.540571 0.430683
C26   C     C_R   0.949955 0.734728 0.459431 0.430680
C27   C     C_3   0.537065 0.042982 0.575136 -0.179366
C28   C     C_3   0.462934 0.957018 0.424864 -0.179365
C29   C     C_3   0.541188 0.956736 0.446591 -0.200122
C30   C     C_3   0.458812 0.043264 0.553409 -0.200121
C31   C     C_3   0.499646 0.877458 0.501673 0.045806
C32   C     C_3   0.500354 0.122542 0.498327 0.045807
C33   C     C_3   0.495494 0.960933 0.630327 -0.135728
C34   C     C_3   0.504506 0.039067 0.369673 -0.135728
C35   C     C_3   0.481482 0.397493 0.046211 0.606439
C36   C     C_3   0.518518 0.602507 0.953789 0.606439
C37   C     C_3   0.524428 0.404111 0.950246 -0.233708
C38   C     C_3   0.475572 0.595889 0.049754 -0.233709
C39   C     C_3   0.456641 0.491588 0.951075 -0.262982
C40   C     C_3   0.543358 0.508412 0.048925 -0.262981
C41   C     C_R   0.174891 0.379864 0.517594 0.583246
C42   C     C_R   0.825109 0.620135 0.482408 0.583246
C43   C     C_R   0.176247 0.607954 0.517835 0.546627
C44   C     C_R   0.823753 0.392044 0.482167 0.546627
C45   C     C_R   0.279430 0.551530 0.613609 -0.154068
C46   C     C_R   0.720570 0.448468 0.386392 -0.154069
C47   C     C_R   0.328938 0.555956 0.609630 0.433946
C48   C     C_R   0.671062 0.444043 0.390370 0.433945
C49   C     C_R   0.331465 0.439391 0.386779 -0.267062
C50   C     C_R   0.668535 0.560610 0.613221 -0.267062
C51   C     C_R   0.282358 0.429732 0.375852 -0.075515
C52   C     C_R   0.717642 0.570268 0.624148 -0.075514
C53   C     C_R   0.253338 0.490538 0.497510 -0.039895
C54   C     C_R   0.746662 0.509461 0.502491 -0.039895
H1    H     H_    0.352358 0.396796 0.305007 0.203303
H2    H     H_    0.647642 0.603205 0.694993 0.203303
H3    H     H_    0.567164 0.083140 0.635931 0.135462
H4    H     H_    0.432836 0.916860 0.364069 0.135462
H5    H     H_    0.491314 0.924312 0.735984 0.177184
H6    H     H_    0.508686 0.075688 0.264015 0.177184
H7    H     H_    0.544233 0.322991 0.903362 0.148413
H8    H     H_    0.455767 0.677009 0.096638 0.148413
H9    H     H_    0.420523 0.484762 0.904859 0.188699
H10   H     H_    0.579477 0.515238 0.095141 0.188699
H11   H     H_    0.262082 0.457172 0.431132 0.233969
H12   H     H_    0.737918 0.542827 0.568869 0.233969
H13   H     H_    0.118159 0.175307 0.548603 0.208419
H14   H     H_    0.881841 0.824691 0.451399 0.208419
H15   H     H_    0.739772 0.407650 0.300280 0.179825
H16   H     H_    0.260228 0.592347 0.699722 0.179825
H17   H     H_    0.878464 0.182696 0.455961 0.198114
H18   H     H_    0.121536 0.817302 0.544042 0.198114
H19   H     H_    0.962940 0.178347 0.450756 0.225130
H20   H     H_    0.037059 0.821651 0.549247 0.225128
H21   H     H_    0.574592 0.916281 0.403251 0.136240
H22   H     H_    0.425408 0.083719 0.596749 0.136239
N1    N     N_R   0.199146 0.493093 0.513324 -0.325206
N2    N     N_R   0.800854 0.506906 0.486678 -0.325206
N3    N     N_3   0.499960 0.500030 0.863290 -0.108425
N4    N     N_3   0.500040 0.499970 0.136710 -0.108425
O1    O     O_R   0.500000 0.313960 0.616610 -0.643639
O2    O     O_R   0.500000 0.686040 0.383390 -0.643639
O3    O     O_R   0.500020 0.313950 0.383350 -0.580051
O4    O     O_R   0.499980 0.686050 0.616650 -0.580051
O5    O     O_R   0.428750 0.500030 0.616610 -0.580609
O6    O     O_R   0.571250 0.499970 0.383390 -0.580610
O7    O     O_R   0.428770 0.500020 0.383360 -0.613602
O8    O     O_R   0.571230 0.499980 0.616640 -0.613602
O9    O     O_2   0.199140 0.268597 0.517440 -0.546479
O10   O     O_2   0.800860 0.731402 0.482561 -0.546479
O11   O     O_2   0.798356 0.282172 0.485488 -0.561346
O12   O     O_2   0.201644 0.717827 0.514515 -0.561345
Zn1   Zn    Zn3+2 0.499990 0.500010 0.655740 0.983345
Zn2   Zn    Zn3+2 0.500010 0.499990 0.344260 0.983345
O13   O     O_3   0.463042 0.284797 0.105173 -0.602168
C55   C     C_3   0.438207 0.213230 0.004681 0.063422
H23   H     H_    0.460272 0.197819 0.910877 0.141826
H24   H     H_    0.404569 0.262874 0.976730 0.155242
C56   C     C_3   0.425149 0.082847 0.062227 -0.837526
H25   H     H_    0.407058 0.094122 0.162913 0.269559
H26   H     H_    0.400600 0.032412 0.990697 0.215761
H27   H     H_    0.457736 0.024027 0.074833 0.238297
O14   O     O_3   0.536958 0.715203 0.894827 -0.602168
C57   C     C_3   0.561793 0.786770 0.995318 0.063422
H28   H     H_    0.595431 0.737126 0.023269 0.155242
H29   H     H_    0.539728 0.802180 0.089123 0.141826
C58   C     C_3   0.574851 0.917153 0.937773 -0.837526
H30   H     H_    0.542264 0.975973 0.925168 0.238297
H31   H     H_    0.599400 0.967588 0.009303 0.215761
H32   H     H_    0.592941 0.905878 0.837087 0.269559
O15   O     O_3   0.647211 0.387934 0.281280 -0.609341
C59   C     C_3   0.638944 0.257811 0.311377 0.129930
H33   H     H_    0.619836 0.246282 0.410859 0.116774
H34   H     H_    0.673306 0.204691 0.314928 0.158988
C60   C     C_3   0.607913 0.199087 0.199477 -0.819232
H35   H     H_    0.626081 0.206660 0.098666 0.253720
H36   H     H_    0.601282 0.096664 0.222093 0.195242
H37   H     H_    0.573163 0.249587 0.194622 0.279370
O16   O     O_3   0.352789 0.612064 0.718721 -0.609342
C61   C     C_3   0.361055 0.742188 0.688625 0.129930
H38   H     H_    0.326694 0.795307 0.685077 0.158989
H39   H     H_    0.380163 0.753718 0.589142 0.116775
C62   C     C_3   0.392087 0.800911 0.800525 -0.819236
H40   H     H_    0.426837 0.750412 0.805378 0.279371
H41   H     H_    0.398718 0.903335 0.777909 0.195243
H42   H     H_    0.373920 0.793338 0.901336 0.253720
O17   O     O_3   0.028291 0.152248 0.579095 -0.624005
C63   C     C_3   0.017767 0.159160 0.720535 0.091482
H43   H     H_    0.993258 0.240186 0.743858 0.150268
H44   H     H_    0.051077 0.170660 0.781875 0.145400
C64   C     C_3   0.993203 0.035892 0.763865 -0.780632
H45   H     H_    0.017726 0.953717 0.749523 0.246540
H46   H     H_    0.983052 0.042315 0.873724 0.199069
H47   H     H_    0.960513 0.019770 0.701576 0.273869
O18   O     O_3   0.971709 0.847750 0.420907 -0.624006
C65   C     C_3   0.982232 0.840838 0.279466 0.091496
H48   H     H_    0.948922 0.829338 0.218128 0.145396
H49   H     H_    0.006741 0.759810 0.256144 0.150264
C66   C     C_3   0.006796 0.964107 0.236134 -0.780623
H50   H     H_    0.039486 0.980232 0.298423 0.273867
H51   H     H_    0.016947 0.957683 0.126276 0.199068
H52   H     H_    0.982272 0.046283 0.250472 0.246535

loop_
_geom_bond_atom_site_label_1
_geom_bond_atom_site_label_2
_ccdc_geom_bond_type
C41   O9    S    
O7    Zn2   S    
O2    Zn2   S    
C27   C29   S    
C8    C26   A    
C14   C18   A    
C11   C47   A    
O13   C55   S    
C12   C48   A    
C64   H47   S    
C63   H43   S    
C57   H29   S    
C62   H40   S    
C64   H46   S    
C27   C33   S    
C37   N3    S    
C21   H17   S    
C36   O14   S    
C11   C49   A    
C35   C37   S    
N3    Zn1   S    
C37   C40   S    
C41   N1    A    
C38   C39   S    
C66   H52   S    
C9    C22   A    
C62   H41   S    
C1    O1    A    
C60   H35   S    
C55   C56   S    
C35   N4    S    
C30   H22   S    
C3    C18   A    
C24   O6    A    
C51   H11   S    
C11   C23   S    
C57   H28   S    
C46   H15   S    
C26   O18   S    
O6    Zn2   S    
O5    Zn1   S    
O15   C59   S    
C61   H39   S    
C49   C51   A    
C55   H24   S    
C50   C52   A    
C58   H30   S    
C40   N4    S    
O18   C65   S    
C61   C62   S    
C47   O16   S    
C45   H16   S    
C28   C34   S    
C33   H5    S    
C23   O7    A    
C34   H6    S    
C58   H31   S    
C65   C66   S    
C22   H18   S    
C59   H33   S    
C52   C54   A    
C45   C47   A    
C10   C21   A    
C46   C48   A    
C9    C43   A    
C13   C19   A    
C10   C44   A    
C14   C20   A    
C19   H19   S    
C65   H49   S    
C27   H3    S    
C5    C7    A    
C15   C26   A    
C6    C8    A    
C60   H36   S    
C49   H1    S    
O3    Zn2   S    
C7    H13   S    
C29   C34   S    
C1    C32   S    
C50   H2    S    
C38   H8    S    
C2    C31   S    
C51   C53   A    
C39   N3    S    
C53   N1    S    
C3    C9    A    
C35   C39   S    
O1    Zn1   S    
C12   C50   A    
C56   H25   S    
C36   C40   S    
C66   H50   S    
C60   H37   S    
C55   H23   S    
C46   C54   A    
C31   C33   S    
C2    O4    A    
C20   H20   S    
C24   O8    A    
C44   O11   S    
C4    C17   A    
C4    C6    A    
C56   H26   S    
C20   C22   A    
C42   N2    A    
C28   H4    S    
C23   O5    A    
C58   H32   S    
C2    O2    A    
C1    O3    A    
N4    Zn2   S    
O17   C63   S    
C63   C64   S    
C3    C5    A    
C52   H12   S    
C61   H38   S    
C16   C25   A    
C15   C17   A    
C5    C41   A    
O8    Zn1   S    
C30   C33   S    
C19   C21   A    
C27   C32   S    
C28   C31   S    
C65   H48   S    
C62   H42   S    
C36   N3    S    
C63   H44   S    
C37   H7    S    
O16   C61   S    
C8    H14   S    
C29   H21   S    
C35   O13   S    
C43   N1    A    
C39   H9    S    
C48   O15   S    
C12   C24   S    
C43   O12   S    
C7    C25   A    
C13   C17   A    
C44   N2    A    
C25   O17   S    
C29   C31   S    
C36   C38   S    
C30   C32   S    
C66   H51   S    
C38   N4    S    
C40   H10   S    
C28   C30   S    
O4    Zn1   S    
C57   C58   S    
C45   C53   A    
C59   H34   S    
C56   H27   S    
C16   C18   A    
C6    C42   A    
C13   C16   A    
O14   C57   S    
C14   C15   A    
C42   O10   S    
C4    C10   A    
C59   C60   S    
C64   H45   S    
C32   C34   S    
C54   N2    S    
