data_mof_unit_47422.cif
_audit_creation_date              2012-12-11T14:40:10-0500
_audit_creation_method            fapswitch 2.2
_symmetry_space_group_name_H-M    P1
_symmetry_Int_Tables_number       1
_space_group_crystal_system       triclinic
_cell_length_a                    19.651061
_cell_length_b                    10.933713
_cell_length_c                    19.49114
_cell_angle_alpha                 89.960051
_cell_angle_beta                  97.555138
_cell_angle_gamma                 90.451122
_cell_volume                      4151.36353733

loop_
_atom_site_label
_atom_site_type_symbol
_atom_type_description
_atom_site_fract_x
_atom_site_fract_y
_atom_site_fract_z
_atom_type_partial_charge
C1    C     C_R   0.723711 0.957494 0.362337 0.563485
C2    C     C_R   0.275159 0.954900 0.638603 0.548718
C3    C     C_R   0.226234 0.449548 0.360130 0.544060
C4    C     C_R   0.774256 0.451447 0.639361 0.544580
C5    C     C_3   0.721488 0.305349 0.483347 -0.155429
C6    C     C_3   0.272727 0.301834 0.517971 -0.157431
C7    C     C_3   0.196322 0.848610 0.481289 -0.143085
C8    C     C_3   0.802471 0.861484 0.519959 -0.144553
C9    C     C_3   0.747105 0.397746 0.433078 0.025440
C10   C     C_3   0.252594 0.401145 0.567271 0.020380
C11   C     C_3   0.247911 0.894886 0.433796 0.038204
C12   C     C_3   0.749636 0.900029 0.567318 0.037413
C13   C     C_3   0.715362 0.503172 0.468440 -0.109091
C14   C     C_3   0.290279 0.498103 0.529968 -0.117628
C15   C     C_3   0.249897 0.021138 0.465881 -0.157667
C16   C     C_3   0.743649 0.026519 0.535446 -0.158096
C17   C     C_3   0.784957 0.518752 0.515708 -0.123824
C18   C     C_3   0.221780 0.520747 0.482388 -0.118768
C19   C     C_3   0.310646 0.978431 0.518721 -0.123192
C20   C     C_3   0.684465 0.977637 0.481956 -0.121375
C21   C     C_3   0.815179 0.411525 0.479550 0.056261
C22   C     C_3   0.185547 0.422162 0.520425 0.059419
C23   C     C_3   0.308317 0.852063 0.485927 0.080010
C24   C     C_3   0.690580 0.850939 0.514766 0.080884
C25   C     C_3   0.790907 0.319321 0.530454 -0.132387
C26   C     C_3   0.204188 0.323168 0.470745 -0.122225
C27   C     C_3   0.257593 0.804962 0.533891 -0.145676
C28   C     C_3   0.743068 0.811183 0.467248 -0.145965
C29   C     C_3   0.759613 0.425366 0.566323 0.033373
C30   C     C_3   0.241380 0.420942 0.433069 0.038152
C31   C     C_3   0.259627 0.931220 0.565997 0.032476
C32   C     C_3   0.737419 0.937461 0.435276 0.028800
C33   C     C_3   0.530159 0.271360 0.977464 0.051034
C34   C     C_3   0.471770 0.270751 0.022277 0.048181
C35   C     C_3   0.004103 0.771906 0.979453 0.056927
C36   C     C_3   0.953383 0.773079 0.032764 0.046760
C37   C     C_3   0.567821 0.171169 0.022734 -0.149502
C38   C     C_3   0.433784 0.170028 0.976957 -0.150324
C39   C     C_3   0.044944 0.668506 0.018468 -0.138420
C40   C     C_3   0.907869 0.675732 0.991008 -0.185867
C41   C     C_3   0.508394 0.170958 0.067518 0.020963
C42   C     C_3   0.493128 0.171231 0.932052 0.021538
C43   C     C_3   0.993992 0.670339 0.072241 0.013851
C44   C     C_3   0.959268 0.675128 0.937784 0.007430
C45   C     C_R   0.534401 0.179799 0.337317 0.541201
C46   C     C_R   0.437458 0.183482 0.651741 0.540386
C47   C     C_R   0.034741 0.680110 0.337551 0.541618
C48   C     C_R   0.937294 0.683283 0.651763 0.542308
C49   C     C_3   0.471369 0.069152 0.022850 -0.135380
C50   C     C_3   0.529909 0.069831 0.976592 -0.135680
C51   C     C_3   0.949348 0.571924 0.031607 -0.137093
C52   C     C_3   0.999779 0.570948 0.976734 -0.107060
C53   C     C_1   0.763564 0.426457 0.904594 0.010992
C54   C     C_1   0.241571 0.410114 0.099888 0.009924
C55   C     C_1   0.263567 0.926653 0.904619 0.014126
C56   C     C_1   0.723570 0.958823 0.088185 0.007949
C57   C     C_1   0.748556 0.408721 0.035033 -0.003888
C58   C     C_1   0.264542 0.361184 0.973854 0.001043
C59   C     C_1   0.248222 0.909010 0.034982 -0.019110
C60   C     C_1   0.752369 0.899073 0.966273 0.005663
C61   C     C_1   0.755345 0.416421 0.964315 -0.017138
C62   C     C_1   0.253771 0.384813 0.042669 -0.006228
C63   C     C_1   0.255190 0.916737 0.964308 -0.016140
C64   C     C_1   0.737236 0.931927 0.032008 -0.005259
C65   C     C_1   0.743202 0.395075 0.095231 0.027981
C66   C     C_1   0.271584 0.341107 0.914469 0.019381
C67   C     C_1   0.243009 0.895208 0.095200 0.010815
C68   C     C_1   0.764039 0.866860 0.910251 0.020512
C69   C     C_R   0.739878 0.364523 0.361131 0.571102
C70   C     C_R   0.259904 0.366268 0.639230 0.584291
C71   C     C_R   0.239328 0.861405 0.362080 0.551023
C72   C     C_R   0.760010 0.863751 0.638665 0.559883
C73   C     C_R   0.706660 0.992515 0.154371 0.544502
C74   C     C_R   0.278334 0.953285 0.836478 0.545579
C75   C     C_R   0.222325 0.451078 0.164339 0.542968
C76   C     C_R   0.778319 0.453231 0.836461 0.536716
C77   C     C_R   0.529426 0.178448 0.141225 0.570129
C78   C     C_R   0.471037 0.178854 0.858493 0.580819
C79   C     C_R   0.026783 0.678302 0.143212 0.575916
C80   C     C_R   0.937720 0.682384 0.863388 0.550703
C81   C     C_R   0.735923 0.360009 0.164365 0.542493
C82   C     C_R   0.277456 0.311573 0.843916 0.547181
C83   C     C_R   0.235898 0.860038 0.164363 0.543448
C84   C     C_R   0.774900 0.820941 0.844304 0.521894
C85   C     C_1   0.458235 0.176973 0.584240 -0.003696
C86   C     C_1   0.506319 0.171872 0.401189 0.008898
C87   C     C_1   0.957941 0.676019 0.584272 -0.021442
C88   C     C_1   0.007161 0.673639 0.401684 0.028350
C89   C     C_1   0.489019 0.170274 0.458100 -0.014626
C90   C     C_1   0.472655 0.172817 0.526197 -0.026703
C91   C     C_1   0.989679 0.672573 0.458518 0.033339
C92   C     C_1   0.972649 0.673141 0.526354 -0.008017
C93   C     C_3   0.690393 0.411651 0.520511 -0.096140
C94   C     C_3   0.309698 0.399820 0.479118 -0.109010
C95   C     C_3   0.198808 0.976351 0.514926 -0.111551
C96   C     C_3   0.796419 0.989282 0.486709 -0.113804
Cr1   Cr    Cr6+3 0.765830 0.160660 0.268180 1.051094
Cr2   Cr    Cr6+3 0.234170 0.160660 0.731820 1.053549
Cr3   Cr    Cr6+3 0.265830 0.660660 0.268180 1.063923
Cr4   Cr    Cr6+3 0.734170 0.660660 0.731820 1.054325
Cr5   Cr    Cr6+3 0.612110 0.009150 0.248770 1.046837
Cr6   Cr    Cr6+3 0.387890 0.009150 0.751230 1.051195
Cr7   Cr    Cr6+3 0.112110 0.509150 0.248770 1.052534
Cr8   Cr    Cr6+3 0.887890 0.509150 0.751230 1.054496
Cr9   Cr    Cr6+3 0.615930 0.324050 0.248450 1.074159
Cr10  Cr    Cr6+3 0.384070 0.324050 0.751550 1.075946
Cr11  Cr    Cr6+3 0.115930 0.824050 0.248450 1.065839
Cr12  Cr    Cr6+3 0.884070 0.824050 0.751550 1.064306
H1    H     H_    0.692731 0.221989 0.464721 0.119750
H2    H     H_    0.296340 0.215743 0.538233 0.110858
H3    H     H_    0.148041 0.797862 0.463656 0.122423
H4    H     H_    0.851657 0.816022 0.537410 0.113392
H5    H     H_    0.639528 0.410493 0.539439 0.159408
H6    H     H_    0.360236 0.388507 0.460397 0.146851
H7    H     H_    0.154054 0.027142 0.529253 0.147637
H8    H     H_    0.839684 0.045887 0.472730 0.154837
H9    H     H_    0.682347 0.569223 0.436973 0.172325
H10   H     H_    0.326198 0.563205 0.559468 0.177293
H11   H     H_    0.248810 0.103117 0.432515 0.118707
H12   H     H_    0.740875 0.106650 0.569484 0.121900
H13   H     H_    0.358258 0.029535 0.536363 0.117130
H14   H     H_    0.635521 0.024813 0.463848 0.127839
H15   H     H_    0.812338 0.604854 0.532051 0.096032
H16   H     H_    0.198544 0.607844 0.463258 0.111191
H17   H     H_    0.823815 0.247371 0.557381 0.146646
H18   H     H_    0.168252 0.252668 0.445751 0.140064
H19   H     H_    0.258259 0.723635 0.567567 0.120879
H20   H     H_    0.746599 0.731144 0.433545 0.119772
H21   H     H_    0.623403 0.172019 0.042913 0.106324
H22   H     H_    0.378228 0.168195 0.956934 0.100385
H23   H     H_    0.101773 0.665137 0.030641 0.131642
H24   H     H_    0.851155 0.677491 0.978374 0.102620
H25   H     H_    0.446323 0.987490 0.042710 0.145183
H26   H     H_    0.554709 0.988729 0.956652 0.146195
H27   H     H_    0.926740 0.490609 0.054486 0.145644
H28   H     H_    0.019255 0.488481 0.952696 0.160929
O1    O     O_R   0.783230 0.287800 0.346510 -0.489883
O2    O     O_R   0.216770 0.287800 0.653490 -0.471181
O3    O     O_R   0.283230 0.787800 0.346510 -0.486391
O4    O     O_R   0.716770 0.787800 0.653490 -0.479197
O5    O     O_R   0.554500 0.081650 0.170370 -0.521170
O6    O     O_R   0.445500 0.081650 0.829630 -0.502687
O7    O     O_R   0.054500 0.581650 0.170370 -0.505038
O8    O     O_R   0.945500 0.581650 0.829630 -0.481202
O9    O     O_R   0.545430 0.285140 0.163100 -0.457770
O10   O     O_R   0.454570 0.285140 0.836900 -0.464316
O11   O     O_R   0.045430 0.785140 0.163100 -0.469387
O12   O     O_R   0.954570 0.785140 0.836900 -0.463185
O13   O     O_R   0.677850 0.374730 0.185500 -0.481543
O14   O     O_R   0.322150 0.374730 0.814500 -0.469280
O15   O     O_R   0.177850 0.874730 0.185500 -0.490926
O16   O     O_R   0.822150 0.874730 0.814500 -0.488471
O17   O     O_3   0.664630 0.164620 0.255130 -0.297538
O18   O     O_3   0.335370 0.164620 0.744870 -0.321544
O19   O     O_3   0.164630 0.664620 0.255130 -0.276457
O20   O     O_3   0.835370 0.664620 0.744870 -0.330061
O21   O     O_R   0.760130 0.037060 0.338610 -0.499761
O22   O     O_R   0.239870 0.037060 0.661390 -0.505895
O23   O     O_R   0.260130 0.537060 0.338610 -0.492449
O24   O     O_R   0.739870 0.537060 0.661390 -0.490253
O25   O     O_R   0.666620 0.921370 0.332440 -0.505523
O26   O     O_R   0.333380 0.921370 0.667560 -0.511087
O27   O     O_R   0.166620 0.421370 0.332440 -0.507052
O28   O     O_R   0.833380 0.421370 0.667560 -0.513401
O29   O     O_R   0.557170 0.082420 0.312350 -0.496997
O30   O     O_R   0.442830 0.082420 0.687650 -0.478778
O31   O     O_R   0.057170 0.582420 0.312350 -0.490727
O32   O     O_R   0.942830 0.582420 0.687650 -0.473964
O33   O     O_R   0.548310 0.285980 0.316250 -0.497184
O34   O     O_R   0.451690 0.285980 0.683750 -0.487197
O35   O     O_R   0.048310 0.785980 0.316250 -0.504847
O36   O     O_R   0.951690 0.785980 0.683750 -0.485329
O37   O     O_R   0.680520 0.375500 0.327470 -0.504907
O38   O     O_R   0.319480 0.375500 0.672530 -0.519098
O39   O     O_R   0.180520 0.875500 0.327470 -0.507915
O40   O     O_R   0.819480 0.875500 0.672530 -0.515627
O41   O     O_R   0.780350 0.286970 0.193350 -0.514058
O42   O     O_R   0.219650 0.286970 0.806650 -0.487223
O43   O     O_R   0.280350 0.786970 0.193350 -0.504249
O44   O     O_R   0.719650 0.786970 0.806650 -0.493792
O45   O     O_R   0.757460 0.036290 0.196640 -0.491494
O46   O     O_R   0.242540 0.036290 0.803360 -0.515221
O47   O     O_R   0.257460 0.536290 0.196640 -0.498398
O48   O     O_R   0.742540 0.536290 0.803360 -0.512938
O49   O     O_R   0.663740 0.920540 0.179290 -0.488250
O50   O     O_R   0.336260 0.920540 0.820710 -0.492783
O51   O     O_R   0.163740 0.420540 0.179290 -0.502811
O52   O     O_R   0.836260 0.420540 0.820710 -0.502750
C97   C     C_2   0.883576 0.406668 0.453949 0.600427
O53   O     O_2   0.928816 0.342488 0.483675 -0.475251
O54   O     O_R   0.893816 0.469852 0.393864 -0.698671
H29   H     H_    0.939627 0.450179 0.378082 0.354438
C98   C     C_2   0.115585 0.438057 0.541243 0.581408
O55   O     O_2   0.065641 0.435453 0.496848 -0.487439
O56   O     O_R   0.107546 0.456073 0.610645 -0.672106
H30   H     H_    0.057638 0.464575 0.617816 0.356083
C99   C     C_2   0.374469 0.797078 0.470351 0.610728
O57   O     O_2   0.393236 0.698270 0.494670 -0.536161
O58   O     O_R   0.415171 0.861715 0.428866 -0.683203
H31   H     H_    0.458969 0.817039 0.422667 0.353066
C100  C     C_2   0.626012 0.787545 0.529830 0.609079
O59   O     O_2   0.609994 0.687540 0.504825 -0.537942
O60   O     O_R   0.583465 0.845853 0.571515 -0.673334
H32   H     H_    0.540978 0.795740 0.577363 0.356487
C101  C     C_2   0.566909 0.382739 0.955601 0.603830
O61   O     O_2   0.586662 0.461094 0.998467 -0.496012
O62   O     O_R   0.579511 0.395702 0.887090 -0.674646
H33   H     H_    0.604784 0.474569 0.879103 0.341204
C102  C     C_2   0.436068 0.382080 0.044355 0.600483
O63   O     O_2   0.418437 0.461983 0.001999 -0.491833
O64   O     O_R   0.422164 0.393433 0.112507 -0.682117
H34   H     H_    0.398085 0.472706 0.120772 0.340999
C103  C     C_2   0.040763 0.879481 0.952691 0.616750
O65   O     O_2   0.030206 0.982920 0.972218 -0.471481
O66   O     O_R   0.087688 0.859963 0.905918 -0.672691
H35   H     H_    0.108478 0.939047 0.890764 0.339322
C104  C     C_2   0.922582 0.882962 0.062744 0.606940
O67   O     O_2   0.902769 0.968397 0.025090 -0.482689
O68   O     O_R   0.914524 0.885590 0.132874 -0.677126
H36   H     H_    0.892353 0.963787 0.146495 0.345578

loop_
_geom_bond_atom_site_label_1
_geom_bond_atom_site_label_2
_ccdc_geom_bond_type
C58   C62   S    
Cr9   O17   S    
O60   H32   S    
Cr2   O18   S    
C67   C83   S    
Cr10  O14   S    
Cr3   O23   S    
C17   C29   S    
C100  O59   D    
C14   C18   S    
C19   C23   S    
C35   C36   S    
C8    C96   S    
C44   C80   S    
C75   O47   A    
C2    O26   A    
C94   H6    S    
C38   C49   S    
Cr11  O35   S    
C101  O61   D    
C10   C22   S    
C15   C19   S    
C98   O55   D    
C33   C101  S    
Cr6   O50   S    
Cr9   O33   S    
Cr2   O2    S    
C37   C41   S    
C33   C42   S    
C38   H22   S    
C9    C69   S    
C38   C42   S    
C16   H12   S    
C15   C95   S    
C11   C71   S    
C13   H9    S    
C66   C82   S    
C4    O28   A    
C43   C79   S    
C71   O39   A    
C7    C27   S    
C84   O44   A    
C26   H18   S    
C41   C49   S    
C57   C61   S    
C97   O54   S    
C9    C13   S    
C7    C11   S    
C25   H17   S    
Cr4   O4    S    
C59   C67   T    
C48   O36   A    
C55   C74   S    
C27   H19   S    
C17   H15   S    
C79   O7    A    
C12   C16   S    
C37   H21   S    
C80   O8    A    
C55   C63   T    
Cr2   O22   S    
Cr5   O25   S    
C81   O13   A    
C56   C64   T    
C22   C98   S    
C18   C30   S    
C23   C27   S    
Cr2   O42   S    
C18   C22   S    
C73   O45   A    
Cr6   O18   S    
C40   C44   S    
C20   H14   S    
C4    C29   S    
C76   O52   A    
C16   C20   S    
C46   C85   S    
Cr11  O15   S    
C44   C52   S    
C11   C15   S    
C103  O66   S    
C39   C52   S    
C40   H24   S    
C19   C31   S    
O58   H31   S    
Cr6   O30   S    
Cr9   O37   S    
C87   C92   T    
C25   C29   S    
C47   O35   A    
C6    H2    S    
Cr3   O3    S    
C51   C52   S    
C97   O53   D    
C34   C41   S    
C51   H27   S    
C100  O60   S    
Cr5   O49   S    
Cr1   O1    S    
C73   O49   A    
C29   C93   S    
C58   C66   T    
C102  O63   D    
C83   O15   A    
C101  O62   S    
C69   O1    A    
Cr8   O52   S    
C24   C100  S    
C16   C96   S    
Cr10  O34   S    
C27   C31   S    
O62   H33   S    
C68   C84   S    
C20   C24   S    
C21   C97   S    
C36   C40   S    
Cr7   O51   S    
C10   C14   S    
C95   H7    S    
O68   H36   S    
Cr12  O16   S    
C7    H3    S    
C79   O11   A    
C54   C62   T    
Cr10  O18   S    
Cr11  O11   S    
C103  O65   D    
C78   O6    A    
C69   O37   A    
C33   C37   S    
O54   H29   S    
C13   C93   S    
C2    C31   S    
Cr1   O21   S    
Cr3   O43   S    
Cr2   O46   S    
C3    C30   S    
C35   C39   S    
O66   H35   S    
C5    C9    S    
C34   C102  S    
Cr8   O32   S    
C47   O31   A    
Cr4   O24   S    
Cr1   O41   S    
O64   H34   S    
Cr12  O20   S    
C88   C91   T    
C28   C32   S    
C8    C12   S    
Cr9   O9    S    
C82   O42   A    
C98   O56   S    
C33   C34   S    
Cr10  O38   S    
C48   C87   S    
C1    O21   A    
C3    O23   A    
C93   H5    S    
Cr7   O31   S    
Cr8   O20   S    
Cr5   O29   S    
C35   C44   S    
C70   O38   A    
C60   C68   T    
C82   O14   A    
C42   C50   S    
C5    C25   S    
C10   C70   S    
Cr7   O19   S    
C32   C96   S    
C70   O2    A    
Cr1   O17   S    
Cr12  O36   S    
C50   H26   S    
C52   H28   S    
Cr6   O6    S    
Cr3   O19   S    
C59   C63   S    
Cr11  O39   S    
C53   C76   S    
Cr4   O20   S    
C9    C21   S    
Cr5   O17   S    
C53   C61   T    
Cr4   O44   S    
C71   O3    A    
C91   C92   S    
C7    C95   S    
Cr6   O26   S    
C42   C78   S    
C14   H10   S    
C20   C32   S    
C21   C25   S    
C19   H13   S    
C56   C73   S    
C46   O30   A    
C34   C38   S    
Cr5   O5    S    
C84   O16   A    
C75   O51   A    
C24   C28   S    
C57   C65   T    
C86   C89   T    
Cr7   O7    S    
C36   C104  S    
C6    C10   S    
C5    C93   S    
C85   C90   T    
Cr1   O45   S    
C6    C26   S    
C74   O46   A    
C3    O27   A    
C104  O68   S    
C40   C51   S    
Cr9   O13   S    
C12   C24   S    
Cr7   O27   S    
C83   O43   A    
Cr10  O10   S    
C13   C17   S    
C60   C64   S    
C47   C88   S    
C99   O58   S    
C45   C86   S    
C104  O67   D    
C81   O41   A    
C72   O4    A    
C30   C94   S    
C76   O48   A    
C41   C77   S    
C37   C50   S    
C6    C94   S    
Cr8   O28   S    
C4    O24   A    
C77   O9    A    
C39   H23   S    
C43   C51   S    
C31   C95   S    
Cr12  O40   S    
C11   C23   S    
C102  O64   S    
C8    H4    S    
C15   H11   S    
C1    C32   S    
C12   C72   S    
C99   O57   D    
Cr4   O48   S    
C72   O40   A    
C77   O5    A    
Cr8   O8    S    
C78   O10   A    
C1    O25   A    
O56   H30   S    
C14   C94   S    
C46   O34   A    
C80   O12   A    
C2    O22   A    
C39   C43   S    
C8    C28   S    
C49   C50   S    
C22   C26   S    
C49   H25   S    
C65   C81   S    
C96   H8    S    
C36   C43   S    
Cr3   O47   S    
C5    H1    S    
Cr12  O12   S    
C23   C99   S    
C89   C90   S    
C45   O29   A    
C48   O32   A    
C35   C103  S    
Cr11  O19   S    
C45   O33   A    
C28   H20   S    
C18   H16   S    
C54   C75   S    
C74   O50   A    
C26   C30   S    
C17   C21   S    
