data_mof_unit_53154.cif
_audit_creation_date              2012-10-26T18:27:08-0400
_audit_creation_method            fapswitch 2.2
_symmetry_space_group_name_H-M    P1
_symmetry_Int_Tables_number       1
_space_group_crystal_system       triclinic
_cell_length_a                    15.020738
_cell_length_b                    11.020068
_cell_length_c                    9.796044
_cell_angle_alpha                 91.806451
_cell_angle_beta                  90.059277
_cell_angle_gamma                 90.652971
_cell_volume                      1620.6220964

loop_
_atom_site_label
_atom_site_type_symbol
_atom_type_description
_atom_site_fract_x
_atom_site_fract_y
_atom_site_fract_z
_atom_type_partial_charge
C1    C     C_R   0.502058 0.266808 0.498229 0.611851
C2    C     C_R   0.184753 0.427063 0.407687 -0.100955
C3    C     C_R   0.232623 0.501406 0.500591 0.002536
C4    C     C_R   0.329135 0.499793 0.500039 0.578753
C5    C     C_R   0.188395 0.577457 0.594516 -0.129099
C6    C     C_2   0.504201 0.936177 0.408486 -0.095741
C7    C     C_2   0.475316 0.862322 0.507772 0.007375
C8    C     C_2   0.473806 0.060755 0.409842 -0.103855
C9    C     C_2   0.517812 0.138507 0.493686 -0.096937
C10   C     C_2   0.441210 0.443064 0.923106 0.063441
C11   C     C_2   0.453799 0.423832 0.074193 0.039995
C12   C     C_R   0.908332 0.595133 0.586536 0.034168
C13   C     C_R   0.496098 0.733623 0.502131 0.610221
C14   C     C_R   0.670816 0.504572 0.500081 0.516742
C15   C     C_R   0.814384 0.602601 0.577968 0.002272
C16   C     C_R   0.767659 0.512163 0.499873 -0.019936
C17   C     C_R   0.813102 0.429171 0.415616 -0.128335
C18   C     C_R   0.905511 0.430174 0.411744 0.014295
C19   C     C_R   0.953478 0.510720 0.499912 0.043745
C20   C     C_2   0.765142 0.709755 0.635252 0.271365
C21   C     C_2   0.413120 0.906229 0.618245 0.217781
C22   C     C_2   0.387868 0.086332 0.342415 0.238286
C23   C     C_R   0.950640 0.350125 0.322630 -0.113776
C24   C     C_2   0.358208 0.393764 0.861855 0.334281
C25   C     C_2   0.586783 0.518656 0.898896 0.384636
C26   C     C_2   0.414667 0.313359 0.129804 0.335736
C27   C     C_2   0.574124 0.905111 0.305986 0.255620
C28   C     C_R   0.043358 0.349925 0.319910 -0.111857
C29   C     C_R   0.091923 0.427568 0.408769 0.011295
C30   C     C_R   0.047001 0.506922 0.500754 0.063413
C31   C     C_R   0.095690 0.582265 0.593563 0.012658
C32   C     C_R   0.051011 0.660565 0.684292 -0.129480
C33   C     C_R   0.958507 0.667098 0.680990 -0.084151
Cu1   Cu    Cu3+1 0.500020 0.500020 0.638630 1.076686
Cu2   Cu    Cu3+1 0.499980 0.499980 0.361370 1.017968
H1    H     H_    0.226359 0.634787 0.665960 0.152611
H2    H     H_    0.514678 0.581681 0.113799 0.237931
H3    H     H_    0.775966 0.363601 0.352436 0.123939
H4    H     H_    0.914160 0.288167 0.254444 0.126479
H5    H     H_    0.077072 0.288223 0.249424 0.143548
H6    H     H_    0.219804 0.367244 0.336805 0.201408
H7    H     H_    0.087677 0.717094 0.757934 0.134344
H8    H     H_    0.576685 0.953664 0.211337 0.111680
H9    H     H_    0.927109 0.726138 0.756267 0.180559
H10   H     H_    0.694935 0.703474 0.658307 0.184458
H11   H     H_    0.400858 0.002119 0.636245 0.159089
H12   H     H_    0.364704 0.027276 0.258711 0.123725
H13   H     H_    0.571673 0.106653 0.557296 0.101997
H14   H     H_    0.295371 0.437055 0.885779 0.105160
H15   H     H_    0.618493 0.452316 0.962155 0.075754
H16   H     H_    0.457775 0.240041 0.157588 0.108909
N1    N     N_2   0.499020 0.498660 0.846910 -0.252745
N2    N     N_2   0.499000 0.498630 0.153040 -0.392954
O1    O     O_R   0.500020 0.321960 0.617040 -0.468432
O2    O     O_2   0.373538 0.834869 0.690068 -0.492716
O3    O     O_2   0.340170 0.168483 0.384002 -0.463370
O4    O     O_2   0.358847 0.300968 0.790597 -0.464455
O5    O     O_2   0.627218 0.611667 0.873146 -0.499155
O6    O     O_2   0.334023 0.301331 0.138078 -0.502567
O7    O     O_2   0.632273 0.831951 0.329144 -0.466276
O8    O     O_R   0.499980 0.321920 0.382900 -0.505127
O9    O     O_R   0.370270 0.499990 0.617090 -0.487945
O10   O     O_R   0.370240 0.499950 0.382940 -0.479113
O11   O     O_R   0.500020 0.678080 0.617100 -0.451960
O12   O     O_R   0.499980 0.678040 0.382960 -0.483114
O13   O     O_R   0.629760 0.500050 0.617060 -0.511286
O14   O     O_R   0.629730 0.500010 0.382910 -0.486252
O15   O     O_2   0.800794 0.809595 0.647666 -0.495120

loop_
_geom_bond_atom_site_label_1
_geom_bond_atom_site_label_2
_ccdc_geom_bond_type
C18   C23   A    
C8    C9    D    
C7    C13   S    
C8    C22   S    
C14   O14   A    
C29   C30   A    
C27   H8    S    
Cu2   N2    S    
C26   O6    D    
C24   O4    D    
Cu1   N1    S    
C6    C27   S    
C11   N2    D    
C12   C15   A    
Cu2   O14   S    
C1    O1    A    
H2    N2    S    
C32   C33   A    
Cu1   O13   S    
Cu1   O11   S    
C22   H12   S    
C14   O13   A    
C25   N1    S    
C10   N1    D    
Cu2   O8    S    
C13   O12   A    
C23   C28   A    
C7    C21   S    
C33   H9    S    
C4    O10   A    
C6    C7    D    
C13   O11   A    
C2    C29   A    
C23   H4    S    
C6    C8    S    
C12   C19   A    
C28   C29   A    
C20   O15   D    
Cu1   O1    S    
C2    C3    A    
C27   O7    D    
C30   C31   A    
Cu1   Cu2   S    
C14   C16   S    
C25   O5    D    
C28   H5    S    
C2    H6    S    
C15   C16   A    
C5    H1    S    
C4    O9    A    
Cu1   O9    S    
C1    C9    S    
C17   H3    S    
C9    H13   S    
C17   C18   A    
C21   H11   S    
C10   C11   S    
C20   H10   S    
C24   H14   S    
C21   O2    D    
Cu2   O12   S    
C32   H7    S    
C25   H15   S    
C18   C19   A    
C22   O3    D    
C3    C5    A    
C11   C26   S    
C10   C24   S    
C12   C33   A    
C26   H16   S    
C19   C30   A    
Cu2   O10   S    
C15   C20   S    
C31   C32   A    
C3    C4    S    
C16   C17   A    
C5    C31   A    
C1    O8    A    
