data_mof_unit_29665.cif
_audit_creation_date              2012-12-10T17:10:17-0500
_audit_creation_method            fapswitch 2.2
_symmetry_space_group_name_H-M    P1
_symmetry_Int_Tables_number       1
_space_group_crystal_system       triclinic
_cell_length_a                    15.744595
_cell_length_b                    10.651028
_cell_length_c                    10.050617
_cell_angle_alpha                 91.278205
_cell_angle_beta                  89.420271
_cell_angle_gamma                 90.490751
_cell_volume                      1684.88522083

loop_
_atom_site_label
_atom_site_type_symbol
_atom_type_description
_atom_site_fract_x
_atom_site_fract_y
_atom_site_fract_z
_atom_type_partial_charge
C1    C     C_R   0.502286 0.262261 0.497906 0.890961
C2    C     C_3   0.083433 0.509563 0.501974 0.150117
C3    C     C_3   0.971327 0.612763 0.563476 -0.121036
C4    C     C_3   0.916524 0.509383 0.497837 0.145451
C5    C     C_3   0.029697 0.611792 0.439259 -0.107814
C6    C     C_3   0.974135 0.508510 0.373857 -0.030343
C7    C     C_1   0.174201 0.506058 0.502390 0.093822
C8    C     C_1   0.825757 0.505822 0.497490 0.103906
C9    C     C_2   0.541623 0.930557 0.394567 -0.080928
C10   C     C_2   0.541057 0.864595 0.506840 -0.225066
C11   C     C_2   0.551712 0.065850 0.398448 0.021252
C12   C     C_R   0.338080 0.500136 0.500571 0.901225
C13   C     C_2   0.504840 0.128817 0.490481 -0.367254
C14   C     C_2   0.514929 0.598401 0.927158 -0.187496
C15   C     C_2   0.531342 0.590838 0.073744 -0.003448
C16   C     C_R   0.508425 0.737409 0.501739 0.861326
C17   C     C_R   0.661901 0.500080 0.499416 0.897771
C18   C     C_3   0.970053 0.406423 0.561118 -0.237012
C19   C     C_3   0.028788 0.405442 0.435710 -0.243058
C20   C     C_1   0.249334 0.502959 0.501908 -0.120804
C21   C     C_1   0.750617 0.502788 0.498073 -0.081793
C22   C     C_3   0.025790 0.510628 0.625950 -0.027104
H1    H     H_    0.464064 0.079824 0.560614 0.146298
N1    N     N_2   0.500900 0.501330 0.852150 -0.175998
N2    N     N_2   0.500930 0.501360 0.147810 -0.193288
O1    O     O_R   0.499990 0.319060 0.613040 -0.593936
O2    O     O_R   0.500010 0.319100 0.386900 -0.642448
O3    O     O_R   0.376760 0.499970 0.613050 -0.586413
O4    O     O_R   0.376790 0.500010 0.386910 -0.607702
O5    O     O_R   0.499990 0.680900 0.613100 -0.636891
O6    O     O_R   0.500010 0.680940 0.386960 -0.586626
O7    O     O_R   0.623210 0.499990 0.613090 -0.605751
O8    O     O_R   0.623240 0.500030 0.386950 -0.549699
Zn1   Zn    Zn3+2 0.499980 0.499970 0.650990 0.991233
Zn2   Zn    Zn3+2 0.500020 0.500030 0.349010 1.004659
H2    H     H_    0.053574 0.320507 0.382905 0.163373
H3    H     H_    0.523077 0.688407 0.880046 0.150671
H4    H     H_    0.501562 0.415175 0.896404 0.181234
C23   C     C_2   0.584299 0.694067 0.129159 0.512459
H5    H     H_    0.581833 0.786187 0.085342 0.038176
O9    O     O_2   0.635515 0.676448 0.216580 -0.491251
H6    H     H_    0.460704 0.437492 0.102221 0.161201
H7    H     H_    0.944345 0.322299 0.611486 0.169350
C24   C     C_2   0.947349 0.506702 0.231165 0.405416
H8    H     H_    0.995256 0.505349 0.152854 0.070476
O10   O     O_2   0.872284 0.506912 0.202247 -0.526754
C25   C     C_2   0.060851 0.727168 0.370601 0.377302
H9    H     H_    0.015376 0.791710 0.330303 0.092989
O11   O     O_2   0.136739 0.749128 0.359677 -0.554754
C26   C     C_2   0.941308 0.729257 0.635369 0.397370
H10   H     H_    0.987419 0.794529 0.677711 0.081774
O12   O     O_2   0.865641 0.751324 0.646618 -0.525606
C27   C     C_2   0.052410 0.511156 0.768689 0.388512
H11   H     H_    0.004409 0.511089 0.846853 0.079069
O13   O     O_2   0.127443 0.511805 0.797817 -0.553038
H12   H     H_    0.522220 0.888718 0.300112 0.159833
C28   C     C_2   0.579804 0.911665 0.634204 0.460771
H13   H     H_    0.560623 0.871400 0.728135 0.064129
O14   O     O_2   0.635797 0.991771 0.634903 -0.522390
C29   C     C_2   0.612326 0.124973 0.303541 0.497036
H14   H     H_    0.632157 0.222172 0.316125 0.080069
O15   O     O_2   0.642783 0.063536 0.211062 -0.553530

loop_
_geom_bond_atom_site_label_1
_geom_bond_atom_site_label_2
_ccdc_geom_bond_type
N2    H6    S    
C2    C22   S    
C26   O12   D    
C12   O4    A    
C23   O9    D    
C5    C25   S    
C9    C10   D    
O4    Zn2   S    
N1    H4    S    
C2    C7    S    
C4    C8    S    
C4    C18   S    
C12   C20   S    
C26   H10   S    
C18   H7    S    
O3    Zn1   S    
C25   O11   D    
C9    H12   S    
C10   C16   S    
C27   H11   S    
O1    Zn1   S    
C14   H3    S    
C6    C19   S    
C9    C11   S    
C15   C23   S    
C28   H13   S    
C5    C6    S    
C17   O8    A    
C12   O3    A    
C4    C6    S    
O8    Zn2   S    
C3    C26   S    
C24   O10   D    
C8    C21   T    
C22   C27   S    
C19   H2    S    
C27   O13   D    
N2    Zn2   S    
C1    O1    A    
O6    Zn2   S    
C28   O14   D    
C2    C5    S    
C15   N2    D    
O5    Zn1   S    
C16   O5    A    
C11   C29   S    
C11   C13   D    
C10   C28   S    
C1    C13   S    
C24   H8    S    
C13   H1    S    
C29   O15   D    
C18   C19   S    
C14   N1    D    
C23   H5    S    
C1    O2    A    
C17   O7    A    
C14   C15   S    
C3    C22   S    
C6    C24   S    
O2    Zn2   S    
C2    C19   S    
C18   C22   S    
C16   O6    A    
C7    C20   T    
C17   C21   S    
C3    C4    S    
C25   H9    S    
O7    Zn1   S    
C29   H14   S    
C3    C5    S    
N1    Zn1   S    
