data_mof_unit_13310.cif
_audit_creation_date              2013-03-05T15:40:33-0500
_audit_creation_method            fapswitch 2.2
_symmetry_space_group_name_H-M    P1
_symmetry_Int_Tables_number       1
_space_group_crystal_system       triclinic
_cell_length_a                    15.031594
_cell_length_b                    8.766819
_cell_length_c                    7.432845
_cell_angle_alpha                 102.928966
_cell_angle_beta                  93.793576
_cell_angle_gamma                 92.710977
_cell_volume                      950.627019808

loop_
_atom_site_label
_atom_site_type_symbol
_atom_site_description
_atom_site_fract_x
_atom_site_fract_y
_atom_site_fract_z
_atom_type_partial_charge
O1    O     O_R   0.506510 0.286130 0.619770 -0.568878
O2    O     O_R   0.493490 0.713870 0.380230 -0.568472
O3    O     O_R   0.489600 0.256770 0.308360 -0.593442
O4    O     O_R   0.510400 0.743230 0.691640 -0.589695
C1    C     C_R   0.496679 0.200362 0.453833 0.920314
C2    C     C_R   0.503227 0.799634 0.546185 0.927645
O5    O     O_R   0.378710 0.514640 0.655720 -0.568094
O6    O     O_R   0.621290 0.485360 0.344280 -0.575972
O7    O     O_R   0.361800 0.485290 0.344300 -0.562112
O8    O     O_R   0.638200 0.514710 0.655700 -0.559994
C3    C     C_R   0.329338 0.500316 0.503199 0.943325
C4    C     C_R   0.670670 0.500194 0.496894 0.930158
Cu1   Cu    Cu3+1 0.510010 0.517380 0.684380 1.073920
Cu2   Cu    Cu3+1 0.489990 0.482620 0.315620 1.070331
C5    C     C_R   0.818447 0.639209 0.572767 0.254655
C6    C     C_R   0.181270 0.363096 0.428627 0.252627
C7    C     C_R   0.766733 0.501493 0.490395 -0.276004
C8    C     C_R   0.233265 0.500481 0.510050 -0.251966
C9    C     C_R   0.805809 0.363428 0.409103 0.265008
C10   C     C_R   0.194761 0.639822 0.589864 0.252221
C11   C     C_R   0.899894 0.360012 0.416455 0.023197
C12   C     C_R   0.100465 0.644636 0.583405 -0.022924
C13   C     C_R   0.952925 0.501006 0.497379 -0.024625
C14   C     C_R   0.047295 0.503180 0.502916 -0.004690
C15   C     C_R   0.911680 0.640174 0.573072 -0.035743
C16   C     C_R   0.088175 0.363153 0.427732 0.000095
C17   C     C_R   0.942900 0.220486 0.349347 0.149504
C18   C     C_R   0.056405 0.784185 0.651054 0.121304
C19   C     C_R   0.035592 0.224059 0.355739 -0.192775
C20   C     C_R   0.963951 0.779270 0.645064 -0.120628
H1    H     H_    0.065927 0.114693 0.304738 0.192719
H2    H     H_    0.933250 0.888185 0.696670 0.207082
C21   C     C_2   0.489393 0.033186 0.428332 0.036634
C22   C     C_2   0.510362 0.966817 0.571766 0.037810
N1    N     N_2   0.474890 0.456420 0.038520 -0.198229
N2    N     N_2   0.525110 0.543580 0.961480 -0.197534
H3    H     H_    0.430418 0.378057 0.948359 0.246522
H4    H     H_    0.569579 0.621949 0.051641 0.247048
N3    N     N_R   0.775488 0.778539 0.653208 0.106316
O9    O     O_R   0.721974 0.841818 0.550229 -0.356602
O10   O     O_R   0.785364 0.836139 0.831063 -0.339521
N4    N     N_R   0.223864 0.223054 0.349164 0.103460
O11   O     O_R   0.277447 0.160353 0.452637 -0.371109
O12   O     O_R   0.214310 0.165157 0.171360 -0.351836
N5    N     N_R   0.748709 0.227759 0.321981 0.146928
O13   O     O_R   0.730415 0.194848 0.143460 -0.308639
O14   O     O_R   0.707020 0.148375 0.422695 -0.335435
N6    N     N_R   0.253170 0.774384 0.674144 0.091715
O15   O     O_R   0.283339 0.793591 0.846412 -0.339467
O16   O     O_R   0.292839 0.852552 0.569455 -0.358769
N7    N     N_3   0.893848 0.072560 0.278164 -0.462436
H5    H     H_    0.914043 0.994640 0.358561 0.230227
H6    H     H_    0.910598 0.028420 0.142801 0.256350
N8    N     N_3   0.101555 0.935313 0.723432 -0.558052
H7    H     H_    0.140189 0.934782 0.845172 0.305275
H8    H     H_    0.139702 0.966616 0.623336 0.289201
N9    N     N_3   0.456537 0.941704 0.247971 -0.522843
H9    H     H_    0.394334 0.979827 0.212105 0.293139
H10   H     H_    0.500889 0.961559 0.151858 0.237095
N10   N     N_3   0.543012 0.058311 0.752261 -0.526352
H11   H     H_    0.605221 0.020370 0.788405 0.293533
H12   H     H_    0.498573 0.038290 0.848147 0.237483

loop_
_geom_bond_atom_site_label_1
_geom_bond_atom_site_label_2
_geom_bond_distance
_ccdc_geom_bond_type
C4    C7    1.447573 S    
O5    C3    1.291469 A    
C13   C14   1.415499 A    
C9    N5    1.433836 S    
C3    C8    1.448436 S    
C9    C11   1.413678 A    
C21   N9    1.441570 S    
C17   C19   1.389601 A    
N1    N2    1.296171 D    
O6    C4    1.291540 A    
N2    H4    1.029173 S    
C21   C22   1.350918 D    
C11   C17   1.416814 A    
C18   C20   1.385807 A    
C19   H1    1.082816 S    
C12   C18   1.426052 A    
N5    O13   1.300947 A    
N10   H12   1.045391 S    
C22   N10   1.441604 S    
O7    C3    1.289618 A    
C5    N3    1.437136 S    
N9    H9    1.045689 S    
C10   N6    1.432996 S    
O3    Cu2   1.968334 S    
N4    O12   1.301029 A    
C16   C19   1.399607 A    
O2    C2    1.288021 A    
O1    C1    1.287952 A    
O8    C4    1.289416 A    
N6    O16   1.300781 A    
N6    O15   1.301157 A    
N1    H3    1.029176 S    
C14   C16   1.416571 A    
C8    C10   1.402569 A    
C13   C15   1.414217 A    
C11   C13   1.426797 A    
C6    C16   1.398977 A    
O2    Cu2   1.973410 S    
C12   C14   1.430233 A    
C5    C15   1.400920 A    
O4    C2    1.286022 A    
N9    H10   1.045385 S    
N4    O11   1.300572 A    
C10   C12   1.417996 A    
N3    O9    1.300558 A    
N7    H5    1.046025 S    
C20   H2    1.083065 S    
C6    N4    1.437352 S    
O5    Cu1   1.969476 S    
O1    Cu1   1.973410 S    
N7    H6    1.045918 S    
N3    O10   1.301099 A    
Cu1   N2    2.016905 S    
C6    C8    1.396408 A    
N5    O14   1.300533 A    
C15   C20   1.397295 A    
C5    C7    1.397938 A    
O7    Cu2   1.953284 S    
C18   N8    1.432861 S    
N8    H7    1.043398 S    
N10   H11   1.045658 S    
O6    Cu2   1.969476 S    
C7    C9    1.400747 A    
Cu1   Cu2   2.684133 S    
Cu2   N1    2.016905 S    
C2    C22   1.433017 S    
O4    Cu1   1.968334 S    
C17   N7    1.433969 S    
N8    H8    1.044303 S    
O3    C1    1.286106 A    
O8    Cu1   1.953284 S    
C1    C21   1.433061 S    
