data_mof_unit_17106.cif
_audit_creation_date              2013-03-05T16:43:30-0500
_audit_creation_method            fapswitch 2.2
_symmetry_space_group_name_H-M    P1
_symmetry_Int_Tables_number       1
_space_group_crystal_system       triclinic
_cell_length_a                    10.50533
_cell_length_b                    10.673974
_cell_length_c                    9.873304
_cell_angle_alpha                 90.137564
_cell_angle_beta                  90.725079
_cell_angle_gamma                 90.231632
_cell_volume                      1107.02828454

loop_
_atom_site_label
_atom_site_type_symbol
_atom_site_description
_atom_site_fract_x
_atom_site_fract_y
_atom_site_fract_z
_atom_type_partial_charge
O1    O     O_R   0.500020 0.316790 0.614690 -0.617449
O2    O     O_R   0.500000 0.316760 0.385350 -0.607784
C1    C     C_R   0.496131 0.259928 0.499864 0.890262
O3    O     O_R   0.313960 0.499990 0.614650 -0.624436
O4    O     O_R   0.313940 0.499950 0.385310 -0.616779
C2    C     C_R   0.257382 0.500269 0.499181 0.894542
Zn1   Zn    Zn3+2 0.500010 0.500020 0.653130 0.950885
Zn2   Zn    Zn3+2 0.499990 0.499980 0.346870 0.964015
O5    O     O_R   0.500000 0.683240 0.614650 -0.617451
O6    O     O_R   0.499980 0.683210 0.385310 -0.631550
O7    O     O_R   0.686060 0.500050 0.614690 -0.626595
O8    O     O_R   0.686040 0.500010 0.385350 -0.620288
C3    C     C_R   0.495697 0.739999 0.499994 0.877940
C4    C     C_R   0.742611 0.500439 0.500943 0.872894
C5    C     C_3   0.042955 0.397435 0.562599 -0.174940
C6    C     C_3   0.955893 0.398899 0.435235 -0.106666
H1    H     H_    0.915488 0.315554 0.382375 0.155587
H2    H     H_    0.082892 0.312860 0.612467 0.153440
C7    C     C_3   0.877463 0.501226 0.502861 -0.014587
C8    C     C_3   0.961645 0.499729 0.630788 -0.192377
C9    C     C_3   0.042811 0.602210 0.564909 0.022689
C10   C     C_3   0.956320 0.605547 0.438432 -0.237808
C11   C     C_3   0.037564 0.503028 0.370782 -0.103442
C12   C     C_3   0.122396 0.501319 0.498044 -0.021685
H3    H     H_    0.927010 0.499202 0.736600 0.154285
H4    H     H_    0.916551 0.690429 0.389019 0.146479
H5    H     H_    0.070544 0.504875 0.264649 0.155825
C13   C     C_R   0.462310 0.064128 0.620858 0.135897
C14   C     C_R   0.475289 0.128467 0.499175 -0.131947
C15   C     C_R   0.463412 0.064108 0.375765 -0.144285
H6    H     H_    0.465522 0.112378 0.279645 0.219247
C16   C     C_R   0.462135 0.934851 0.375777 -0.213559
H7    H     H_    0.462091 0.886067 0.279419 0.184211
C17   C     C_R   0.474301 0.871194 0.499322 -0.122546
C18   C     C_R   0.462084 0.936167 0.620942 0.169464
C19   C     C_3   0.539395 0.929571 0.748903 -0.483239
C20   C     C_3   0.539563 0.071656 0.748902 -0.463275
H8    H     H_    0.484676 0.888540 0.833760 0.221745
H9    H     H_    0.635306 0.888519 0.733525 0.198493
H10   H     H_    0.484863 0.112782 0.833700 0.235465
H11   H     H_    0.635585 0.113176 0.733625 0.204374
C21   C     C_R   0.434413 0.409912 0.070029 0.156806
N1    N     N_R   0.499140 0.499140 0.142800 -0.131445
C22   C     C_R   0.573904 0.581470 0.073166 -0.125029
H12   H     H_    0.631625 0.648975 0.128374 0.149943
C23   C     C_R   0.574105 0.581311 0.929250 -0.124527
H13   H     H_    0.632054 0.648627 0.875940 0.143650
N2    N     N_R   0.499140 0.499180 0.857150 -0.102058
C24   C     C_R   0.433489 0.410876 0.927315 0.179360
C25   C     C_3   0.293431 0.388839 0.918234 -0.568945
C26   C     C_3   0.294008 0.387256 0.072400 0.105285
H14   H     H_    0.241366 0.470368 0.875239 0.199553
H15   H     H_    0.269817 0.297746 0.869038 0.232798
H16   H     H_    0.240511 0.465700 0.118662 0.108985
N3    N     N_R   0.262356 0.264505 0.128794 0.235349
O9    O     O_R   0.311542 0.162475 0.079769 -0.434690
O10   O     O_R   0.184066 0.256785 0.229425 -0.410647
C27   C     C_1   0.094623 0.713130 0.634793 0.144465
N4    N     N_1   0.135757 0.800488 0.689767 -0.193902

loop_
_geom_bond_atom_site_label_1
_geom_bond_atom_site_label_2
_geom_bond_distance
_ccdc_geom_bond_type
O4    Zn2   1.995731 S    
C25   H14   1.111953 S    
C11   C12   1.531418 S    
C14   C15   1.401278 A    
C11   H5    1.108020 S    
C5    H2    1.110576 S    
C19   C20   1.516610 S    
C7    C8    1.532845 S    
C18   C19   1.495217 S    
Zn2   N1    2.014750 S    
C21   C26   1.494213 S    
Zn2   O8    1.986374 S    
C26   H16   1.110863 S    
C2    C12   1.418062 S    
C16   H7    1.083445 S    
C13   C14   1.393192 A    
N3    O9    1.302193 A    
C19   H8    1.111804 S    
O2    C1    1.285387 A    
C3    C17   1.419207 S    
O1    Zn1   1.991383 S    
C9    C10   1.535566 S    
Zn1   N2    2.014530 S    
Zn1   O7    1.995731 S    
C15   H6    1.081381 S    
C1    C14   1.419300 S    
O4    C2    1.278267 A    
C13   C20   1.495451 S    
O3    Zn1   1.986373 S    
O3    C2    1.279022 A    
N2    C24   1.361603 A    
O8    C4    1.280052 A    
C24   C25   1.490641 S    
C6    C11   1.544656 S    
C26   N3    1.463553 S    
N3    O10   1.300359 A    
N1    C22   1.368514 A    
C6    C7    1.528186 S    
C5    C8    1.547148 S    
O7    C4    1.277146 A    
C23   N2    1.368486 A    
C25   H15   1.111579 S    
C21   N1    1.365581 A    
C21   C24   1.409031 A    
C20   H10   1.111897 S    
C15   C16   1.379698 A    
C9    C27   1.468150 S    
C7    C10   1.529753 S    
C8    C9    1.535133 S    
Zn2   O6    1.991382 S    
C17   C18   1.392827 A    
C10   H4    1.110620 S    
C9    C12   1.520661 S    
Zn1   O5    1.993141 S    
O5    C3    1.285614 A    
C10   C11   1.546130 S    
C5    C12   1.530254 S    
C25   C26   1.522200 S    
C27   N4    1.157230 T    
C23   H13   1.081814 S    
C20   H11   1.112331 S    
C4    C7    1.416541 S    
O6    C3    1.284450 A    
C19   H9    1.112378 S    
O2    Zn2   1.993141 S    
C22   H12   1.081763 S    
C5    C6    1.545690 S    
C13   C18   1.365843 A    
C22   C23   1.420950 A    
C6    H1    1.110448 S    
O1    C1    1.284788 A    
C8    H3    1.110626 S    
C16   C17   1.402386 A    
