data_mof_unit_9099.cif
_audit_creation_date              2012-12-11T18:13:33-0500
_audit_creation_method            fapswitch 2.2
_symmetry_space_group_name_H-M    P1
_symmetry_Int_Tables_number       1
_space_group_crystal_system       triclinic
_cell_length_a                    8.349194
_cell_length_b                    12.764366
_cell_length_c                    18.695488
_cell_angle_alpha                 99.094921
_cell_angle_beta                  90.961943
_cell_angle_gamma                 98.697172
_cell_volume                      1943.05695202

loop_
_atom_site_label
_atom_site_type_symbol
_atom_type_description
_atom_site_fract_x
_atom_site_fract_y
_atom_site_fract_z
_atom_type_partial_charge
Ba1   Ba    Ba6+2 0.852780 0.548340 0.465070 1.672940
Ba2   Ba    Ba6+2 0.337060 0.451750 0.534940 1.713793
C1    C     C_3   0.766009 0.910070 0.240822 -0.238926
C2    C     C_R   0.890616 0.408681 0.098909 0.051414
C3    C     C_R   0.725359 0.377031 0.080031 -0.062752
C4    C     C_3   0.106833 0.745854 0.263513 0.331226
C5    C     C_R   0.662882 0.392309 0.013388 -0.076672
C6    C     C_R   0.765682 0.431696 0.961831 0.027825
C7    C     C_R   0.931363 0.465261 0.980579 0.043755
C8    C     C_R   0.706073 0.436805 0.891932 -0.090315
C9    C     C_R   0.812000 0.466504 0.838008 0.002117
C10   C     C_R   0.975503 0.510953 0.858978 0.022121
C11   C     C_R   0.034065 0.510289 0.930679 0.017201
C12   C     C_3   0.693721 0.819045 0.279892 0.619375
C13   C     C_R   0.760807 0.452839 0.763876 0.007134
C14   C     C_R   0.868693 0.492339 0.714038 -0.246899
C15   C     C_R   0.024672 0.547587 0.735211 0.058010
C16   C     C_3   0.139975 0.772014 0.187067 0.183660
C17   C     C_R   0.080007 0.556973 0.808953 -0.015789
C18   C     C_R   0.155166 0.498503 0.071724 0.048603
C19   C     C_R   0.213384 0.496530 0.143325 -0.003738
C20   C     C_R   0.109363 0.448261 0.192648 -0.051639
C21   C     C_R   0.952529 0.397527 0.167047 -0.026182
C22   C     C_R   0.235449 0.611129 0.834874 0.006819
C23   C     C_3   0.460288 0.283643 0.313781 0.290159
C24   C     C_R   0.295235 0.606758 0.905027 0.022928
C25   C     C_R   0.195532 0.553939 0.952557 0.048409
C26   C     C_R   0.256030 0.548056 0.022961 0.058407
C27   C     C_R   0.454039 0.654137 0.928562 -0.046469
C28   C     C_3   0.237137 0.774232 0.609740 0.222325
C29   C     C_R   0.515448 0.645463 0.997026 -0.086218
C30   C     C_R   0.417097 0.592898 0.044726 0.009600
C31   C     C_R   0.374757 0.544034 0.165514 -0.052581
C32   C     C_R   0.476523 0.587505 0.114404 -0.094015
C33   C     C_R   0.426994 0.549808 0.238728 0.049727
C34   C     C_3   0.430827 0.249106 0.232369 -0.359469
C35   C     C_R   0.320175 0.508844 0.287929 -0.287678
C36   C     C_R   0.163974 0.455825 0.266276 0.032920
C37   C     C_R   0.768830 0.178867 0.515403 -0.261386
C38   C     C_R   0.434310 0.805855 0.465715 -0.245848
C39   C     C_R   0.402618 0.982698 0.442949 -0.032459
C40   C     C_3   0.302341 0.892647 0.621492 -0.264923
C41   C     C_R   0.340556 0.874339 0.439262 0.066217
C42   C     C_R   0.583527 0.846124 0.503109 0.039441
C43   C     C_R   0.648816 0.957607 0.506244 -0.031611
C44   C     C_R   0.556132 0.026094 0.475832 -0.026066
C45   C     C_3   0.054125 0.237837 0.728314 0.397682
C46   C     C_R   0.618369 0.137068 0.480958 0.072637
C47   C     C_R   0.864511 0.112744 0.541747 0.028724
C48   C     C_R   0.803642 0.003454 0.538011 -0.003250
C49   C     C_3   0.973812 0.206556 0.377196 0.271330
C50   C     C_3   0.054666 0.106987 0.368977 -0.322455
C51   C     C_3   0.820045 0.795022 0.687908 0.699102
C52   C     C_3   0.926999 0.904127 0.692414 -0.207195
C53   C     C_3   0.002611 0.203477 0.799879 -0.305868
C54   C     C_3   0.531893 0.213490 0.784917 0.756253
C55   C     C_3   0.440227 0.154670 0.841364 0.212485
C56   C     C_R   0.992839 0.456981 0.050276 0.063426
Cl1   Cl    Cl    0.485859 0.829347 0.285635 -0.857329
Cl2   Cl    Cl    0.345833 0.241403 0.905659 -0.782346
Cl3   Cl    Cl    0.971543 0.722419 0.124765 -0.724025
H1    H     H_    0.752403 0.829263 0.334884 0.045629
H2    H     H_    0.883355 0.728800 0.663208 -0.088410
H3    H     H_    0.744774 0.988535 0.271167 0.081697
H4    H     H_    0.996084 0.905608 0.643280 0.005068
H5    H     H_    0.017497 0.919149 0.738542 0.123488
H6    H     H_    0.853164 0.969913 0.698720 0.184835
H7    H     H_    0.708047 0.899612 0.185657 0.166217
H8    H     H_    0.348283 0.309102 0.337036 0.004126
H9    H     H_    0.561552 0.352144 0.323571 0.065263
H10   H     H_    0.325574 0.183465 0.221167 0.140463
H11   H     H_    0.405117 0.317603 0.206646 0.050361
H12   H     H_    0.267509 0.932924 0.674654 0.198043
H13   H     H_    0.539919 0.220108 0.208201 0.128734
H14   H     H_    0.897449 0.910222 0.234459 0.126923
H15   H     H_    0.244886 0.735443 0.165180 0.083234
H16   H     H_    0.169143 0.293792 0.736770 0.108986
H17   H     H_    0.964117 0.284818 0.710638 -0.047865
H18   H     H_    0.008250 0.274954 0.842778 0.094663
H19   H     H_    0.877422 0.158958 0.794412 0.165226
H20   H     H_    0.082209 0.148626 0.815976 0.176144
H21   H     H_    0.651837 0.253527 0.808730 -0.213254
H22   H     H_    0.525376 0.115916 0.870880 0.085820
H23   H     H_    0.435745 0.904090 0.621066 0.166427
H24   H     H_    0.342442 0.091097 0.814467 0.101700
H25   H     H_    0.992398 0.689769 0.263617 0.114275
H26   H     H_    0.643090 0.344237 0.117928 0.073919
H27   H     H_    0.533844 0.373702 0.002856 0.159002
H28   H     H_    0.827611 0.483801 0.657913 0.048608
H29   H     H_    0.577778 0.413806 0.879240 0.134538
H30   H     H_    0.873504 0.353025 0.200541 0.106449
H31   H     H_    0.312941 0.655575 0.800755 0.146596
H32   H     H_    0.531232 0.698387 0.894330 0.194185
H33   H     H_    0.639257 0.681722 0.013170 0.151396
H34   H     H_    0.254820 0.931071 0.578178 0.082589
H35   H     H_    0.602214 0.618961 0.127902 0.170720
H36   H     H_    0.203781 0.702747 0.279710 0.012793
H37   H     H_    0.361944 0.514884 0.343761 0.065484
H38   H     H_    0.328738 0.032148 0.420263 0.082889
H39   H     H_    0.880210 0.955822 0.559044 0.084755
H40   H     H_    0.814120 0.263886 0.520451 0.034097
H41   H     H_    0.385041 0.721613 0.461556 0.060909
H42   H     H_    0.171059 0.860093 0.188459 0.131128
H43   H     H_    0.330891 0.728943 0.584955 0.030569
H44   H     H_    0.128918 0.759075 0.572297 0.069149
H45   H     H_    0.841491 0.182031 0.379387 -0.006180
H46   H     H_    0.620313 0.636411 0.722807 0.328380
H47   H     H_    0.712175 0.226698 0.655499 0.290440
H48   H     H_    0.021283 0.257927 0.428870 0.051104
H49   H     H_    0.993969 0.045805 0.325083 0.111972
H50   H     H_    0.049615 0.073288 0.419990 0.084903
H51   H     H_    0.182150 0.126926 0.354325 0.141121
O1    O     O_2   0.873090 0.425890 0.325140 -0.466250
O2    O     O_2   0.201552 0.123820 0.552673 -0.445312
O3    O     O_3   0.071538 0.145843 0.677950 -0.563469
O4    O     O_3   0.122420 0.434370 0.414380 -0.500459
O5    O     O_3   0.578370 0.633800 0.536380 -0.477080
O6    O     O_2   0.341510 0.231850 0.465510 -0.475367
O7    O     O_3   0.499731 0.196370 0.343637 -0.638044
O8    O     O_2   0.446885 0.477825 0.753334 -0.461501
O9    O     O_3   0.437623 0.284818 0.761795 -0.595261
O10   O     O_3   0.659500 0.627100 0.368810 -0.475797
O11   O     O_2   0.743842 0.526517 0.244653 -0.493099
O12   O     O_3   0.670708 0.792770 0.650991 -0.634279
O13   O     O_3   0.002040 0.254461 0.315363 -0.633617
O14   O     O_3   0.718828 0.722197 0.237766 -0.576678
O15   O     O_2   0.848200 0.768190 0.534530 -0.515691
O16   O     O_3   0.081160 0.685950 0.404810 -0.492271
O17   O     O_2   0.006174 0.878030 0.444883 -0.519094
O18   O     O_2   0.929320 0.765403 0.818797 -0.317092
O19   O     O_2   0.704477 0.868412 0.817100 -0.234631
O20   O     O_3   0.643572 0.663089 0.775097 -0.533318
O21   O     O_2   0.568648 0.010565 0.731583 -0.321534
O22   O     O_2   0.422790 0.109255 0.654830 -0.304769
O23   O     O_3   0.100482 0.841748 0.312013 -0.615431
O24   O     O_3   0.730436 0.159291 0.671718 -0.590999
O25   O     O_2   0.316610 0.574140 0.674900 -0.450775
O26   O     O_3   0.067290 0.565720 0.585630 -0.509580
O27   O     O_3   0.530210 0.372990 0.631200 -0.451476
O28   O     O_3   0.196038 0.744423 0.676581 -0.607857
O29   O     O_3   0.611340 0.366290 0.463630 -0.482044
O30   O     O_3   0.108550 0.314140 0.595200 -0.499063
P1    P     P_3+3 0.041040 0.394770 0.336330 0.968612
P2    P     P_3+3 0.672880 0.754030 0.556100 0.961861
P3    P     P_3+3 0.133175 0.821566 0.401395 0.954414
P4    P     P_3+3 0.148670 0.605320 0.663680 1.007295
P5    P     P_3+3 0.060939 0.174360 0.589445 1.025575
P6    P     P_3+3 0.634295 0.608577 0.274182 0.985259
P7    P     P_3+3 0.518875 0.231495 0.438020 0.951890
P8    P     P_3+3 0.551925 0.391692 0.727322 0.990864
S1    S     S_3+6 0.776804 0.775396 0.778378 -0.068565
S2    S     S_3+6 0.559710 0.117498 0.709143 -0.148330

loop_
_geom_bond_atom_site_label_1
_geom_bond_atom_site_label_2
_ccdc_geom_bond_type
O7    P7    S    
C36   P1    S    
O19   S1    D    
C1    H7    S    
Ba1   O16   S    
Ba2   O6    S    
O29   P7    S    
C5    C6    A    
C52   H4    S    
C43   C44   A    
O9    P8    S    
C45   O3    S    
C12   Cl1   S    
C24   C25   A    
C35   C36   A    
Ba1   P1    S    
Ba2   O27   S    
C33   C35   A    
C32   H35   S    
O2    P5    D    
H47   O24   S    
O16   P3    S    
C19   C31   A    
C50   H51   S    
C13   C14   A    
C20   C36   A    
O3    P5    S    
O12   P2    S    
C54   C55   S    
C47   P5    S    
Ba1   Ba2   S    
Ba2   O26   S    
C7    C11   A    
Ba1   O10   S    
C31   C33   A    
Ba2   O4    S    
C38   C41   A    
C29   C30   A    
C51   C52   S    
C6    C7    A    
O23   P3    S    
O13   P1    S    
C39   C44   A    
C39   H38   S    
Ba1   O4    S    
O10   P6    S    
C53   H20   S    
C1    H14   S    
C38   C42   A    
O17   P3    D    
C34   H10   S    
C16   H42   S    
C14   H28   S    
C49   H48   S    
C46   P7    S    
C39   C41   A    
O21   S2    D    
Ba1   O1    S    
C23   O7    S    
C35   H37   S    
O24   S2    S    
Ba2   O5    S    
C37   H40   S    
C4    C16   S    
C44   C46   A    
C28   O28   S    
C49   C50   S    
C49   O13   S    
C4    H36   S    
O25   P4    D    
C26   C30   A    
O5    P2    S    
C40   H23   S    
C33   P6    S    
O28   P4    S    
C3    C5    A    
C2    C21   A    
O14   P6    S    
C14   C15   A    
C55   Cl2   S    
C52   H6    S    
C18   C26   A    
C50   H50   S    
C1    H3    S    
C40   H34   S    
C30   C32   A    
O6    P7    D    
C4    O23   S    
C41   P3    S    
O4    P1    S    
C53   H18   S    
C5    H27   S    
C50   H49   S    
C42   P2    S    
O22   S2    D    
C55   H22   S    
C31   C32   A    
Ba1   O5    S    
C18   C19   A    
C1    C12   S    
C34   H13   S    
C37   C47   A    
C9    C13   A    
C28   H44   S    
Ba2   O30   S    
C22   H31   S    
C21   H30   S    
C23   H8    S    
C45   H16   S    
C18   C56   A    
C25   C26   A    
C42   C43   A    
C45   C53   S    
Ba2   O29   S    
C7    C56   A    
C40   H12   S    
C16   H15   S    
C2    C56   A    
Ba2   O25   S    
C48   H39   S    
O30   P5    S    
C28   C40   S    
Ba1   O15   S    
C22   C24   A    
H46   O20   S    
C51   O12   S    
C4    H25   S    
C9    C10   A    
C16   Cl3   S    
C54   H21   S    
C52   H5    S    
Ba2   P4    S    
C29   H33   S    
O27   P8    S    
O8    P8    D    
C12   O14   S    
C54   O9    S    
C17   C22   A    
C27   C29   A    
Ba1   P2    S    
C27   H32   S    
C53   H19   S    
C51   H2    S    
C43   C48   A    
O26   P4    S    
C49   H45   S    
C10   C17   A    
C15   C17   A    
C55   H24   S    
C15   P4    S    
O15   P2    D    
Ba1   O29   S    
C8    C9    A    
C23   C34   S    
C38   H41   S    
C3    H26   S    
O1    P1    D    
C2    C3    A    
O11   P6    D    
C8    H29   S    
C24   C27   A    
C6    C8    A    
C47   C48   A    
C28   H43   S    
O18   S1    D    
C51   S1    S    
O20   S1    S    
C20   C21   A    
C11   C25   A    
C23   H9    S    
C45   H17   S    
C10   C11   A    
C54   S2    S    
C19   C20   A    
C13   P8    S    
Ba1   O26   S    
C34   H11   S    
C37   C46   A    
C12   H1    S    
