data_mof_unit_47013.cif
_audit_creation_date              2013-03-05T16:33:12-0500
_audit_creation_method            fapswitch 2.2
_symmetry_space_group_name_H-M    P1
_symmetry_Int_Tables_number       1
_space_group_crystal_system       triclinic
_cell_length_a                    27.746209
_cell_length_b                    10.964275
_cell_length_c                    9.62744
_cell_angle_alpha                 88.792643
_cell_angle_beta                  87.526518
_cell_angle_gamma                 92.628994
_cell_volume                      2922.24327856

loop_
_atom_site_label
_atom_site_type_symbol
_atom_site_description
_atom_site_fract_x
_atom_site_fract_y
_atom_site_fract_z
_atom_type_partial_charge
O1    O     O_R   0.500000 0.319640 0.618810 -0.521641
O2    O     O_R   0.500010 0.319680 0.381230 -0.562099
C1    C     C_R   0.501549 0.262736 0.501055 0.845845
O3    O     O_R   0.430260 0.500000 0.618780 -0.489251
O4    O     O_R   0.430270 0.500040 0.381190 -0.620936
C2    C     C_R   0.407801 0.504312 0.501893 0.923646
Cu1   Cu    Cu3+1 0.500000 0.499980 0.640670 1.094218
Cu2   Cu    Cu3+1 0.500000 0.500020 0.359330 1.063797
O5    O     O_R   0.499990 0.680320 0.618770 -0.572026
O6    O     O_R   0.500000 0.680360 0.381190 -0.513525
O7    O     O_R   0.569730 0.499960 0.618810 -0.604646
O8    O     O_R   0.569740 0.500000 0.381220 -0.525114
C3    C     C_R   0.502235 0.737570 0.497462 0.888881
C4    C     C_R   0.592494 0.498766 0.498165 0.842163
C5    C     C_R   0.178023 0.417957 0.559870 0.637030
O9    O     O_2   0.202608 0.318801 0.592992 -0.488769
N1    N     N_R   0.202542 0.526022 0.523510 -0.422917
C6    C     C_R   0.178466 0.630383 0.500489 0.684555
C7    C     C_R   0.281666 0.596818 0.604644 0.305778
C8    C     C_R   0.332834 0.598191 0.593227 0.311885
C9    C     C_R   0.328093 0.451994 0.408151 -0.327158
C10   C     C_R   0.278236 0.462540 0.405612 0.413782
C11   C     C_R   0.254476 0.529535 0.509741 0.138766
C12   C     C_R   0.102012 0.515805 0.538972 -0.050688
C13   C     C_R   0.127401 0.409596 0.561953 -0.030470
C14   C     C_R   0.101787 0.297715 0.585905 -0.105003
C15   C     C_R   0.127810 0.627950 0.512290 -0.053048
C16   C     C_R   0.355274 0.515796 0.504500 -0.169090
H1    H     H_    0.345986 0.394921 0.333235 0.239847
H2    H     H_    0.120404 0.214978 0.606600 0.197438
C17   C     C_R   0.645445 0.489660 0.498158 -0.036049
C18   C     C_R   0.974869 0.388308 0.535323 -0.015422
C19   C     C_R   0.974243 0.611397 0.544992 -0.030645
C20   C     C_R   0.949024 0.496298 0.538182 0.079398
C21   C     C_R   0.949884 0.277601 0.508776 -0.250445
C22   C     C_R   0.900115 0.269879 0.491508 0.442007
C23   C     C_R   0.872702 0.375588 0.511922 -0.140347
C24   C     C_R   0.897791 0.489258 0.534326 -0.128943
C25   C     C_R   0.871826 0.596514 0.552380 -0.116173
C26   C     C_R   0.821080 0.586328 0.559196 0.565134
N2    N     N_R   0.797440 0.478619 0.530779 -0.465442
C27   C     C_R   0.821535 0.374396 0.508800 0.603063
C28   C     C_R   0.714749 0.409271 0.610120 -0.038241
C29   C     C_R   0.664910 0.414667 0.599944 -0.290335
C30   C     C_R   0.676839 0.557522 0.403732 0.459018
C31   C     C_R   0.726961 0.549652 0.413221 -0.192559
C32   C     C_R   0.745986 0.477562 0.517289 0.271725
O10   O     O_2   0.795479 0.271087 0.485088 -0.429166
C33   C     C_R   0.025475 0.394676 0.552429 0.067847
C34   C     C_R   0.050839 0.509701 0.541744 0.093928
C35   C     C_R   0.025468 0.618424 0.532085 0.063175
C36   C     C_R   0.051737 0.289890 0.579472 -0.192539
H3    H     H_    0.641394 0.360553 0.672525 0.199260
H4    H     H_    0.729058 0.353400 0.691291 0.187819
H5    H     H_    0.969513 0.196307 0.492626 0.202097
H6    H     H_    0.034222 0.201039 0.600311 0.154279
O11   O     O_2   0.203442 0.735795 0.465196 -0.474218
C37   C     C_R   0.102522 0.734321 0.495278 -0.113731
H7    H     H_    0.121471 0.821676 0.473450 0.197297
C38   C     C_R   0.947477 0.715996 0.563671 -0.193350
C39   C     C_R   0.897390 0.710154 0.565680 0.428262
O12   O     O_2   0.795037 0.682285 0.596489 -0.472784
C40   C     C_R   0.052294 0.730152 0.506897 -0.191233
H8    H     H_    0.964654 0.804811 0.578365 0.184792
H9    H     H_    0.751487 0.601920 0.341617 0.149980
H10   H     H_    0.035307 0.815351 0.489497 0.152877
C41   C     C_R   0.489818 0.057350 0.618200 -0.004933
C42   C     C_R   0.504670 0.129500 0.500543 -0.295117
C43   C     C_R   0.519167 0.071016 0.376022 0.316583
C44   C     C_R   0.518626 0.942783 0.369984 0.341797
C45   C     C_R   0.503784 0.871518 0.491228 -0.257055
C46   C     C_R   0.490710 0.931092 0.612174 -0.064058
C47   C     C_3   0.511680 0.914369 0.750395 -0.449091
C48   C     C_3   0.510342 0.051830 0.761843 0.763049
H11   H     H_    0.486344 0.859830 0.822462 0.242295
H12   H     H_    0.548782 0.880060 0.742510 0.214163
C49   C     C_R   0.540336 0.470887 0.067931 0.139396
N3    N     N_R   0.500300 0.500930 0.147930 -0.230643
C50   C     C_R   0.458840 0.512405 0.079975 -0.064614
H13   H     H_    0.425214 0.520049 0.138891 0.197833
C51   C     C_R   0.457630 0.492928 0.935261 0.479376
N4    N     N_R   0.500310 0.500890 0.852020 -0.235923
C52   C     C_R   0.540817 0.482714 0.922120 0.126639
C53   C     C_3   0.588401 0.550727 0.910497 0.131351
C54   C     C_3   0.591344 0.524385 0.066355 0.165627
H14   H     H_    0.615714 0.507029 0.843176 0.204049
H15   H     H_    0.595903 0.606485 0.129583 0.227217
O13   O     O_3   0.257163 0.657328 0.708231 -0.673171
H16   H     H_    0.278400 0.668410 0.787523 0.358534
O14   O     O_3   0.658170 0.633298 0.306202 -0.688907
H17   H     H_    0.684974 0.675087 0.249550 0.358289
O15   O     O_3   0.874818 0.818773 0.576344 -0.611231
H18   H     H_    0.853465 0.823674 0.496655 0.367321
O16   O     O_3   0.536628 0.138116 0.260845 -0.605093
H19   H     H_    0.562128 0.195687 0.292855 0.365071
S1    S     S_3+6 0.546413 0.875941 0.220905 0.074355
O17   O     O_2   0.509486 0.801067 0.145826 -0.263673
O18   O     O_2   0.570718 0.967601 0.119355 -0.149650
O19   O     O_3   0.588476 0.785222 0.278365 -0.523537
H20   H     H_    0.609707 0.839173 0.333042 0.352685
S2    S     S_3+6 0.247183 0.392001 0.269603 0.062683
O20   O     O_2   0.232911 0.262217 0.311959 -0.217510
O21   O     O_2   0.202786 0.459203 0.237914 -0.287674
O22   O     O_3   0.283909 0.392185 0.126008 -0.484604
H21   H     H_    0.264842 0.349116 0.055796 0.390274
S3    S     S_3+6 0.469627 0.093261 0.900646 0.150704
O23   O     O_2   0.418767 0.091418 0.852928 -0.214932
O24   O     O_2   0.471602 0.004631 0.021007 -0.221736
O25   O     O_3   0.486694 0.232646 0.953655 -0.466080
H22   H     H_    0.476888 0.233290 0.053778 0.392818
O26   O     O_3   0.556241 0.111100 0.770108 -0.653029
H23   H     H_    0.577139 0.085626 0.690540 0.297940
S4    S     S_3+6 0.403881 0.408984 0.893917 0.081465
O27   O     O_2   0.411409 0.324446 0.775297 -0.210256
O28   O     O_2   0.386433 0.332192 0.019077 -0.262423
O29   O     O_3   0.360702 0.505899 0.860510 -0.502614
H24   H     H_    0.330845 0.453568 0.854152 0.376413
O30   O     O_3   0.585047 0.675578 0.876607 -0.680192
H25   H     H_    0.558824 0.708987 0.935755 0.358561
S5    S     S_3+6 0.634357 0.408425 0.093293 0.036981
O31   O     O_2   0.628786 0.354427 0.237714 -0.298943
O32   O     O_2   0.627128 0.307727 0.991445 -0.241189
O33   O     O_3   0.690404 0.471983 0.067230 -0.519636
H26   H     H_    0.712211 0.407311 0.094141 0.384394
S6    S     S_3+6 0.875911 0.125858 0.438653 0.064176
O34   O     O_2   0.842409 0.070777 0.552308 -0.175683
O35   O     O_2   0.848617 0.143069 0.308566 -0.239308
O36   O     O_3   0.920260 0.029308 0.405488 -0.553966
H27   H     H_    0.906930 0.970362 0.338934 0.374576
O37   O     O_3   0.361611 0.681146 0.662271 -0.669073
H28   H     H_    0.342637 0.752768 0.685848 0.357346

loop_
_geom_bond_atom_site_label_1
_geom_bond_atom_site_label_2
_geom_bond_distance
_ccdc_geom_bond_type
S2    O20   1.502638 D    
C47   C48   1.515531 S    
C44   S1    1.786645 S    
C21   C22   1.396909 A    
C12   C15   1.407247 A    
C4    C17   1.477155 S    
O36   H27   0.990474 S    
C51   N4    1.399225 A    
O33   H26   0.990534 S    
C49   N3    1.380605 A    
Cu1   O7    1.937116 S    
N1    C11   1.440021 S    
C10   S2    1.770316 S    
C22   C23   1.427612 A    
C1    C42   1.467467 S    
C53   H14   1.108101 S    
O4    C2    1.297563 A    
O7    C4    1.298561 A    
C5    C13   1.402596 A    
S3    O23   1.502208 D    
C49   C52   1.406469 A    
C5    O9    1.349507 S    
S1    O19   1.672276 S    
C26   O12   1.349518 S    
O29   H24   0.990689 S    
C5    N1    1.370129 A    
C41   C46   1.388073 A    
N2    C27   1.365880 A    
C23   C27   1.420783 A    
O5    C3    1.311903 A    
O30   H25   0.992649 S    
C6    O11   1.349494 S    
C29   H3    1.083362 S    
C2    C16   1.467785 S    
C22   S6    1.780316 S    
C42   C43   1.422875 A    
S1    O18   1.503382 D    
S6    O36   1.684224 S    
C44   C45   1.425905 A    
C39   O15   1.374454 S    
S4    O29   1.674377 S    
C40   H10   1.078626 S    
C49   C54   1.506292 S    
S2    O21   1.503217 D    
O1    Cu1   1.992870 S    
C9    C10   1.394669 A    
Cu2   N3    2.034712 S    
C47   H11   1.111318 S    
O16   H19   0.989975 S    
O3    Cu1   1.955496 S    
O22   H21   0.990549 S    
S5    O32   1.504314 D    
C34   C35   1.415347 A    
C54   H15   1.102784 S    
C12   C34   1.417426 A    
C25   C39   1.416149 A    
C17   C29   1.407299 A    
C21   H5    1.076257 S    
C41   C42   1.403828 A    
C18   C21   1.403725 A    
Cu1   Cu2   2.708574 S    
C35   C40   1.414828 A    
C12   C13   1.406811 A    
C31   H9    1.083444 S    
O3    C2    1.310677 A    
C7    O13   1.381189 S    
C48   O26   1.409072 S    
C50   C51   1.415530 A    
N3    C50   1.357171 A    
C3    C45   1.467185 S    
C13   C14   1.398931 A    
C30   C31   1.404083 A    
C9    H1    1.083920 S    
O6    C3    1.297067 A    
C38   C39   1.387525 A    
O1    C1    1.305528 A    
C18   C20   1.412253 A    
C54   S5    1.805578 S    
C7    C11   1.408898 A    
C28   C29   1.394396 A    
C23   C24   1.424450 A    
C14   C36   1.391541 A    
C48   S3    1.791833 S    
C28   H4    1.082809 S    
C52   C53   1.484981 S    
Cu2   O8    1.955490 S    
C33   C36   1.413982 A    
S1    O17   1.502639 D    
N1    C6    1.369991 A    
N2    C32   1.438655 S    
C41   C48   1.519210 S    
C27   O10   1.344545 S    
C53   C54   1.528433 S    
C30   O14   1.374340 S    
Cu2   O6    1.992869 S    
C26   N2    1.363004 A    
C9    C16   1.399251 A    
O8    C4    1.314478 A    
C14   H2    1.083363 S    
S2    O22   1.681562 S    
S6    O34   1.502972 D    
C47   H12   1.112213 S    
C19   C35   1.419777 A    
C25   C26   1.405907 A    
S5    O31   1.498671 D    
S4    O27   1.499580 D    
C37   C40   1.391887 A    
Cu1   O5    1.984097 S    
C31   C32   1.399202 A    
O26   H23   0.993275 S    
C20   C24   1.422217 A    
O2    Cu2   1.984099 S    
C6    C15   1.404190 A    
C8    O37   1.382519 S    
C46   C47   1.486378 S    
C15   C37   1.398664 A    
O4    Cu2   1.937119 S    
S5    O33   1.681211 S    
C19   C38   1.405150 A    
C8    C16   1.404178 A    
O19   H20   0.990939 S    
C38   H8    1.079104 S    
C7    C8    1.418569 A    
O2    C1    1.303372 A    
C37   H7    1.083390 S    
C45   C46   1.389753 A    
O25   H22   0.990485 S    
O14   H17   0.991830 S    
C24   C25   1.416935 A    
S3    O24   1.500990 D    
O15   H18   0.991425 S    
C19   C20   1.418786 A    
O37   H28   0.990201 S    
C43   C44   1.407827 A    
C18   C33   1.419507 A    
C50   H13   1.078313 S    
Cu1   N4    2.035382 S    
O13   H16   0.990388 S    
C53   O30   1.408713 S    
C33   C34   1.415365 A    
C17   C30   1.408016 A    
C51   S4    1.780573 S    
S6    O35   1.504207 D    
C10   C11   1.413357 A    
C43   O16   1.375537 S    
N4    C52   1.356003 A    
C28   C32   1.398558 A    
C36   H6    1.079528 S    
S4    O28   1.504899 D    
S3    O25   1.675589 S    
