data_mof_unit_42273.cif
_audit_creation_date              2012-12-10T20:51:46-0500
_audit_creation_method            fapswitch 2.2
_symmetry_space_group_name_H-M    P1
_symmetry_Int_Tables_number       1
_space_group_crystal_system       triclinic
_cell_length_a                    8.133798
_cell_length_b                    8.892838
_cell_length_c                    16.829025
_cell_angle_alpha                 89.774977
_cell_angle_beta                  94.301706
_cell_angle_gamma                 90.120322
_cell_volume                      1213.84569011

loop_
_atom_site_label
_atom_site_type_symbol
_atom_type_description
_atom_site_fract_x
_atom_site_fract_y
_atom_site_fract_z
_atom_type_partial_charge
C1    C     C_R   0.499853 0.218167 0.499875 0.908632
C2    C     C_R   0.563813 0.350604 0.144359 -0.313537
C3    C     C_R   0.543245 0.434938 0.904031 0.087597
C4    C     C_R   0.424932 0.404247 0.098694 0.125994
C5    C     C_R   0.677343 0.392804 0.861436 0.413961
C6    C     C_R   0.295463 0.467455 0.136554 0.378242
C7    C     C_R   0.662933 0.398881 0.778538 0.342634
C8    C     C_R   0.321729 0.515237 0.215470 0.326627
C9    C     C_1   0.499880 0.065300 0.500007 -0.176474
C10   C     C_1   0.500242 0.934702 0.500114 -0.177056
C11   C     C_3   0.902383 0.490505 0.934826 0.107613
C12   C     C_R   0.500174 0.781829 0.500165 0.922542
C13   C     C_3   0.910391 0.627012 0.878483 -0.404745
C14   C     C_3   0.996660 0.760059 0.920859 -0.882948
C15   C     C_3   0.042005 0.359943 0.119173 0.090627
C16   C     C_3   0.084937 0.211657 0.078469 -0.380054
C17   C     C_3   0.958448 0.088850 0.091211 -0.923799
C18   C     C_3   0.737920 0.204181 0.699713 0.138691
C19   C     C_3   0.798187 0.068762 0.750095 -0.352959
C20   C     C_3   0.755105 0.921614 0.706729 -0.899592
C21   C     C_3   0.207720 0.749971 0.224539 0.130437
C22   C     C_3   0.313462 0.842771 0.285726 -0.373049
C23   C     C_R   0.520983 0.498513 0.653730 0.936955
C24   C     C_3   0.316148 0.008965 0.262792 -0.910391
C25   C     C_R   0.478921 0.494660 0.346432 0.939014
C26   C     C_R   0.532719 0.482650 0.739842 -0.296816
C27   C     C_R   0.463899 0.466000 0.261199 -0.260438
C28   C     C_R   0.412859 0.548957 0.784453 0.116081
C29   C     C_R   0.580635 0.375039 0.225943 0.104096
C30   C     C_R   0.412992 0.516913 0.865142 -0.264218
H1    H     H_    0.656051 0.286114 0.116717 0.193307
H2    H     H_    0.912418 0.389233 0.101372 0.175763
H3    H     H_    0.048625 0.343984 0.185013 0.190589
H4    H     H_    0.091920 0.229507 0.013526 0.258636
H5    H     H_    0.207053 0.171310 0.103499 0.213362
H6    H     H_    0.940480 0.075005 0.155528 0.275570
H7    H     H_    0.003463 0.980597 0.068699 0.261261
H8    H     H_    0.839003 0.116407 0.058177 0.279988
H9    H     H_    0.795224 0.199408 0.641917 0.184421
H10   H     H_    0.601847 0.195753 0.685435 0.091534
H11   H     H_    0.934124 0.075987 0.762575 0.253990
H12   H     H_    0.317616 0.564687 0.898539 0.200062
H13   H     H_    0.740025 0.069442 0.807774 0.233459
H14   H     H_    0.619230 0.908895 0.696716 0.267031
H15   H     H_    0.804294 0.825282 0.743014 0.279105
H16   H     H_    0.810600 0.919013 0.648409 0.277554
H17   H     H_    0.079929 0.794705 0.221000 0.177575
H18   H     H_    0.252680 0.764965 0.163893 0.131341
H19   H     H_    0.263206 0.831209 0.345049 0.249393
H20   H     H_    0.441998 0.799903 0.290168 0.207720
H21   H     H_    0.371793 0.023629 0.204983 0.264186
H22   H     H_    0.391454 0.072676 0.309078 0.278836
H23   H     H_    0.031252 0.461770 0.954677 0.214788
H24   H     H_    0.189281 0.055699 0.258207 0.273936
H25   H     H_    0.839053 0.523236 0.988239 0.164396
H26   H     H_    0.976179 0.594187 0.825992 0.278661
H27   H     H_    0.784422 0.664795 0.857654 0.211476
H28   H     H_    0.923723 0.797922 0.970184 0.261051
H29   H     H_    0.006398 0.854772 0.878287 0.281842
H30   H     H_    0.122269 0.728900 0.945564 0.272138
I1    I     I_    0.775000 0.256072 0.290621 -0.406214
I2    I     I_    0.244416 0.715386 0.736865 -0.406541
N1    N     N_1   0.073640 0.500030 0.499990 0.000475
N2    N     N_1   0.926360 0.499970 0.500010 -0.000840
N3    N     N_2   0.552293 0.411581 0.987161 -0.160331
N4    N     N_2   0.414633 0.404975 0.014717 -0.141661
O1    O     O_R   0.636850 0.285340 0.500000 -0.619144
O2    O     O_3   0.142241 0.481228 0.096264 -0.666596
O3    O     O_3   0.789413 0.340447 0.737382 -0.590483
O4    O     O_3   0.201041 0.597765 0.249564 -0.603094
O5    O     O_R   0.363150 0.714660 0.500000 -0.612398
O6    O     O_R   0.363100 0.285350 0.500000 -0.614475
O7    O     O_R   0.636900 0.714650 0.500000 -0.616880
O8    O     O_R   0.652140 0.498630 0.616140 -0.591434
O9    O     O_R   0.347860 0.501370 0.383860 -0.574531
O10   O     O_R   0.378390 0.498650 0.616130 -0.590389
O11   O     O_R   0.621610 0.501350 0.383870 -0.592783
O12   O     O_3   0.829633 0.358882 0.899211 -0.630556
Zn1   Zn    Zn3+2 0.682780 0.499990 0.500010 1.025134
Zn2   Zn    Zn3+2 0.317220 0.500010 0.499990 1.036107

loop_
_geom_bond_atom_site_label_1
_geom_bond_atom_site_label_2
_ccdc_geom_bond_type
C24   H22   S    
C27   C29   A    
C19   C20   S    
C23   O10   A    
C15   H2    S    
C14   H29   S    
C7    C26   A    
C2    C29   A    
C25   O11   A    
C16   H5    S    
C13   H27   S    
C24   H24   S    
C15   C16   S    
C18   C19   S    
C23   C26   S    
C18   H10   S    
C16   H4    S    
C16   C17   S    
C17   H6    S    
C13   C14   S    
O9    Zn2   S    
C20   H15   S    
C11   H23   S    
C22   H20   S    
C21   H18   S    
C18   O3    S    
C6    O2    S    
C12   O7    A    
C3    N3    S    
O5    Zn2   S    
C20   H14   S    
C19   H13   S    
N1    Zn2   S    
O11   Zn1   S    
C14   H28   S    
C29   I1    S    
C1    O6    A    
O1    Zn1   S    
C4    C6    A    
C5    C7    A    
C6    C8    A    
C2    H1    S    
C25   O9    A    
C3    C30   A    
C2    C4    A    
C18   H9    S    
C11   O12   S    
O7    Zn1   S    
C1    C9    S    
C17   H7    S    
C10   C12   S    
C22   H19   S    
C12   O5    A    
O8    Zn1   S    
N2    Zn1   S    
C22   C24   S    
C23   O8    A    
C11   H25   S    
C9    C10   T    
C26   C28   A    
O10   Zn2   S    
C3    C5    A    
C7    O3    S    
C25   C27   S    
C14   H30   S    
C8    O4    S    
C21   O4    S    
C13   H26   S    
C28   C30   A    
O6    Zn2   S    
C4    N4    S    
C11   C13   S    
C24   H21   S    
C15   O2    S    
C1    O1    A    
C17   H8    S    
N1    N2    T    
N3    N4    D    
C8    C27   A    
C30   H12   S    
C5    O12   S    
C21   C22   S    
C15   H3    S    
C20   H16   S    
C19   H11   S    
C21   H17   S    
C28   I2    S    
