data_mof_unit_24211.cif
_audit_creation_date              2012-12-10T19:00:48-0500
_audit_creation_method            fapswitch 2.2
_symmetry_space_group_name_H-M    P1
_symmetry_Int_Tables_number       1
_space_group_crystal_system       triclinic
_cell_length_a                    15.025366
_cell_length_b                    10.847324
_cell_length_c                    9.570652
_cell_angle_alpha                 90.0289
_cell_angle_beta                  90.674359
_cell_angle_gamma                 91.338775
_cell_volume                      1559.33855303

loop_
_atom_site_label
_atom_site_type_symbol
_atom_type_description
_atom_site_fract_x
_atom_site_fract_y
_atom_site_fract_z
_atom_type_partial_charge
C1    C     C_R   0.502692 0.262735 0.499804 0.877577
C2    C     C_R   0.906637 0.602231 0.448094 -0.101464
C3    C     C_R   0.951076 0.307596 0.636935 0.452725
C4    C     C_R   0.043909 0.307864 0.632638 -0.255219
C5    C     C_R   0.091867 0.403905 0.567693 0.008406
C6    C     C_R   0.046145 0.503420 0.507530 -0.103270
C7    C     C_R   0.093715 0.602163 0.443391 -0.205042
C8    C     C_R   0.046785 0.704507 0.393044 0.534988
C9    C     C_R   0.954164 0.703263 0.393182 0.554175
C10   C     C_R   0.184861 0.401116 0.561051 0.383143
C11   C     C_R   0.231988 0.498958 0.497240 -0.267223
C12   C     C_R   0.328879 0.499727 0.499121 0.890051
C13   C     C_R   0.186954 0.595931 0.431931 0.399207
C14   C     C_R   0.523051 0.064356 0.621720 -0.105821
C15   C     C_R   0.509926 0.129984 0.497977 -0.287759
C16   C     C_R   0.505034 0.064473 0.370939 0.503814
C17   C     C_R   0.498463 0.936711 0.371727 0.592237
C18   C     C_R   0.503010 0.871289 0.498702 -0.210626
C19   C     C_R   0.519726 0.937163 0.622189 -0.266882
C20   C     C_3   0.473705 0.932436 0.760260 0.411075
C21   C     C_3   0.479113 0.072421 0.760458 1.086173
C22   C     C_R   0.576108 0.527432 0.074369 0.017828
C23   C     C_R   0.498783 0.737624 0.499882 0.892442
C24   C     C_R   0.430354 0.449002 0.073090 0.403860
C25   C     C_R   0.429784 0.452356 0.924077 0.641192
C26   C     C_R   0.576249 0.526778 0.927571 0.031196
C27   C     C_3   0.634239 0.639732 0.919257 0.145268
C28   C     C_3   0.633899 0.641173 0.078717 1.023988
C29   C     C_R   0.670833 0.500657 0.500867 0.861561
C30   C     C_R   0.813891 0.599370 0.444515 -0.179799
C31   C     C_R   0.766927 0.500788 0.503722 -0.184562
C32   C     C_R   0.811034 0.404288 0.569133 0.609023
C33   C     C_R   0.904461 0.403878 0.572241 -0.064837
C34   C     C_R   0.952461 0.503227 0.509627 -0.118888
Cu1   Cu    Cu3+1 0.500000 0.499980 0.640670 1.100514
Cu2   Cu    Cu3+1 0.500000 0.500020 0.359330 1.074343
H1    H     H_    0.777638 0.674579 0.397972 0.245904
H2    H     H_    0.513323 0.889338 0.844837 0.103648
H3    H     H_    0.599688 0.717023 0.866793 0.065386
H4    H     H_    0.078036 0.231595 0.680459 0.194990
N1    N     N_R   0.500570 0.500930 0.147930 -0.255392
N2    N     N_R   0.500570 0.500890 0.852020 -0.271940
O1    O     O_R   0.500000 0.319640 0.618810 -0.506944
O2    O     O_R   0.500010 0.319680 0.381230 -0.545561
O3    O     O_R   0.370250 0.499950 0.618800 -0.490538
O4    O     O_R   0.370260 0.499990 0.381220 -0.567211
O5    O     O_R   0.499990 0.680320 0.618770 -0.596829
O6    O     O_R   0.500000 0.680360 0.381190 -0.511066
O7    O     O_R   0.629740 0.500010 0.618780 -0.538112
O8    O     O_R   0.629750 0.500050 0.381200 -0.551908
F1    F     F_    0.480991 0.879202 0.248484 -0.582585
F2    F     F_    0.387153 0.886397 0.748201 -0.633747
F3    F     F_    0.397274 0.128228 0.755517 -0.630621
F4    F     F_    0.535578 0.120633 0.863001 -0.646397
O9    O     O_3   0.356084 0.404426 0.142088 -0.597083
C35   C     C_3   0.343580 0.275837 0.121924 0.185499
H5    H     H_    0.355176 0.229554 0.223561 0.171308
H6    H     H_    0.388963 0.233884 0.044513 0.229416
C36   C     C_3   0.247503 0.248050 0.077460 -0.754581
H7    H     H_    0.233732 0.287311 0.972623 0.306658
H8    H     H_    0.235424 0.146717 0.073150 0.229355
H9    H     H_    0.201128 0.288523 0.153434 0.211972
F5    F     F_    0.357701 0.406380 0.854074 -0.605679
O10   O     O_3   0.718592 0.611658 0.865712 -0.529285
C37   C     C_3   0.765304 0.722162 0.832749 0.117144
H10   H     H_    0.756268 0.795641 0.912717 0.171694
H11   H     H_    0.742206 0.756243 0.729175 0.139903
C38   C     C_3   0.864280 0.696967 0.825858 -0.709019
H12   H     H_    0.876213 0.621428 0.750954 0.233850
H13   H     H_    0.901165 0.781256 0.791347 0.205519
H14   H     H_    0.889517 0.669579 0.930605 0.268045
F6    F     F_    0.716253 0.620876 0.139730 -0.634862
F7    F     F_    0.762013 0.310697 0.626510 -0.619909
F8    F     F_    0.592538 0.742454 0.132400 -0.625444
O11   O     O_3   0.906248 0.207732 0.695169 -0.518268
C39   C     C_3   0.907293 0.221087 0.841934 0.090511
H15   H     H_    0.878784 0.310804 0.873569 0.172585
H16   H     H_    0.976324 0.214876 0.884593 0.123727
C40   C     C_3   0.850888 0.117804 0.905780 -0.614906
H17   H     H_    0.878135 0.026869 0.877688 0.227642
H18   H     H_    0.851229 0.127084 0.021344 0.213601
H19   H     H_    0.781174 0.122463 0.866509 0.285532
O12   O     O_3   0.229356 0.300366 0.613906 -0.526237
C41   C     C_3   0.250043 0.219185 0.503252 0.060668
H20   H     H_    0.322841 0.223891 0.486775 0.154022
H21   H     H_    0.216938 0.240420 0.401248 0.105385
C42   C     C_3   0.223631 0.087302 0.542105 -0.605381
H22   H     H_    0.150028 0.075986 0.541662 0.233499
H23   H     H_    0.251063 0.022365 0.464759 0.226296
H24   H     H_    0.249715 0.063998 0.647446 0.311712
O13   O     O_3   0.235385 0.684817 0.359339 -0.525955
C43   C     C_3   0.230184 0.656866 0.214787 0.072302
H25   H     H_    0.164831 0.683462 0.170127 0.181719
H26   H     H_    0.238686 0.556969 0.193615 0.170149
C44   C     C_3   0.302881 0.728616 0.138496 -0.570481
H27   H     H_    0.369183 0.699860 0.176721 0.281933
H28   H     H_    0.297783 0.709721 0.024584 0.200914
H29   H     H_    0.296005 0.829092 0.156521 0.268778
F9    F     F_    0.089844 0.807770 0.346559 -0.612239
F10   F     F_    0.910893 0.801724 0.340115 -0.609372
F11   F     F_    0.501514 0.122622 0.245521 -0.617116

loop_
_geom_bond_atom_site_label_1
_geom_bond_atom_site_label_2
_ccdc_geom_bond_type
C42   H22   S    
C44   H27   S    
C39   C40   S    
O9    C35   S    
C28   F8    S    
C17   F1    S    
C44   H29   S    
C7    C8    A    
C29   O7    A    
C24   O9    S    
C26   C27   S    
C5    C6    A    
C14   C21   S    
C8    F9    S    
C39   H16   S    
C30   C31   A    
C22   N1    A    
C3    C33   A    
C15   C16   A    
C10   O12   S    
C35   H5    S    
C18   C19   A    
C25   F5    S    
Cu1   N2    S    
C38   H12   S    
C1    O1    A    
O12   C41   S    
C27   H3    S    
C8    C9    A    
C37   H11   S    
Cu1   O7    S    
C41   C42   S    
C24   C25   A    
Cu2   O4    S    
C1    C15   S    
Cu1   O1    S    
C2    C34   A    
Cu1   O5    S    
C36   H7    S    
C22   C28   S    
C13   O13   S    
C24   N1    A    
Cu2   N1    S    
C28   F6    S    
C17   C18   A    
C29   O8    A    
C36   H8    S    
C23   O5    A    
C18   C23   S    
C4    H4    S    
C41   H20   S    
C12   O4    A    
C10   C11   A    
O13   C43   S    
C40   H18   S    
C16   C17   A    
C43   C44   S    
C6    C34   A    
C30   H1    S    
Cu1   Cu2   S    
O11   C39   S    
C20   H2    S    
C1    O2    A    
C31   C32   A    
C37   C38   S    
C43   H26   S    
C33   C34   A    
C39   H15   S    
C38   H13   S    
C9    F10   S    
C42   H23   S    
Cu2   O2    S    
C3    C4    A    
Cu1   O3    S    
C32   F7    S    
Cu2   O8    S    
C3    O11   S    
C26   N2    A    
C36   H9    S    
C23   O6    A    
C14   C19   A    
C41   H21   S    
C4    C5    A    
C25   N2    A    
C40   H19   S    
C11   C12   S    
C44   H28   S    
C6    C7    A    
C12   O3    A    
C35   C36   S    
C2    C30   A    
C32   C33   A    
C19   C20   S    
C5    C10   A    
C20   F2    S    
O10   C37   S    
C21   F3    S    
C11   C13   A    
C21   F4    S    
C38   H14   S    
C43   H25   S    
C35   H6    S    
Cu2   O6    S    
C27   O10   S    
C40   H17   S    
C16   F11   S    
C7    C13   A    
C20   C21   S    
C29   C31   S    
C37   H10   S    
C22   C26   A    
C42   H24   S    
C27   C28   S    
C14   C15   A    
C2    C9    A    
