data_mof_unit_42346.cif
_audit_creation_date              2012-12-11T14:49:48-0500
_audit_creation_method            fapswitch 2.2
_symmetry_space_group_name_H-M    P1
_symmetry_Int_Tables_number       1
_space_group_crystal_system       triclinic
_cell_length_a                    17.079892
_cell_length_b                    16.969269
_cell_length_c                    19.639051
_cell_angle_alpha                 116.880243
_cell_angle_beta                  63.219882
_cell_angle_gamma                 100.617408
_cell_volume                      4531.13764092

loop_
_atom_site_label
_atom_site_type_symbol
_atom_type_description
_atom_site_fract_x
_atom_site_fract_y
_atom_site_fract_z
_atom_type_partial_charge
C1    C     C_R   0.043994 0.755897 0.004394 0.516828
C2    C     C_R   0.243616 0.562981 0.830855 0.568827
C3    C     C_R   0.174972 0.502563 0.099037 0.570412
C4    C     C_R   0.768440 0.414473 0.161822 0.522009
C5    C     C_R   0.981459 0.344962 0.763416 0.635415
C6    C     C_R   0.245179 0.555176 0.081151 -0.175286
C7    C     C_R   0.926246 0.274537 0.768580 -0.205424
C8    C     C_R   0.244418 0.535224 0.752574 -0.255134
C9    C     C_R   0.051360 0.226278 0.980737 -0.049178
C10   C     C_R   0.009226 0.137778 0.659824 0.430243
C11   C     C_R   0.933139 0.189987 0.698951 -0.209056
C12   C     C_R   0.776028 0.429942 0.234616 -0.146508
C13   C     C_R   0.859562 0.156237 0.681763 0.521601
C14   C     C_R   0.866436 0.072755 0.615256 -0.235736
C15   C     C_R   0.946513 0.024169 0.570170 -0.096184
C16   C     C_R   0.810564 0.553002 0.948389 -0.137362
C17   C     C_R   0.012733 0.051358 0.599934 -0.226571
C18   C     C_R   0.796835 0.036097 0.591140 0.502574
C19   C     C_R   0.814040 0.967598 0.511514 0.365608
C20   C     C_R   0.899848 0.929122 0.458489 -0.203957
C21   C     C_R   0.962827 0.951210 0.492806 -0.096772
C22   C     C_R   0.045060 0.905136 0.447514 -0.237460
C23   C     C_R   0.729486 0.533070 0.995061 -0.043757
C24   C     C_R   0.099567 0.919750 0.489072 0.499587
C25   C     C_R   0.081918 0.991673 0.566323 0.497019
C26   C     C_R   0.925694 0.868862 0.373662 0.490453
C27   C     C_R   0.008368 0.826978 0.328932 -0.231070
C28   C     C_R   0.989248 0.667939 0.246848 0.653551
C29   C     C_R   0.068753 0.845363 0.363484 0.441054
C30   C     C_R   0.373668 0.445079 0.644003 0.391451
C31   C     C_R   0.324885 0.522750 0.679423 -0.245346
C32   C     C_R   0.358030 0.591783 0.654024 0.578636
C33   C     C_R   0.442797 0.581577 0.589978 -0.253542
C34   C     C_R   0.023872 0.749995 0.251199 -0.211422
C35   C     C_R   0.488447 0.499237 0.547188 -0.110284
C36   C     C_R   0.456703 0.433106 0.577531 -0.195938
C37   C     C_R   0.484416 0.652360 0.568632 0.511079
C38   C     C_R   0.563382 0.636875 0.497262 0.437923
C39   C     C_R   0.595792 0.549060 0.442860 -0.241935
C40   C     C_R   0.738903 0.473756 0.021977 0.520169
C41   C     C_R   0.564038 0.481891 0.471838 -0.095050
C42   C     C_R   0.605635 0.396787 0.424223 -0.193802
C43   C     C_R   0.577154 0.334146 0.459349 0.444520
C44   C     C_R   0.508843 0.356512 0.539262 0.431900
C45   C     C_R   0.241404 0.579613 0.023934 0.582448
C46   C     C_R   0.658780 0.527058 0.360389 0.507301
C47   C     C_R   0.699936 0.443474 0.313306 -0.281168
C48   C     C_R   0.675194 0.378716 0.344439 0.425953
C49   C     C_R   0.649222 0.556159 0.000329 -0.228899
C50   C     C_R   0.326270 0.550502 0.086498 -0.207728
C51   C     C_R   0.418999 0.611332 0.161396 0.472139
C52   C     C_R   0.061180 0.745823 0.169993 0.619150
C53   C     C_R   0.334601 0.593063 0.162923 0.430265
C54   C     C_R   0.399505 0.514936 0.010078 0.509129
C55   C     C_R   0.482908 0.540463 0.006902 -0.323380
C56   C     C_R   0.908223 0.273409 0.842984 0.564540
C57   C     C_R   0.493525 0.582055 0.083351 -0.307204
C58   C     C_R   0.578657 0.591411 0.079273 0.668980
C59   C     C_R   0.639859 0.533921 0.926526 0.454194
C60   C     C_R   0.556097 0.528441 0.930140 0.447604
C61   C     C_R   0.892532 0.187590 0.122586 -0.002002
C62   C     C_R   0.951668 0.858577 0.000965 -0.182838
C63   C     C_R   0.861268 0.950496 0.995316 0.565308
C64   C     C_R   0.850129 0.480281 0.234657 0.659457
C65   C     C_R   0.885825 0.866969 0.979261 0.305764
C66   C     C_R   0.972822 0.936137 0.058602 0.587416
C67   C     C_R   0.164371 0.496281 0.754775 0.670056
C68   C     C_R   0.954657 0.019889 0.070369 -0.306262
C69   C     C_R   0.892770 0.028204 0.044097 -0.341246
C70   C     C_R   0.860711 0.114027 0.072740 0.544885
C71   C     C_R   0.955948 0.179908 0.145303 0.373603
C72   C     C_R   0.991697 0.096336 0.114358 0.430984
C73   C     C_R   0.965866 0.686876 0.929957 0.440727
C74   C     C_R   0.988296 0.770562 0.976162 -0.103891
C75   C     C_3   0.186566 0.444507 0.615818 -0.057805
C76   C     C_3   0.383161 0.589712 0.823120 0.000081
C77   C     C_3   0.981208 0.340813 0.643790 -0.133403
C78   C     C_R   0.065220 0.307312 0.035857 0.468676
C79   C     C_3   0.673175 0.025328 0.698446 0.051022
C80   C     C_3   0.647124 0.324334 0.170116 0.194104
C81   C     C_3   0.149858 0.793949 0.472239 -0.043856
C82   C     C_3   0.084933 0.985373 0.678470 -0.013334
C83   C     C_3   0.279578 0.720295 0.762054 0.068406
C84   C     C_3   0.481866 0.783331 0.677679 -0.128393
C85   C     C_3   0.687045 0.721062 0.487059 0.068014
C86   C     C_3   0.624831 0.594015 0.298763 -0.001600
C87   C     C_3   0.567833 0.186922 0.384717 0.064230
C88   C     C_3   0.538246 0.332775 0.629983 0.123177
C89   C     C_R   0.987971 0.241188 0.963106 0.414519
C90   C     C_3   0.636477 0.706542 0.160350 -0.142361
C91   C     C_3   0.735234 0.434213 0.802538 0.048198
C92   C     C_3   0.413209 0.749305 0.263736 -0.089898
C93   C     C_3   0.253458 0.574487 0.284185 -0.003220
C94   C     C_3   0.969847 0.673320 0.373915 -0.130621
C95   C     C_3   0.953971 0.262008 0.275258 0.034022
C96   C     C_3   0.844101 0.934667 0.881643 0.024206
C97   C     C_3   0.118246 0.888090 0.195689 0.065266
C98   C     C_3   0.861582 0.476097 0.346846 -0.035735
C99   C     C_3   0.317275 0.711747 0.060630 -0.058585
Cl1   Cl    Cl    0.144421 0.810140 0.991996 -0.562711
Cl2   Cl    Cl    0.174271 0.794053 0.297406 -0.675032
Cl3   Cl    Cl    0.324029 0.360621 0.679656 -0.565807
Cl4   Cl    Cl    0.734417 0.277210 0.281831 -0.678554
Cl5   Cl    Cl    0.547142 0.518112 0.840212 -0.663350
Cl6   Cl    Cl    0.384252 0.428759 0.922302 -0.551874
Cl7   Cl    Cl    0.774122 0.135700 0.057807 -0.462191
Cl8   Cl    Cl    0.090380 0.090022 0.120702 -0.504248
Cl9   Cl    Cl    0.813204 0.780914 0.955497 -0.594382
Cl10  Cl    Cl    0.974691 0.931620 0.146121 -0.581909
Cl11  Cl    Cl    0.653692 0.407318 0.056299 -0.597558
Cl12  Cl    Cl    0.805233 0.239850 0.900008 -0.448053
Cl13  Cl    Cl    0.974009 0.654598 0.828078 -0.553935
Cl14  Cl    Cl    0.143833 0.314282 0.072096 -0.467442
Cl15  Cl    Cl    0.950078 0.153053 0.895883 -0.647890
Cl16  Cl    Cl    0.117768 0.504902 0.200094 -0.572747
Cl17  Cl    Cl    0.102985 0.184641 0.680162 -0.569997
Cl18  Cl    Cl    0.764099 0.224546 0.738588 -0.623270
Cl19  Cl    Cl    0.721973 0.930454 0.487174 -0.508279
Cl20  Cl    Cl    0.862892 0.849120 0.316038 -0.547643
H1    H     H_    0.826115 0.591797 0.913474 0.257971
H2    H     H_    0.994309 0.382561 0.609884 0.166561
H3    H     H_    0.708044 0.040910 0.739045 0.123138
H4    H     H_    0.671567 0.952470 0.663146 0.061450
H5    H     H_    0.604403 0.049953 0.740304 0.180312
H6    H     H_    0.607379 0.386425 0.215904 0.023870
H7    H     H_    0.647768 0.285418 0.202082 0.143598
H8    H     H_    0.613206 0.283315 0.129235 0.190268
H9    H     H_    0.092972 0.759354 0.458839 0.074713
H10   H     H_    0.136048 0.812603 0.538474 0.112281
H11   H     H_    0.206246 0.746372 0.432319 0.167144
H12   H     H_    0.224726 0.388207 0.601455 0.144027
H13   H     H_    0.052284 0.920527 0.663565 0.028979
H14   H     H_    0.034540 0.038080 0.727530 0.182559
H15   H     H_    0.129550 0.984172 0.705127 0.184360
H16   H     H_    0.273422 0.786908 0.767200 0.160432
H17   H     H_    0.328900 0.724505 0.785888 0.117618
H18   H     H_    0.214181 0.704930 0.802673 0.150882
H19   H     H_    0.439786 0.842987 0.726511 0.171397
H20   H     H_    0.548770 0.806262 0.649392 0.140550
H21   H     H_    0.482348 0.743661 0.709825 0.075058
H22   H     H_    0.740184 0.722932 0.428422 0.217206
H23   H     H_    0.229768 0.495152 0.596887 0.143153
H24   H     H_    0.705728 0.669989 0.498489 0.012081
H25   H     H_    0.685163 0.786018 0.539177 0.108724
H26   H     H_    0.555871 0.602299 0.346979 0.128600
H27   H     H_    0.631232 0.535315 0.239792 0.125472
H28   H     H_    0.639738 0.652773 0.284778 0.192445
H29   H     H_    0.552887 0.201527 0.341835 0.095413
H30   H     H_    0.505994 0.177813 0.434234 0.144664
H31   H     H_    0.605509 0.123330 0.346777 0.171022
H32   H     H_    0.514093 0.400299 0.680024 0.128317
H33   H     H_    0.610402 0.332488 0.592872 0.090938
H34   H     H_    0.149163 0.417554 0.576636 0.138639
H35   H     H_    0.525614 0.288613 0.661485 0.193931
H36   H     H_    0.624121 0.745868 0.227354 0.177556
H37   H     H_    0.612954 0.747733 0.141941 0.133396
H38   H     H_    0.708395 0.694477 0.123507 0.156502
H39   H     H_    0.680338 0.395245 0.788120 0.176886
H40   H     H_    0.757103 0.406938 0.833189 0.153601
H41   H     H_    0.791027 0.427101 0.741964 0.158677
H42   H     H_    0.342125 0.764208 0.290845 0.218779
H43   H     H_    0.450233 0.772143 0.212778 0.096923
H44   H     H_    0.435806 0.787861 0.314364 0.172600
H45   H     H_    0.422724 0.596669 0.763424 0.066195
H46   H     H_    0.296847 0.601564 0.317529 0.131896
H47   H     H_    0.266922 0.502260 0.244086 0.147088
H48   H     H_    0.185253 0.582563 0.333146 0.145673
H49   H     H_    0.940605 0.739178 0.423199 0.096797
H50   H     H_    0.042706 0.672551 0.347432 0.194245
H51   H     H_    0.947931 0.629352 0.406487 0.140984
H52   H     H_    0.982943 0.209752 0.276829 0.148904
H53   H     H_    0.881246 0.259197 0.304214 0.138007
H54   H     H_    0.972736 0.326591 0.314654 0.136386
H55   H     H_    0.861231 0.863002 0.843814 0.135103
H56   H     H_    0.383623 0.519737 0.813334 0.180675
H57   H     H_    0.904174 0.973924 0.866332 0.127364
H58   H     H_    0.799056 0.950850 0.862806 0.170021
H59   H     H_    0.154459 0.898179 0.233456 0.122798
H60   H     H_    0.049502 0.913328 0.236361 0.164385
H61   H     H_    0.150784 0.928960 0.159929 0.214099
H62   H     H_    0.831629 0.412247 0.345063 0.145326
H63   H     H_    0.812946 0.532020 0.390119 0.091690
H64   H     H_    0.910280 0.485737 0.372545 0.137852
H65   H     H_    0.383266 0.687679 0.041547 0.095072
H66   H     H_    0.274310 0.726270 0.127421 0.178434
H67   H     H_    0.416428 0.628971 0.864953 0.209980
H68   H     H_    0.326301 0.775196 0.054831 0.191158
H69   H     H_    0.914955 0.313691 0.651818 0.141192
H70   H     H_    0.032598 0.287332 0.604172 0.132896
N1    N     N_R   0.036080 0.671900 0.995420 -0.133644
N2    N     N_R   0.867430 0.509300 0.948100 -0.100782
N3    N     N_R   0.003360 0.617250 0.167070 -0.146923
N4    N     N_R   0.825450 0.461270 0.995400 -0.104818
N5    N     N_R   0.045340 0.665280 0.119770 -0.150899
N6    N     N_R   0.883740 0.497640 0.167070 -0.133000
N7    N     N_R   0.987050 0.628910 0.948110 -0.140122
N8    N     N_R   0.174550 0.538730 0.004600 -0.121986
N9    N     N_R   0.954660 0.334720 0.880230 -0.128903
N10   N     N_R   0.116260 0.502360 0.832930 -0.129559
N11   N     N_R   0.012950 0.371090 0.051890 -0.132037
N12   N     N_R   0.963920 0.328100 0.004580 -0.117165
N13   N     N_R   0.165290 0.545350 0.880240 -0.121699
N14   N     N_R   0.132570 0.490700 0.051900 -0.146083
N15   N     N_R   0.996640 0.382750 0.832930 -0.119195
N16   N     N_R   0.834710 0.454650 0.119760 -0.139624
Ni1   Ni    Ni4+2 0.104370 0.604370 0.000010 0.314355
Ni2   Ni    Ni4+2 0.895630 0.395630 0.999990 0.335001
Ni3   Ni    Ni4+2 0.991920 0.505780 0.891500 0.303256
Ni4   Ni    Ni4+2 0.008080 0.494220 0.108500 0.315414
O1    O     O_3   0.126785 0.483041 0.700967 -0.549303
O2    O     O_3   0.605782 0.708282 0.480422 -0.555962
O3    O     O_3   0.685941 0.588826 0.326673 -0.636792
O4    O     O_3   0.619436 0.253064 0.419909 -0.565961
O5    O     O_3   0.493425 0.300623 0.577604 -0.568991
O6    O     O_3   0.592206 0.625830 0.151912 -0.593029
O7    O     O_3   0.712442 0.524543 0.852487 -0.585719
O8    O     O_3   0.428512 0.658657 0.235917 -0.590652
O9    O     O_3   0.260349 0.621729 0.238107 -0.557411
O10   O     O_3   0.937746 0.642538 0.311644 -0.595131
O11   O     O_3   0.986466 0.255829 0.192945 -0.531494
O12   O     O_3   0.297676 0.625583 0.861520 -0.589033
O13   O     O_3   0.800807 0.955347 0.968449 -0.533978
O14   O     O_3   0.124686 0.798958 0.137697 -0.579712
O15   O     O_3   0.906292 0.472706 0.265299 -0.544194
O16   O     O_3   0.279457 0.651911 0.006321 -0.566475
O17   O     O_3   0.983934 0.394373 0.722280 -0.563549
O18   O     O_3   0.711387 0.067660 0.643648 -0.530236
O19   O     O_3   0.733403 0.338478 0.118557 -0.532845
O20   O     O_3   0.173760 0.868276 0.453372 -0.543129
O21   O     O_3   0.134636 0.002402 0.606540 -0.535721
O22   O     O_3   0.302852 0.659130 0.677445 -0.599083
O23   O     O_3   0.447867 0.736947 0.616742 -0.547704

loop_
_geom_bond_atom_site_label_1
_geom_bond_atom_site_label_2
_ccdc_geom_bond_type
C61   C70   A    
C92   H42   S    
C37   O23   S    
C66   C68   A    
C63   C65   A    
C75   O1    S    
C82   H15   S    
C93   H46   S    
N4    Ni2   S    
C6    C45   A    
C27   C29   A    
C3    N14   A    
C41   C42   A    
C14   C18   A    
C89   N12   A    
C35   C36   A    
C2    N13   A    
C99   H66   S    
C3    C6    A    
C86   H28   S    
C85   H24   S    
C5    N15   A    
C99   H68   S    
C57   C58   A    
C10   Cl17  S    
C4    N16   A    
C39   C41   A    
C51   O8    S    
C7    C11   S    
C26   C27   A    
C50   C54   A    
C88   O5    S    
C44   O5    S    
C1    C74   A    
C21   C22   A    
C22   C29   A    
C37   C38   A    
C86   O3    S    
N6    Ni4   S    
C67   N10   A    
C16   H1    S    
C94   H50   S    
C38   C39   A    
C12   C64   A    
C23   C49   S    
C80   H6    S    
C10   C17   A    
C45   N8    A    
C23   C40   A    
C64   N6    A    
C28   N3    A    
C5    O17   S    
C64   O15   S    
C67   O1    S    
C18   C19   A    
C73   C74   A    
C98   H64   S    
N10   Ni3   S    
C91   H39   S    
C82   H13   S    
C33   C35   A    
C89   Cl15  S    
N1    Ni1   S    
C63   C69   A    
C19   Cl19  S    
C68   C69   A    
C87   H31   S    
C98   O15   S    
N10   N13   A    
C62   C74   S    
C51   C57   A    
C13   C14   A    
C96   H58   S    
C4    C12   A    
C95   H53   S    
C56   Cl12  S    
C83   H16   S    
C62   C65   A    
N1    N7    A    
N2    Ni3   S    
C58   O6    S    
C61   C71   A    
C87   H30   S    
C82   O21   S    
C32   O22   S    
C84   H19   S    
C59   C60   A    
C81   O20   S    
C55   C60   A    
C88   H33   S    
C63   O13   S    
N8    Ni1   S    
C92   O8    S    
C78   N11   A    
C7    C56   A    
C12   C47   S    
C1    Cl1   S    
C85   O2    S    
C85   H25   S    
C79   O18   S    
C90   O6    S    
C75   H12   S    
C56   N9    A    
C40   N4    A    
N16   Ni2   S    
C27   C34   S    
C87   O4    S    
N5    Ni1   S    
C79   H3    S    
C25   O21   S    
C50   C53   A    
C87   H29   S    
C62   C66   A    
C47   C48   A    
N15   Ni3   S    
C52   N5    A    
C24   C25   A    
C84   H20   S    
C16   N2    A    
C24   O20   S    
C70   Cl7   S    
C9    C89   A    
C5    C7    A    
C77   H2    S    
C59   O7    S    
N11   N12   A    
C97   H61   S    
C40   Cl11  S    
C48   Cl4   S    
C79   H4    S    
C18   O18   S    
C2    O12   S    
C80   O19   S    
C71   O11   S    
C97   O14   S    
C93   O9    S    
C51   C53   A    
N3    N5    A    
C98   H63   S    
C77   O17   S    
C43   C44   A    
N2    N4    A    
C91   O7    S    
C75   H23   S    
C75   H34   S    
C81   H10   S    
C31   C32   A    
N6    N16   A    
C72   Cl8   S    
C68   C72   A    
C30   Cl3   S    
C95   O11   S    
N12   Ni2   S    
C29   Cl2   S    
C65   Cl9   S    
C42   C48   A    
C26   Cl20  S    
C93   H48   S    
C91   H41   S    
C99   O16   S    
C35   C41   A    
C96   H55   S    
C52   O14   S    
C39   C46   A    
C85   H22   S    
C92   H44   S    
N7    Ni3   S    
C93   H47   S    
C28   O10   S    
C96   O13   S    
C55   C57   A    
C81   H9    S    
N9    N15   A    
C38   O2    S    
C88   H32   S    
C22   C24   A    
C76   H45   S    
C78   Cl14  S    
C42   C43   A    
C94   H49   S    
C43   O4    S    
C86   H26   S    
C83   H18   S    
C76   H67   S    
C83   O22   S    
C73   Cl13  S    
C99   H65   S    
C92   H43   S    
C53   O9    S    
C15   C17   A    
C54   C55   A    
C96   H57   S    
C54   Cl6   S    
N9    Ni2   S    
C8    C31   S    
C91   H40   S    
C76   H56   S    
C2    C8    A    
C86   H27   S    
C20   C26   A    
C13   Cl18  S    
C80   H8    S    
C76   O12   S    
C16   C23   A    
C79   H5    S    
C19   C20   A    
C34   C52   A    
N11   Ni4   S    
C49   C59   A    
C30   C36   A    
C77   H70   S    
C32   C33   A    
C98   H62   S    
C45   O16   S    
C17   C25   A    
C71   C72   A    
C3    Cl16  S    
C1    N1    A    
C11   C13   A    
C81   H11   S    
C30   C31   A    
C80   H7    S    
C90   H38   S    
C46   O3    S    
C94   O10   S    
C82   H14   S    
C97   H60   S    
N8    N14   A    
C9    C78   A    
C4    O19   S    
C66   Cl10  S    
C95   H54   S    
C69   C70   A    
C84   O23   S    
C33   C37   A    
N3    Ni4   S    
C46   C47   A    
C36   C44   A    
C10   C11   A    
C49   C58   A    
C28   C34   A    
C97   H59   S    
C6    C50   S    
C15   C21   A    
C20   C21   A    
C84   H21   S    
C8    C67   A    
N13   Ni1   S    
C73   N7    A    
C77   H69   S    
C14   C15   A    
N14   Ni4   S    
C95   H52   S    
C90   H36   S    
C60   Cl5   S    
C90   H37   S    
C94   H51   S    
C88   H35   S    
C83   H17   S    
