data_mof_unit_17331.cif
_audit_creation_date              2012-12-11T15:19:40-0500
_audit_creation_method            fapswitch 2.2
_symmetry_space_group_name_H-M    P1
_symmetry_Int_Tables_number       1
_space_group_crystal_system       triclinic
_cell_length_a                    20.031575
_cell_length_b                    6.865692
_cell_length_c                    18.116924
_cell_angle_alpha                 90.116951
_cell_angle_beta                  104.176587
_cell_angle_gamma                 89.786196
_cell_volume                      2415.73203652

loop_
_atom_site_label
_atom_site_type_symbol
_atom_type_description
_atom_site_fract_x
_atom_site_fract_y
_atom_site_fract_z
_atom_type_partial_charge
O1    O     O_R   0.312200 0.620210 0.189560 -0.552192
O2    O     O_R   0.687800 0.379790 0.810440 -0.527652
O3    O     O_R   0.187800 0.120210 0.310440 -0.526464
O4    O     O_R   0.812200 0.879790 0.689560 -0.526890
O5    O     O_R   0.171590 0.286140 0.165000 -0.533784
O6    O     O_R   0.828410 0.713860 0.835000 -0.537710
O7    O     O_R   0.328410 0.786140 0.335000 -0.533056
O8    O     O_R   0.671590 0.213860 0.665000 -0.537545
C1    C     C_R   0.145496 0.459528 0.143979 0.698300
C2    C     C_R   0.854306 0.540308 0.856276 0.712455
C3    C     C_R   0.354376 0.959440 0.356204 0.729859
C4    C     C_R   0.645634 0.040612 0.643787 0.712286
O9    O     O_R   0.310670 0.290220 0.180540 -0.544346
O10   O     O_R   0.689330 0.709780 0.819460 -0.552389
O11   O     O_R   0.189330 0.790220 0.319460 -0.557786
O12   O     O_R   0.810670 0.209780 0.680540 -0.552463
O13   O     O_R   0.327870 0.124170 0.326080 -0.527748
O14   O     O_R   0.672130 0.875830 0.673920 -0.532580
O15   O     O_R   0.172130 0.624170 0.173920 -0.545191
O16   O     O_R   0.827870 0.375830 0.826080 -0.533134
C5    C     C_R   0.330498 0.459855 0.163252 0.746059
C6    C     C_R   0.667592 0.541024 0.834177 0.768472
C7    C     C_R   0.167628 0.960382 0.334621 0.764986
C8    C     C_R   0.832676 0.040264 0.666299 0.770185
O17   O     O_3   0.255480 0.455050 0.297740 -0.358728
O18   O     O_3   0.744520 0.544950 0.702260 -0.360101
O19   O     O_3   0.244520 0.955050 0.202260 -0.378692
O20   O     O_3   0.755480 0.044950 0.797740 -0.361101
V1    V     V_3+5 0.248980 0.178550 0.241140 1.416206
V2    V     V_3+5 0.751020 0.821450 0.758860 1.443319
V3    V     V_3+5 0.251020 0.678550 0.258860 1.384320
V4    V     V_3+5 0.748980 0.321450 0.741140 1.443375
C9    C     C_R   0.950558 0.106115 0.646043 0.005117
C10   C     C_R   0.052597 0.874961 0.360359 0.023604
C11   C     C_R   0.550911 0.613811 0.857154 0.002683
C12   C     C_R   0.449424 0.400244 0.143627 0.043196
C13   C     C_R   0.883728 0.027584 0.619643 -0.223988
C14   C     C_R   0.116144 0.974672 0.381741 -0.240915
C15   C     C_R   0.617457 0.531400 0.882189 -0.217848
C16   C     C_R   0.381467 0.473142 0.115753 -0.222142
C17   C     C_R   0.866421 0.923322 0.550954 0.417608
C18   C     C_R   0.127336 0.107072 0.442875 0.437726
C19   C     C_R   0.636190 0.433119 0.952216 0.417677
C20   C     C_R   0.363970 0.573186 0.045394 0.402311
C21   C     C_R   0.916305 0.892356 0.508658 -0.123503
C22   C     C_R   0.083705 0.108869 0.493813 -0.114841
C23   C     C_R   0.587601 0.409009 0.996739 -0.123189
C24   C     C_R   0.415144 0.607113 0.005116 -0.110576
C25   C     C_R   0.978013 0.001255 0.526784 -0.140316
C26   C     C_R   0.023692 0.991941 0.477804 -0.121104
C27   C     C_R   0.525268 0.516012 0.977916 -0.139775
C28   C     C_R   0.478565 0.505012 0.025752 -0.135219
C29   C     C_R   0.993743 0.119246 0.593776 -0.056092
C30   C     C_R   0.009149 0.866914 0.412617 -0.028228
C31   C     C_R   0.508941 0.631069 0.910367 -0.071630
C32   C     C_R   0.494473 0.389716 0.093123 -0.029235
C33   C     C_R   0.906448 0.750504 0.450311 0.378140
C34   C     C_R   0.099000 0.229196 0.559471 0.397750
C35   C     C_R   0.599227 0.275567 0.058020 0.375451
C36   C     C_R   0.404527 0.744118 0.945066 0.445139
C37   C     C_R   0.952992 0.734777 0.402922 0.326777
C38   C     C_R   0.052045 0.243915 0.605933 0.366051
C39   C     C_R   0.553688 0.266583 0.106828 0.333199
C40   C     C_R   0.451766 0.760407 0.899599 0.371452
C41   C     C_1   0.583147 0.027860 0.581579 -0.201891
C42   C     C_1   0.416822 0.972530 0.418467 -0.187143
C43   C     C_1   0.916658 0.526878 0.918620 -0.202739
C44   C     C_1   0.082952 0.472333 0.081852 -0.196744
C45   C     C_1   0.530820 0.011289 0.530195 -0.007344
C46   C     C_1   0.469111 0.989442 0.469892 -0.002246
C47   C     C_1   0.968904 0.510089 0.970114 -0.008466
C48   C     C_1   0.030592 0.488528 0.030473 -0.002094
C49   C     C_3   0.975572 0.151169 0.731453 -0.327149
C50   C     C_3   0.984387 0.965033 0.780182 -0.351479
C51   C     C_3   0.995478 0.013917 0.864590 -0.724222
H1    H     H_    0.040741 0.110806 0.883687 0.232603
H2    H     H_    0.949068 0.087069 0.874997 0.233550
H3    H     H_    0.004926 0.877951 0.898630 0.223236
H4    H     H_    0.939177 0.867884 0.763428 0.197559
H5    H     H_    0.029914 0.882740 0.772097 0.203712
H6    H     H_    0.026151 0.221422 0.747991 0.244737
H7    H     H_    0.938988 0.253389 0.748636 0.167112
C52   C     C_3   0.027206 0.819250 0.276182 -0.329520
C53   C     C_3   0.011851 0.001468 0.225233 -0.344565
C54   C     C_3   0.992029 0.946813 0.140965 -0.752398
H8    H     H_    0.035560 0.870860 0.125130 0.237218
H9    H     H_    0.946129 0.850685 0.128382 0.223785
H10   H     H_    0.979699 0.080804 0.105958 0.224102
H11   H     H_    0.968676 0.084223 0.239159 0.200948
H12   H     H_    0.056932 0.099765 0.234876 0.197608
H13   H     H_    0.065408 0.723838 0.258601 0.170948
H14   H     H_    0.979088 0.737823 0.263020 0.218082
C55   C     C_3   0.524312 0.660421 0.772205 -0.331825
C56   C     C_3   0.513876 0.474868 0.722906 -0.352178
C57   C     C_3   0.501238 0.524341 0.638460 -0.715427
H15   H     H_    0.455862 0.622140 0.620574 0.233834
H16   H     H_    0.547201 0.596733 0.627079 0.231243
H17   H     H_    0.491251 0.388609 0.604177 0.224671
H18   H     H_    0.558947 0.375943 0.738308 0.195904
H19   H     H_    0.468566 0.394379 0.732043 0.207824
H20   H     H_    0.473807 0.733217 0.757963 0.240440
H21   H     H_    0.560581 0.761156 0.754189 0.169244
C58   C     C_3   0.474611 0.365047 0.229389 -0.328039
C59   C     C_3   0.485941 0.558445 0.273550 -0.348799
C60   C     C_3   0.507825 0.523277 0.359323 -0.751768
H22   H     H_    0.466357 0.446852 0.378661 0.238772
H23   H     H_    0.555692 0.434394 0.374260 0.224164
H24   H     H_    0.517954 0.664879 0.389540 0.224563
H25   H     H_    0.526872 0.642710 0.256149 0.207103
H26   H     H_    0.438509 0.648533 0.260939 0.208025
H27   H     H_    0.437769 0.271542 0.249809 0.173626
H28   H     H_    0.523979 0.289272 0.245894 0.220059
O21   O     O_3   0.801824 0.839334 0.528722 -0.527041
C61   C     C_3   0.757408 0.969988 0.480037 -0.191657
H29   H     H_    0.776114 0.002991 0.428401 0.126513
H30   H     H_    0.750489 0.106779 0.510417 0.096357
H31   H     H_    0.706086 0.900938 0.460797 0.158469
O22   O     O_3   0.178951 0.244292 0.449454 -0.533694
C62   C     C_3   0.149303 0.418195 0.413564 -0.091896
H32   H     H_    0.103603 0.467068 0.433283 0.106083
H33   H     H_    0.133328 0.402418 0.350748 0.128740
H34   H     H_    0.188344 0.535242 0.427259 0.147760
O23   O     O_3   0.701067 0.349646 0.974036 -0.528438
C63   C     C_3   0.745795 0.483761 0.020287 -0.190503
H35   H     H_    0.750300 0.620015 0.988680 0.096244
H36   H     H_    0.797857 0.417369 0.037619 0.157230
H37   H     H_    0.728993 0.517661 0.073103 0.129831
O24   O     O_3   0.295267 0.602993 0.008245 -0.549089
C64   C     C_3   0.266888 0.765580 0.037716 -0.089006
H38   H     H_    0.305235 0.858899 0.077149 0.108231
H39   H     H_    0.227445 0.714928 0.066472 0.135556
H40   H     H_    0.239172 0.857391 0.989547 0.163929
O25   O     O_3   0.851307 0.623669 0.439521 -0.533593
C65   C     C_3   0.870749 0.459194 0.486475 -0.166845
H41   H     H_    0.829657 0.348484 0.470422 0.135239
H42   H     H_    0.875545 0.496884 0.547138 0.146987
H43   H     H_    0.919109 0.391396 0.478685 0.134021
O26   O     O_3   0.165227 0.304852 0.584420 -0.520734
C66   C     C_3   0.165444 0.510091 0.591643 -0.049365
H44   H     H_    0.119346 0.582972 0.555243 0.075925
H45   H     H_    0.211014 0.567463 0.574338 0.137204
H46   H     H_    0.171622 0.551544 0.652162 0.180840
O27   O     O_3   0.655369 0.150832 0.070715 -0.532988
C67   C     C_3   0.636332 0.977086 0.029284 -0.166987
H47   H     H_    0.678183 0.868860 0.048131 0.135153
H48   H     H_    0.630616 0.001719 0.967520 0.145168
H49   H     H_    0.588593 0.912353 0.039755 0.133612
O28   O     O_3   0.348178 0.868293 0.931169 -0.516146
C68   C     C_3   0.366934 0.045884 0.970544 -0.171549
H50   H     H_    0.402466 0.026254 0.027983 0.099758
H51   H     H_    0.319758 0.118107 0.978993 0.153260
H52   H     H_    0.389491 0.147368 0.935951 0.173874
O29   O     O_3   0.952983 0.567674 0.359078 -0.569080
C69   C     C_3   0.888919 0.538428 0.305932 -0.229833
H53   H     H_    0.898910 0.477756 0.252825 0.126470
H54   H     H_    0.858415 0.674917 0.290256 0.132793
H55   H     H_    0.858328 0.427317 0.327383 0.185536
O30   O     O_3   0.064392 0.385307 0.662051 -0.556953
C70   C     C_3   0.018086 0.542313 0.639676 -0.309410
H56   H     H_    0.969084 0.514695 0.655926 0.147425
H57   H     H_    0.007880 0.575552 0.577809 0.121486
H58   H     H_    0.041342 0.674766 0.670314 0.174572
O31   O     O_3   0.558487 0.110944 0.157042 -0.564577
C71   C     C_3   0.623148 0.105752 0.210849 -0.229600
H59   H     H_    0.615081 0.054964 0.266116 0.127733
H60   H     H_    0.648897 0.250503 0.221124 0.128522
H61   H     H_    0.657524 0.997010 0.193590 0.187720
O32   O     O_3   0.440977 0.910447 0.846896 -0.541282
C72   C     C_3   0.492273 0.053915 0.869782 -0.265774
H62   H     H_    0.539728 0.014272 0.852008 0.137850
H63   H     H_    0.504404 0.082566 0.932070 0.111467
H64   H     H_    0.472833 0.192544 0.841183 0.174295

loop_
_geom_bond_atom_site_label_1
_geom_bond_atom_site_label_2
_ccdc_geom_bond_type
C34   C38   A    
O1    C5    A    
C55   C56   S    
O19   V1    S    
O13   V1    S    
C72   H62   S    
O3    C7    A    
C57   H15   S    
O15   V3    S    
O24   C64   S    
C65   H43   S    
C61   H29   S    
C57   H17   S    
O23   C63   S    
C54   H8    S    
C39   O31   S    
C52   H14   S    
C60   H23   S    
C21   C33   A    
C26   C30   A    
C12   C58   S    
O9    V1    S    
C71   H59   S    
C14   C18   A    
C4    C41   S    
C68   H51   S    
C18   C22   A    
C59   H25   S    
O4    C8    A    
C66   H46   S    
C25   C29   A    
C54   H10   S    
C43   C47   T    
C6    C15   S    
O27   C67   S    
O1    V3    S    
O2    V4    S    
C49   C50   S    
O3    V1    S    
O22   C62   S    
C12   C16   A    
C1    O15   A    
C20   O24   S    
O31   C71   S    
C2    O16   A    
O2    C6    A    
C70   H57   S    
O14   V2    S    
C21   C25   A    
C16   C20   A    
C69   H54   S    
C3    C42   S    
C44   C48   T    
C64   H40   S    
C34   O26   S    
O11   C7    A    
C35   O27   S    
O12   C8    A    
C50   H5    S    
C22   C34   A    
C9    C29   A    
C72   H63   S    
C33   O25   S    
C56   C57   S    
C53   H12   S    
O10   V2    S    
C67   H49   S    
C49   H6    S    
C59   C60   S    
C24   C36   A    
O5    V1    S    
C54   H9    S    
O17   V1    S    
C60   H24   S    
C32   C39   A    
O7    V3    S    
C50   C51   S    
C11   C31   A    
C27   C28   A    
O8    V4    S    
O20   V4    S    
C53   C54   S    
C69   H55   S    
C67   H48   S    
C68   H52   S    
C55   H20   S    
O18   V4    S    
C18   O22   S    
C15   C19   A    
C2    C43   S    
O19   V3    S    
C9    C13   A    
C58   H28   S    
O30   C70   S    
O7    C3    A    
C51   H1    S    
O5    C1    A    
C12   C32   A    
C29   C38   A    
C11   C55   S    
C61   H30   S    
C70   H56   S    
C56   H19   S    
O8    C4    A    
C31   C40   A    
C38   O30   S    
C8    C13   S    
C70   H58   S    
O9    C5    A    
O28   C68   S    
C33   C37   A    
C51   H2    S    
C69   H53   S    
C62   H33   S    
C63   H37   S    
C9    C49   S    
O32   C72   S    
O6    V2    S    
C10   C30   A    
C50   H4    S    
O25   C65   S    
C72   H64   S    
C52   C53   S    
C53   H11   S    
C19   O23   S    
C49   H7    S    
C66   H44   S    
C63   H36   S    
O21   C61   S    
O16   V4    S    
C62   H34   S    
C3    O13   A    
C10   C14   A    
O17   V3    S    
C71   H61   S    
C17   O21   S    
C67   H47   S    
C30   C37   A    
C37   O29   S    
C55   H21   S    
O6    C2    A    
C23   C27   A    
C62   H32   S    
C57   H16   S    
O11   V3    S    
C65   H41   S    
C58   H27   S    
O12   V4    S    
C7    C14   S    
C52   H13   S    
C60   H22   S    
C22   C26   A    
C35   C39   A    
C36   C40   A    
O10   C6    A    
C71   H60   S    
C64   H38   S    
C1    C44   S    
C47   C48   S    
C40   O32   S    
C68   H50   S    
C59   H26   S    
C66   H45   S    
C42   C46   T    
C5    C16   S    
C56   H18   S    
C41   C45   T    
C11   C15   A    
O20   V2    S    
C65   H42   S    
C27   C31   A    
C13   C17   A    
C45   C46   S    
C51   H3    S    
C61   H31   S    
O26   C66   S    
C23   C35   A    
C20   C24   A    
C24   C28   A    
C25   C26   A    
C10   C52   S    
C4    O14   A    
C58   C59   S    
C17   C21   A    
C36   O28   S    
O29   C69   S    
C19   C23   A    
O4    V2    S    
C28   C32   A    
C63   H35   S    
C64   H39   S    
O18   V2    S    
