data_mof_unit_9120.cif
_audit_creation_date              2012-12-11T15:29:39-0500
_audit_creation_method            fapswitch 2.2
_symmetry_space_group_name_H-M    P1
_symmetry_Int_Tables_number       1
_space_group_crystal_system       triclinic
_cell_length_a                    21.423372
_cell_length_b                    7.246144
_cell_length_c                    14.767833
_cell_angle_alpha                 90.492826
_cell_angle_beta                  74.40463
_cell_angle_gamma                 89.859921
_cell_volume                      2208.00265408

loop_
_atom_site_label
_atom_site_type_symbol
_atom_type_description
_atom_site_fract_x
_atom_site_fract_y
_atom_site_fract_z
_atom_type_partial_charge
O1    O     O_R   0.464160 0.506670 0.130070 -0.539987
O2    O     O_R   0.535840 0.006670 0.869930 -0.539389
O3    O     O_R   0.589710 0.179080 0.006710 -0.521766
O4    O     O_R   0.410290 0.679080 0.993290 -0.521702
C1    C     C_R   0.616257 0.344258 0.002363 0.680793
C2    C     C_R   0.383756 0.844527 0.997576 0.681327
O5    O     O_R   0.467940 0.177220 0.138010 -0.535075
O6    O     O_R   0.532060 0.677220 0.861990 -0.535636
O7    O     O_R   0.413200 0.002810 0.002170 -0.549673
O8    O     O_R   0.586800 0.502810 0.997830 -0.549357
C3    C     C_R   0.456263 0.346512 0.174350 0.683884
C4    C     C_R   0.543787 0.844549 0.825570 0.683503
O9    O     O_3   0.482180 0.337850 0.955280 -0.373937
O10   O     O_3   0.517820 0.837850 0.044720 -0.374263
V1    V     V_3+5 0.503310 0.064600 0.008300 1.439888
V2    V     V_3+5 0.496690 0.564600 0.991700 1.440048
C5    C     C_R   0.571507 0.848038 0.723854 -0.027771
C6    C     C_R   0.428359 0.359334 0.275871 -0.026262
C7    C     C_R   0.928358 0.870410 0.276319 -0.027456
C8    C     C_R   0.071745 0.359018 0.723984 -0.027015
C9    C     C_R   0.560271 0.799516 0.567277 -0.162835
C10   C     C_R   0.438964 0.436323 0.430178 -0.162517
C11   C     C_R   0.532609 0.811329 0.663834 -0.166442
C12   C     C_R   0.466891 0.410777 0.334323 -0.161529
C13   C     C_R   0.638265 0.872257 0.687506 -0.217033
C14   C     C_R   0.361749 0.333901 0.313006 -0.218043
C15   C     C_R   0.668051 0.856487 0.589719 0.084310
C16   C     C_R   0.331726 0.362402 0.409971 0.085035
C17   C     C_R   0.627429 0.819970 0.529911 0.136816
C18   C     C_R   0.371940 0.414062 0.468254 0.133855
C19   C     C_R   0.736547 0.872191 0.549696 0.060313
C20   C     C_R   0.263395 0.343957 0.450569 0.061393
C21   C     C_R   0.763122 0.850361 0.450266 0.054932
C22   C     C_R   0.236591 0.377408 0.549121 0.053496
C23   C     C_R   0.720272 0.815491 0.394144 -0.184207
C24   C     C_R   0.278983 0.428244 0.603713 -0.189069
C25   C     C_R   0.653985 0.801216 0.433347 -0.193742
C26   C     C_R   0.345108 0.445584 0.563926 -0.196659
C27   C     C_R   0.779353 0.908150 0.605759 -0.193048
C28   C     C_R   0.220972 0.293839 0.395910 -0.192463
C29   C     C_R   0.845653 0.922001 0.566587 -0.205863
C30   C     C_R   0.154871 0.276143 0.435707 -0.205570
C31   C     C_R   0.872269 0.901696 0.470114 0.142965
C32   C     C_R   0.128086 0.306578 0.531461 0.142872
C33   C     C_R   0.831660 0.865002 0.410306 0.083969
C34   C     C_R   0.168290 0.358199 0.589770 0.083516
C35   C     C_R   0.939484 0.920790 0.432829 -0.163502
C36   C     C_R   0.061119 0.283257 0.569575 -0.162836
C37   C     C_R   0.967232 0.907353 0.336347 -0.174063
C38   C     C_R   0.033234 0.307623 0.665502 -0.174721
C39   C     C_R   0.861527 0.847574 0.312604 -0.214005
C40   C     C_R   0.138301 0.385575 0.686822 -0.215305
H1    H     H_    0.623160 0.773415 0.387400 0.128752
H2    H     H_    0.375588 0.485450 0.608684 0.136407
H3    H     H_    0.834453 0.821984 0.262040 0.091779
H4    H     H_    0.165081 0.422846 0.736329 0.091711
H5    H     H_    0.018922 0.927529 0.308340 0.099133
H6    H     H_    0.981740 0.285100 0.694295 0.099552
H7    H     H_    0.876451 0.950455 0.612499 0.119673
H8    H     H_    0.124379 0.236669 0.390905 0.119048
H9    H     H_    0.529243 0.770975 0.521761 0.114053
H10   H     H_    0.469685 0.476292 0.474508 0.114205
H11   H     H_    0.480967 0.790278 0.691887 0.115181
H12   H     H_    0.518427 0.432578 0.305546 0.107653
H13   H     H_    0.665369 0.897398 0.738079 0.088388
H14   H     H_    0.334973 0.296469 0.263524 0.087875
H15   H     H_    0.736159 0.797629 0.319041 0.125598
H16   H     H_    0.262844 0.456715 0.677994 0.133462
H17   H     H_    0.763412 0.927435 0.680777 0.118266
H18   H     H_    0.237059 0.266322 0.321547 0.117305
H19   H     H_    0.970501 0.949519 0.478339 0.111917
H20   H     H_    0.030413 0.243354 0.525210 0.112235
C41   C     C_3   0.228467 0.776761 0.907016 -0.366260
C42   C     C_3   0.771751 0.279712 0.092717 -0.362169
H21   H     H_    0.210506 0.635672 0.897911 0.145748
H22   H     H_    0.790133 0.139080 0.101575 0.149440
H23   H     H_    0.222237 0.859484 0.846856 0.113534
H24   H     H_    0.777671 0.364442 0.153067 0.112015
C43   C     C_3   0.301784 0.770885 0.904678 0.228077
C44   C     C_3   0.698465 0.273117 0.094962 0.233550
H25   H     H_    0.328473 0.859660 0.845883 0.097318
H26   H     H_    0.671436 0.363170 0.154051 0.095501
H27   H     H_    0.181432 0.601861 0.076642 0.144407
H28   H     H_    0.819233 0.099993 0.922636 0.143362
H29   H     H_    0.287281 0.599067 0.083038 0.138171
H30   H     H_    0.713396 0.096546 0.916096 0.135506
C45   C     C_3   0.197679 0.746013 0.082975 -0.337467
C46   C     C_3   0.802628 0.243911 0.916648 -0.338592
C47   C     C_3   0.214297 0.060552 0.009834 -0.324266
C48   C     C_3   0.785284 0.560501 0.990618 -0.326109
C49   C     C_3   0.187366 0.863417 0.000684 0.086777
C50   C     C_3   0.812664 0.363812 0.999250 0.085868
H31   H     H_    0.186332 0.126713 0.076833 0.146423
H32   H     H_    0.813059 0.624796 0.923759 0.148765
H33   H     H_    0.208412 0.148808 0.951301 0.144570
H34   H     H_    0.790994 0.650456 0.049350 0.141849
C51   C     C_3   0.312527 0.851775 0.998056 0.067337
C52   C     C_3   0.687513 0.351414 0.001854 0.066283
C53   C     C_3   0.270150 0.744039 0.083312 -0.335874
C54   C     C_3   0.730158 0.241568 0.916276 -0.339671
C55   C     C_3   0.286746 0.053960 0.007812 -0.396955
C56   C     C_3   0.712829 0.553536 0.992723 -0.395377
H35   H     H_    0.315011 0.137768 0.947990 0.150858
H36   H     H_    0.684377 0.638808 0.052849 0.149477
H37   H     H_    0.293059 0.118360 0.073496 0.152412
H38   H     H_    0.706315 0.616278 0.927279 0.155785
H39   H     H_    0.167697 0.802828 0.151103 0.129360
H40   H     H_    0.832476 0.298780 0.848642 0.129140
H41   H     H_    0.274933 0.808083 0.149882 0.136853
H42   H     H_    0.725210 0.303802 0.849894 0.137584
O11   O     O_R   0.913210 0.208550 0.002110 -0.539080
O12   O     O_R   0.086790 0.708550 0.997890 -0.539340
O13   O     O_R   0.032060 0.539960 0.861980 -0.538586
O14   O     O_R   0.967940 0.039960 0.138020 -0.538403
C57   C     C_R   0.043813 0.371598 0.825488 0.687487
C58   C     C_R   0.956154 0.873574 0.174606 0.687511
O15   O     O_R   0.910290 0.538020 0.993280 -0.545870
O16   O     O_R   0.089710 0.038020 0.006720 -0.545647
O17   O     O_R   0.964160 0.712340 0.130090 -0.535744
O18   O     O_R   0.035840 0.212340 0.869910 -0.535423
C59   C     C_R   0.884038 0.370320 0.997850 0.659461
C60   C     C_R   0.115977 0.870049 0.002134 0.659776
O19   O     O_3   0.017820 0.379210 0.044690 -0.376559
O20   O     O_3   0.982180 0.879210 0.955310 -0.376706
V3    V     V_3+5 0.996690 0.652500 0.991710 1.392355
V4    V     V_3+5 0.003310 0.152500 0.008290 1.394075
O21   O     O_3   0.327502 0.591417 0.884734 -0.648411
H43   H     H_    0.300307 0.505986 0.930920 0.289545
O22   O     O_3   0.673359 0.093888 0.114212 -0.644842
H44   H     H_    0.700929 0.007486 0.067830 0.288801

loop_
_geom_bond_atom_site_label_1
_geom_bond_atom_site_label_2
_ccdc_geom_bond_type
H27   C45   S    
C3    C6    S    
C54   H42   S    
C45   C49   S    
O11   C59   A    
C21   C33   A    
O1    C3    A    
O2    C4    A    
C2    O7    A    
C27   C29   A    
O5    C3    A    
C5    C11   A    
C28   H18   S    
C6    C12   A    
C23   C25   A    
C36   C38   A    
C46   H40   S    
O18   V4    S    
O13   V3    S    
C33   C39   A    
C53   H41   S    
C34   C40   A    
C37   H5    S    
C15   C17   A    
C18   C26   A    
O16   C60   A    
C42   C50   S    
O15   C59   A    
C48   C56   S    
C8    C38   A    
C46   C50   S    
C49   C60   S    
C6    C14   A    
C4    C5    S    
C19   C21   A    
C22   C34   A    
C47   C49   S    
H30   C54   S    
C9    H9    S    
C25   H1    S    
C11   H11   S    
C41   C49   S    
O6    V2    S    
C42   C44   S    
C29   C31   A    
C30   C32   A    
C36   H20   S    
O4    V2    S    
C51   C53   S    
C32   C34   A    
C48   H32   S    
C45   C53   S    
C55   H37   S    
C15   C19   A    
C14   H14   S    
C2    C51   S    
C16   C20   A    
C13   H13   S    
C29   H7    S    
C44   H26   S    
C30   H8    S    
C43   H25   S    
O19   V4    S    
C52   C56   S    
C9    C17   A    
C38   H6    S    
C47   H33   S    
O12   C60   A    
H29   C53   S    
C10   H10   S    
C7    C37   A    
C48   C50   S    
C26   H2    S    
C23   H15   S    
O6    C4    A    
O11   V4    S    
C27   H17   S    
O1    V2    S    
C56   H36   S    
O2    V1    S    
C31   C33   A    
C35   H19   S    
O12   V3    S    
C46   C54   S    
C42   H22   S    
O17   V3    S    
O4    C2    A    
C31   C35   A    
C52   C54   S    
C9    C11   A    
C10   C12   A    
C13   C15   A    
C41   H21   S    
O21   H43   S    
O3    V1    S    
O22   H44   S    
C55   H35   S    
C43   O21   S    
C44   O22   S    
C10   C18   A    
C47   C55   S    
C43   C51   S    
H28   C46   S    
C28   C30   A    
O3    C1    A    
C8    C57   S    
O14   C58   A    
C24   H16   S    
C48   H34   S    
C35   C37   A    
C41   C43   S    
C14   C16   A    
C58   O17   A    
C5    C13   A    
C16   C18   A    
O7    V1    S    
C1    O8    A    
C8    C40   A    
C32   C36   A    
O8    V2    S    
C50   C59   S    
C24   C26   A    
C44   C52   S    
C7    C58   S    
O14   V4    S    
O5    V1    S    
C21   C23   A    
C22   C24   A    
C19   C27   A    
C56   H38   S    
C39   H3    S    
C20   C28   A    
C47   H31   S    
C7    C39   A    
C45   H39   S    
C1    C52   S    
C12   H12   S    
C57   O18   A    
C42   H24   S    
O9    V2    S    
C17   C25   A    
C41   H23   S    
O10   V1    S    
O16   V4    S    
O15   V3    S    
C51   C55   S    
C40   H4    S    
C20   C22   A    
O20   V3    S    
O13   C57   A    
