data_mof_unit_64350.cif
_audit_creation_date              2013-03-05T16:01:24-0500
_audit_creation_method            fapswitch 2.2
_symmetry_space_group_name_H-M    P1
_symmetry_Int_Tables_number       1
_space_group_crystal_system       triclinic
_cell_length_a                    25.960705
_cell_length_b                    36.150832
_cell_length_c                    25.960066
_cell_angle_alpha                 90.003333
_cell_angle_beta                  90.002849
_cell_angle_gamma                 89.999827
_cell_volume                      24363.5500377

loop_
_atom_site_label
_atom_site_type_symbol
_atom_site_description
_atom_site_fract_x
_atom_site_fract_y
_atom_site_fract_z
_atom_type_partial_charge
Zn1   Zn    Zn3+2 0.456630 0.219310 0.706640 1.104702
Zn2   Zn    Zn3+2 0.456630 0.219310 0.293360 1.105109
Zn3   Zn    Zn3+2 0.456630 0.780690 0.293360 1.105750
Zn4   Zn    Zn3+2 0.456630 0.780690 0.706640 1.105066
Zn5   Zn    Zn3+2 0.456630 0.719310 0.206640 1.104747
Zn6   Zn    Zn3+2 0.456630 0.719310 0.793360 1.104573
Zn7   Zn    Zn3+2 0.456630 0.280690 0.793360 1.105314
Zn8   Zn    Zn3+2 0.456630 0.280690 0.206640 1.104947
Zn9   Zn    Zn3+2 0.956630 0.219310 0.206640 1.105036
Zn10  Zn    Zn3+2 0.956630 0.219310 0.793360 1.104499
Zn11  Zn    Zn3+2 0.956630 0.780690 0.793360 1.105360
Zn12  Zn    Zn3+2 0.956630 0.780690 0.206640 1.105308
Zn13  Zn    Zn3+2 0.956630 0.719310 0.706640 1.104874
Zn14  Zn    Zn3+2 0.956630 0.719310 0.293360 1.104515
Zn15  Zn    Zn3+2 0.956630 0.280690 0.293360 1.105209
Zn16  Zn    Zn3+2 0.956630 0.280690 0.706640 1.104960
Zn17  Zn    Zn3+2 0.543380 0.280740 0.706670 1.028317
Zn18  Zn    Zn3+2 0.543380 0.280740 0.293330 1.028322
Zn19  Zn    Zn3+2 0.543380 0.719260 0.293330 1.027329
Zn20  Zn    Zn3+2 0.543380 0.719260 0.706670 1.027767
Zn21  Zn    Zn3+2 0.543380 0.780740 0.206670 1.027873
Zn22  Zn    Zn3+2 0.543380 0.780740 0.793330 1.028682
Zn23  Zn    Zn3+2 0.543380 0.219260 0.793330 1.027671
Zn24  Zn    Zn3+2 0.543380 0.219260 0.206670 1.027296
Zn25  Zn    Zn3+2 0.043380 0.280740 0.206670 1.028106
Zn26  Zn    Zn3+2 0.043380 0.280740 0.793330 1.028796
Zn27  Zn    Zn3+2 0.043380 0.719260 0.793330 1.027441
Zn28  Zn    Zn3+2 0.043380 0.719260 0.206670 1.027356
Zn29  Zn    Zn3+2 0.043380 0.780740 0.706670 1.028138
Zn30  Zn    Zn3+2 0.043380 0.780740 0.293330 1.028419
Zn31  Zn    Zn3+2 0.043380 0.219260 0.293330 1.027618
Zn32  Zn    Zn3+2 0.043380 0.219260 0.706670 1.027948
O1    O     O_3   0.500010 0.250000 0.750000 -0.538087
O2    O     O_3   0.500010 0.250000 0.250000 -0.538195
O3    O     O_3   0.500010 0.750000 0.250000 -0.538254
O4    O     O_3   0.500010 0.750000 0.750000 -0.537977
O5    O     O_3   0.000010 0.250000 0.250000 -0.538151
O6    O     O_3   0.000010 0.250000 0.750000 -0.537963
O7    O     O_3   0.000010 0.750000 0.750000 -0.538145
O8    O     O_3   0.000010 0.750000 0.250000 -0.538092
O9    O     O_R   0.469640 0.332020 0.780410 -0.581505
O10   O     O_R   0.469640 0.332020 0.219590 -0.583361
O11   O     O_R   0.469640 0.667980 0.219590 -0.583905
O12   O     O_R   0.469640 0.667980 0.780410 -0.582564
O13   O     O_R   0.469640 0.832020 0.280410 -0.581990
O14   O     O_R   0.469640 0.832020 0.719590 -0.582121
O15   O     O_R   0.469640 0.167980 0.719590 -0.582750
O16   O     O_R   0.469640 0.167980 0.280410 -0.582755
O17   O     O_R   0.969640 0.332020 0.280410 -0.582156
O18   O     O_R   0.969640 0.332020 0.719590 -0.583135
O19   O     O_R   0.969640 0.667980 0.719590 -0.583399
O20   O     O_R   0.969640 0.667980 0.280410 -0.582809
O21   O     O_R   0.969640 0.832020 0.780410 -0.582166
O22   O     O_R   0.969640 0.832020 0.219590 -0.582283
O23   O     O_R   0.969640 0.167980 0.219590 -0.583096
O24   O     O_R   0.969640 0.167980 0.780410 -0.583329
O25   O     O_R   0.530360 0.271520 0.634240 -0.638312
O26   O     O_R   0.530360 0.271520 0.365760 -0.638400
O27   O     O_R   0.530360 0.728480 0.365760 -0.638672
O28   O     O_R   0.530360 0.728480 0.634240 -0.638570
O29   O     O_R   0.530360 0.771520 0.134240 -0.638343
O30   O     O_R   0.530360 0.771520 0.865760 -0.638252
O31   O     O_R   0.530360 0.228480 0.865760 -0.638566
O32   O     O_R   0.530360 0.228480 0.134240 -0.638597
O33   O     O_R   0.030360 0.271520 0.134240 -0.638424
O34   O     O_R   0.030360 0.271520 0.865760 -0.638309
O35   O     O_R   0.030360 0.728480 0.865760 -0.638700
O36   O     O_R   0.030360 0.728480 0.134240 -0.638737
O37   O     O_R   0.030360 0.771520 0.634240 -0.638376
O38   O     O_R   0.030360 0.771520 0.365760 -0.638251
O39   O     O_R   0.030360 0.228480 0.365760 -0.638431
O40   O     O_R   0.030360 0.228480 0.634240 -0.638487
O41   O     O_R   0.615810 0.271520 0.719700 -0.632982
O42   O     O_R   0.615810 0.271520 0.280300 -0.633275
O43   O     O_R   0.615810 0.728480 0.280300 -0.633476
O44   O     O_R   0.615810 0.728480 0.719700 -0.633293
O45   O     O_R   0.615810 0.771520 0.219700 -0.633251
O46   O     O_R   0.615810 0.771520 0.780300 -0.633091
O47   O     O_R   0.615810 0.228480 0.780300 -0.633138
O48   O     O_R   0.615810 0.228480 0.219700 -0.633295
O49   O     O_R   0.115810 0.271520 0.219700 -0.633297
O50   O     O_R   0.115810 0.271520 0.780300 -0.633242
O51   O     O_R   0.115810 0.728480 0.780300 -0.633320
O52   O     O_R   0.115810 0.728480 0.219700 -0.633424
O53   O     O_R   0.115810 0.771520 0.719700 -0.633123
O54   O     O_R   0.115810 0.771520 0.280300 -0.633157
O55   O     O_R   0.115810 0.228480 0.280300 -0.633308
O56   O     O_R   0.115810 0.228480 0.719700 -0.633300
O57   O     O_R   0.384200 0.271530 0.780390 -0.609374
O58   O     O_R   0.384200 0.271530 0.219610 -0.609181
O59   O     O_R   0.384200 0.728470 0.219610 -0.609100
O60   O     O_R   0.384200 0.728470 0.780390 -0.609556
O61   O     O_R   0.384200 0.771530 0.280390 -0.608979
O62   O     O_R   0.384200 0.771530 0.719610 -0.609513
O63   O     O_R   0.384200 0.228470 0.719610 -0.609321
O64   O     O_R   0.384200 0.228470 0.280390 -0.609027
O65   O     O_R   0.884200 0.271530 0.280390 -0.609421
O66   O     O_R   0.884200 0.271530 0.719610 -0.609614
O67   O     O_R   0.884200 0.728470 0.719610 -0.609222
O68   O     O_R   0.884200 0.728470 0.280390 -0.609338
O69   O     O_R   0.884200 0.771530 0.780390 -0.609327
O70   O     O_R   0.884200 0.771530 0.219610 -0.609088
O71   O     O_R   0.884200 0.228470 0.219610 -0.609114
O72   O     O_R   0.884200 0.228470 0.780390 -0.609692
O73   O     O_R   0.469640 0.228530 0.634220 -0.602961
O74   O     O_R   0.469640 0.228530 0.365780 -0.602144
O75   O     O_R   0.469640 0.771470 0.365780 -0.601906
O76   O     O_R   0.469640 0.771470 0.634220 -0.603079
O77   O     O_R   0.469640 0.728530 0.134220 -0.601824
O78   O     O_R   0.469640 0.728530 0.865780 -0.603348
O79   O     O_R   0.469640 0.271470 0.865780 -0.603016
O80   O     O_R   0.469640 0.271470 0.134220 -0.602065
O81   O     O_R   0.969640 0.228530 0.134220 -0.602097
O82   O     O_R   0.969640 0.228530 0.865780 -0.603050
O83   O     O_R   0.969640 0.771470 0.865780 -0.602463
O84   O     O_R   0.969640 0.771470 0.134220 -0.602258
O85   O     O_R   0.969640 0.728530 0.634220 -0.602116
O86   O     O_R   0.969640 0.728530 0.365780 -0.603026
O87   O     O_R   0.969640 0.271470 0.365780 -0.602806
O88   O     O_R   0.969640 0.271470 0.634220 -0.602663
O89   O     O_R   0.530350 0.332020 0.719700 -0.645169
O90   O     O_R   0.530350 0.332020 0.280300 -0.644275
O91   O     O_R   0.530350 0.667980 0.280300 -0.645197
O92   O     O_R   0.530350 0.667980 0.719700 -0.645771
O93   O     O_R   0.530350 0.832020 0.219700 -0.644825
O94   O     O_R   0.530350 0.832020 0.780300 -0.644977
O95   O     O_R   0.530350 0.167980 0.780300 -0.645713
O96   O     O_R   0.530350 0.167980 0.219700 -0.645630
O97   O     O_R   0.030350 0.332020 0.219700 -0.644830
O98   O     O_R   0.030350 0.332020 0.780300 -0.644548
O99   O     O_R   0.030350 0.667980 0.780300 -0.645442
O100  O     O_R   0.030350 0.667980 0.219700 -0.645623
O101  O     O_R   0.030350 0.832020 0.719700 -0.644798
O102  O     O_R   0.030350 0.832020 0.280300 -0.644791
O103  O     O_R   0.030350 0.167980 0.280300 -0.645585
O104  O     O_R   0.030350 0.167980 0.719700 -0.645544
C1    C     C_R   0.499998 0.349422 0.750062 0.855047
C2    C     C_R   0.499994 0.349422 0.249947 0.855548
C3    C     C_R   0.499991 0.650577 0.249962 0.857153
C4    C     C_R   0.499992 0.650577 0.750038 0.856891
C5    C     C_R   0.499995 0.849421 0.250058 0.854743
C6    C     C_R   0.499998 0.849422 0.749941 0.855390
C7    C     C_R   0.499990 0.150577 0.749961 0.856900
C8    C     C_R   0.499992 0.150577 0.250038 0.856569
C9    C     C_R   0.999997 0.349422 0.250060 0.855250
C10   C     C_R   0.999996 0.349422 0.749944 0.855605
C11   C     C_R   0.999990 0.650577 0.749962 0.856925
C12   C     C_R   0.999992 0.650577 0.250037 0.856989
C13   C     C_R   0.999996 0.849422 0.750059 0.855178
C14   C     C_R   0.999997 0.849422 0.249943 0.855105
C15   C     C_R   0.999990 0.150577 0.249962 0.856710
C16   C     C_R   0.999991 0.150577 0.750037 0.857228
C17   C     C_R   0.499896 0.250126 0.609959 0.882344
C18   C     C_R   0.499887 0.250129 0.390042 0.880220
C19   C     C_R   0.499879 0.749868 0.390042 0.879751
C20   C     C_R   0.499898 0.749872 0.609959 0.882782
C21   C     C_R   0.499877 0.750129 0.109957 0.879401
C22   C     C_R   0.499907 0.750125 0.890039 0.883347
C23   C     C_R   0.499898 0.249872 0.890040 0.882601
C24   C     C_R   0.499881 0.249870 0.109957 0.880163
C25   C     C_R   0.999882 0.250129 0.109957 0.880194
C26   C     C_R   0.999900 0.250127 0.890040 0.882558
C27   C     C_R   0.999888 0.749866 0.890042 0.881402
C28   C     C_R   0.999883 0.749869 0.109957 0.880801
C29   C     C_R   0.999881 0.750129 0.609958 0.880145
C30   C     C_R   0.999900 0.750128 0.390041 0.882286
C31   C     C_R   0.999891 0.249871 0.390041 0.881912
C32   C     C_R   0.999888 0.249871 0.609958 0.881625
C33   C     C_R   0.640093 0.250002 0.750002 0.833067
C34   C     C_R   0.640095 0.250002 0.249999 0.833081
C35   C     C_R   0.640095 0.750003 0.250003 0.833057
C36   C     C_R   0.640095 0.750002 0.750000 0.833350
C37   C     C_R   0.140095 0.250002 0.250003 0.833216
C38   C     C_R   0.140095 0.250002 0.749999 0.833312
C39   C     C_R   0.140094 0.750003 0.750003 0.832926
C40   C     C_R   0.140095 0.750002 0.250000 0.833264
C41   C     C_R   0.359977 0.250002 0.749997 0.930650
C42   C     C_R   0.359977 0.250003 0.250001 0.930377
C43   C     C_R   0.359977 0.750002 0.249998 0.930418
C44   C     C_R   0.359977 0.750003 0.750002 0.931402
C45   C     C_R   0.859977 0.250002 0.249997 0.930873
C46   C     C_R   0.859977 0.250003 0.750001 0.932528
C47   C     C_R   0.859977 0.750002 0.749997 0.931173
C48   C     C_R   0.859977 0.750003 0.250002 0.930118
C49   C     C_R   0.277212 0.216061 0.751592 0.249451
C50   C     C_R   0.277212 0.216059 0.248500 0.249488
C51   C     C_R   0.277215 0.783952 0.248500 0.249311
C52   C     C_R   0.277215 0.783948 0.751822 0.249171
C53   C     C_R   0.277213 0.716058 0.251512 0.249471
C54   C     C_R   0.277213 0.716067 0.748170 0.249397
C55   C     C_R   0.277214 0.283951 0.748416 0.249187
C56   C     C_R   0.277215 0.283954 0.251480 0.249352
C57   C     C_R   0.777213 0.216061 0.251667 0.249475
C58   C     C_R   0.777214 0.216074 0.747820 0.249374
C59   C     C_R   0.777215 0.783948 0.748270 0.249246
C60   C     C_R   0.777215 0.783956 0.251416 0.249299
C61   C     C_R   0.777213 0.716063 0.751741 0.249438
C62   C     C_R   0.777212 0.716059 0.248571 0.249483
C63   C     C_R   0.777215 0.283949 0.248344 0.249265
C64   C     C_R   0.777216 0.283939 0.752159 0.249218
C65   C     C_R   0.223274 0.216124 0.751588 -0.136102
C66   C     C_R   0.223275 0.216122 0.248505 -0.136233
C67   C     C_R   0.223276 0.783888 0.248513 -0.136920
C68   C     C_R   0.223271 0.783882 0.751806 -0.136678
C69   C     C_R   0.223276 0.716121 0.251508 -0.136142
C70   C     C_R   0.223271 0.716131 0.748183 -0.136180
C71   C     C_R   0.223274 0.283887 0.748429 -0.136991
C72   C     C_R   0.223276 0.283890 0.251474 -0.136829
C73   C     C_R   0.723273 0.216125 0.251659 -0.136044
C74   C     C_R   0.723266 0.216140 0.747842 -0.135839
C75   C     C_R   0.723273 0.783883 0.748289 -0.136714
C76   C     C_R   0.723277 0.783892 0.251410 -0.136825
C77   C     C_R   0.723272 0.716127 0.751734 -0.135915
C78   C     C_R   0.723276 0.716121 0.248577 -0.136571
C79   C     C_R   0.723274 0.283885 0.248361 -0.137172
C80   C     C_R   0.723267 0.283871 0.752136 -0.136424
C81   C     C_R   0.196356 0.250005 0.750004 -0.166736
C82   C     C_R   0.196356 0.250005 0.249999 -0.166765
C83   C     C_R   0.196357 0.750004 0.250005 -0.166815
C84   C     C_R   0.196355 0.750006 0.750001 -0.166624
C85   C     C_R   0.696357 0.250004 0.250005 -0.166642
C86   C     C_R   0.696355 0.250005 0.749998 -0.166665
C87   C     C_R   0.696356 0.750004 0.750005 -0.166825
C88   C     C_R   0.696357 0.750006 0.250001 -0.166682
C89   C     C_R   0.303940 0.250005 0.749997 -0.249032
C90   C     C_R   0.303940 0.250006 0.249997 -0.249064
C91   C     C_R   0.303940 0.750004 0.249999 -0.249064
C92   C     C_R   0.303940 0.750007 0.750000 -0.249040
C93   C     C_R   0.803940 0.250004 0.249998 -0.249035
C94   C     C_R   0.803939 0.250005 0.749997 -0.249069
C95   C     C_R   0.803940 0.750004 0.749998 -0.249073
C96   C     C_R   0.803941 0.750006 0.249999 -0.249047
C97   C     C_3   0.446297 0.021858 0.738658 -0.235495
C98   C     C_3   0.446637 0.021863 0.262937 -0.235814
C99   C     C_3   0.448627 0.978842 0.271076 -0.238316
C100  C     C_3   0.448049 0.978836 0.730464 -0.238133
C101  C     C_3   0.448226 0.521865 0.231426 -0.236592
C102  C     C_3   0.445930 0.521861 0.759158 -0.235176
C103  C     C_3   0.447347 0.478839 0.767403 -0.237834
C104  C     C_3   0.451069 0.478841 0.223554 -0.238623
C105  C     C_3   0.946881 0.021858 0.235990 -0.235937
C106  C     C_3   0.946549 0.021861 0.762566 -0.235722
C107  C     C_3   0.948485 0.978840 0.770714 -0.238115
C108  C     C_3   0.949040 0.978835 0.227896 -0.238337
C109  C     C_3   0.947217 0.521860 0.734694 -0.236057
C110  C     C_3   0.946443 0.521860 0.262036 -0.235722
C111  C     C_3   0.948300 0.478839 0.270205 -0.238300
C112  C     C_3   0.949569 0.478837 0.726658 -0.238383
C113  C     C_3   0.521929 0.021714 0.804101 -0.124554
C114  C     C_3   0.520265 0.021708 0.195256 -0.124588
C115  C     C_3   0.511079 0.977847 0.193504 -0.125554
C116  C     C_3   0.512810 0.977852 0.806128 -0.125518
C117  C     C_3   0.514182 0.521713 0.306610 -0.124789
C118  C     C_3   0.524118 0.521710 0.696804 -0.124511
C119  C     C_3   0.515115 0.477844 0.694425 -0.125516
C120  C     C_3   0.504866 0.477851 0.307367 -0.125864
C121  C     C_3   0.019146 0.021715 0.305134 -0.124642
C122  C     C_3   0.020644 0.021708 0.695398 -0.124616
C123  C     C_3   0.011490 0.977845 0.693588 -0.125574
C124  C     C_3   0.009940 0.977852 0.306702 -0.125599
C125  C     C_3   0.017761 0.521715 0.805593 -0.124677
C126  C     C_3   0.021204 0.521709 0.195607 -0.124524
C127  C     C_3   0.012063 0.477846 0.193704 -0.125571
C128  C     C_3   0.008514 0.477853 0.806935 -0.125697
C129  C     C_1   0.000380 0.388850 0.749577 -0.037920
C130  C     C_1   0.000392 0.388850 0.250451 -0.037915
C131  C     C_1   0.000402 0.611145 0.250287 -0.035539
C132  C     C_1   0.000379 0.611145 0.749735 -0.035193
C133  C     C_1   0.000389 0.888850 0.249565 -0.037726
C134  C     C_1   0.000387 0.888850 0.750447 -0.037860
C135  C     C_1   0.000396 0.111145 0.750282 -0.035658
C136  C     C_1   0.000385 0.111145 0.249724 -0.035207
C137  C     C_1   0.500365 0.388851 0.249603 -0.037605
C138  C     C_1   0.500399 0.388850 0.750467 -0.037960
C139  C     C_1   0.500417 0.611145 0.750308 -0.035802
C140  C     C_1   0.500363 0.611145 0.249764 -0.034943
C141  C     C_1   0.500396 0.888850 0.749547 -0.038037
C142  C     C_1   0.500382 0.888850 0.250440 -0.037609
C143  C     C_1   0.500399 0.111145 0.250282 -0.035232
C144  C     C_1   0.500401 0.111145 0.749701 -0.035551
C145  C     C_3   0.502467 0.036962 0.749543 -0.030295
C146  C     C_3   0.502457 0.036963 0.250373 -0.030256
C147  C     C_3   0.501787 0.963086 0.251089 -0.015548
C148  C     C_3   0.501791 0.963086 0.748848 -0.015443
C149  C     C_3   0.502382 0.536962 0.249900 -0.030059
C150  C     C_3   0.502491 0.536963 0.750538 -0.030397
C151  C     C_3   0.501787 0.463087 0.751213 -0.015446
C152  C     C_3   0.501787 0.463087 0.249116 -0.015676
C153  C     C_3   0.002437 0.036962 0.249670 -0.030195
C154  C     C_3   0.002453 0.036963 0.750390 -0.030189
C155  C     C_3   0.001789 0.963087 0.751107 -0.015460
C156  C     C_3   0.001797 0.963087 0.248942 -0.015506
C157  C     C_3   0.002422 0.536962 0.749735 -0.030132
C158  C     C_3   0.002466 0.536963 0.250416 -0.030259
C159  C     C_3   0.001795 0.463087 0.251124 -0.015415
C160  C     C_3   0.001792 0.463087 0.748993 -0.015462
C161  C     C_3   0.047307 0.478093 0.712221 0.074320
C162  C     C_3   0.044966 0.478098 0.290624 0.073752
C163  C     C_3   0.038791 0.522570 0.296163 0.069134
C164  C     C_3   0.041485 0.522563 0.706308 0.069588
C165  C     C_3   0.046393 0.978096 0.211064 0.074113
C166  C     C_3   0.045346 0.978098 0.790179 0.073830
C167  C     C_3   0.039233 0.022569 0.795772 0.069230
C168  C     C_3   0.040422 0.022565 0.205295 0.069409
C169  C     C_3   0.549519 0.478090 0.215271 0.075002
C170  C     C_3   0.542781 0.478098 0.792968 0.073288
C171  C     C_3   0.536336 0.522571 0.798150 0.068800
C172  C     C_3   0.544092 0.522560 0.209013 0.070132
C173  C     C_3   0.544439 0.978095 0.708788 0.073628
C174  C     C_3   0.545624 0.978095 0.289851 0.073930
C175  C     C_3   0.539549 0.022565 0.295498 0.069234
C176  C     C_3   0.538185 0.022565 0.703324 0.068967
C177  C     C_1   0.000908 0.422070 0.749170 0.034860
C178  C     C_1   0.000917 0.422070 0.250893 0.034704
C179  C     C_1   0.001145 0.577931 0.250439 0.009947
C180  C     C_1   0.001112 0.577931 0.749629 0.010381
C181  C     C_1   0.000917 0.922070 0.249142 0.034798
C182  C     C_1   0.000910 0.922070 0.750884 0.034758
C183  C     C_1   0.001136 0.077931 0.750426 0.010003
C184  C     C_1   0.001121 0.077931 0.249599 0.010240
C185  C     C_1   0.500897 0.422070 0.249233 0.035025
C186  C     C_1   0.500916 0.422070 0.750936 0.034660
C187  C     C_1   0.501166 0.577931 0.750495 0.009579
C188  C     C_1   0.501088 0.577931 0.249710 0.010749
C189  C     C_1   0.500917 0.922070 0.749095 0.034702
C190  C     C_1   0.500905 0.922069 0.250871 0.034748
C191  C     C_1   0.501142 0.077931 0.250420 0.010120
C192  C     C_1   0.501145 0.077931 0.749538 0.009940
H1    H     H_    0.431694 0.034440 0.702453 0.214512
H2    H     H_    0.433131 0.034451 0.299563 0.214815
H3    H     H_    0.446258 0.973816 0.312939 0.242256
H4    H     H_    0.444424 0.973806 0.688689 0.241958
H5    H     H_    0.438725 0.534447 0.193560 0.215524
H6    H     H_    0.429892 0.534443 0.794750 0.214208
H7    H     H_    0.442028 0.473808 0.808994 0.241657
H8    H     H_    0.453184 0.473808 0.181677 0.242970
H9    H     H_    0.934109 0.034439 0.199098 0.214844
H10   H     H_    0.932790 0.034446 0.799099 0.214542
H11   H     H_    0.945815 0.973812 0.812559 0.242074
H12   H     H_    0.947504 0.973804 0.185994 0.242299
H13   H     H_    0.935357 0.534441 0.697499 0.214964
H14   H     H_    0.932320 0.534446 0.298429 0.214572
H15   H     H_    0.945221 0.473813 0.312023 0.242012
H16   H     H_    0.949061 0.473805 0.684730 0.242398
C193  C     C_R   0.498281 0.215705 0.973016 -0.084396
C194  C     C_R   0.498257 0.215692 0.026960 -0.083873
C195  C     C_R   0.498313 0.784308 0.026960 -0.083322
C196  C     C_R   0.498350 0.784289 0.973017 -0.084075
C197  C     C_R   0.498268 0.715687 0.473034 -0.083678
C198  C     C_R   0.498305 0.715703 0.526978 -0.084480
C199  C     C_R   0.498355 0.284297 0.526981 -0.083873
C200  C     C_R   0.498345 0.284308 0.473038 -0.083577
C201  C     C_R   0.998109 0.215706 0.473023 -0.084102
C202  C     C_R   0.998105 0.215703 0.526968 -0.084057
C203  C     C_R   0.998403 0.784311 0.526966 -0.083475
C204  C     C_R   0.998430 0.784301 0.473023 -0.083912
C205  C     C_R   0.998453 0.715684 0.973023 -0.084118
C206  C     C_R   0.998451 0.715684 0.026967 -0.084105
C207  C     C_R   0.998378 0.284310 0.026967 -0.083501
C208  C     C_R   0.998405 0.284299 0.973024 -0.083951
C209  C     C_R   0.499665 0.249612 0.053790 -0.205351
C210  C     C_R   0.499789 0.249641 0.946204 -0.205000
C211  C     C_R   0.499836 0.750350 0.946203 -0.205006
C212  C     C_R   0.499637 0.750388 0.053789 -0.205489
C213  C     C_R   0.499791 0.749642 0.553794 -0.205020
C214  C     C_R   0.499656 0.749606 0.446209 -0.205226
C215  C     C_R   0.499693 0.250383 0.446209 -0.205192
C216  C     C_R   0.499778 0.250361 0.553795 -0.205040
C217  C     C_R   0.999721 0.249625 0.553792 -0.205122
C218  C     C_R   0.999744 0.249631 0.446206 -0.205015
C219  C     C_R   0.999788 0.750363 0.446205 -0.205144
C220  C     C_R   0.999670 0.750386 0.553790 -0.205411
C221  C     C_R   0.999695 0.749617 0.053792 -0.205293
C222  C     C_R   0.999720 0.749619 0.946206 -0.205259
C223  C     C_R   0.999789 0.250362 0.946205 -0.205152
C224  C     C_R   0.999674 0.250385 0.053791 -0.205323
C225  C     C_R   0.500318 0.283497 0.026955 0.208053
C226  C     C_R   0.500492 0.283531 0.973061 0.205089
C227  C     C_R   0.500523 0.716455 0.973057 0.204254
C228  C     C_R   0.500242 0.716504 0.026952 0.208666
C229  C     C_R   0.500469 0.783532 0.526940 0.204805
C230  C     C_R   0.500299 0.783491 0.473046 0.207990
C231  C     C_R   0.500296 0.216496 0.473045 0.207370
C232  C     C_R   0.500423 0.216470 0.526940 0.205164
C233  C     C_R   0.000574 0.283510 0.526953 0.206785
C234  C     C_R   0.000605 0.283517 0.473055 0.206224
C235  C     C_R   0.000347 0.716471 0.473056 0.205097
C236  C     C_R   0.000189 0.716500 0.526948 0.207616
C237  C     C_R   0.000127 0.783505 0.026949 0.206730
C238  C     C_R   0.000164 0.783511 0.973060 0.206080
C239  C     C_R   0.000379 0.216470 0.973055 0.205083
C240  C     C_R   0.000227 0.216499 0.026949 0.207569
N1    N     N_R   0.304823 0.181634 0.755383 0.221435
O105  O     O_R   0.295875 0.155051 0.722793 -0.330806
O106  O     O_R   0.338074 0.176466 0.792203 -0.393617
N2    N     N_R   0.304820 0.181627 0.244800 0.221534
O107  O     O_R   0.295906 0.155104 0.277491 -0.330599
O108  O     O_R   0.338032 0.176391 0.207966 -0.393374
N3    N     N_R   0.304825 0.818384 0.244796 0.221752
O109  O     O_R   0.295913 0.844914 0.277481 -0.328974
O110  O     O_R   0.338045 0.823611 0.207967 -0.393368
N4    N     N_R   0.304833 0.818362 0.755852 0.221579
O111  O     O_R   0.295792 0.845099 0.723536 -0.329414
O112  O     O_R   0.338192 0.823363 0.792620 -0.393799
N5    N     N_R   0.304822 0.681627 0.255226 0.221530
O113  O     O_R   0.295905 0.655093 0.222548 -0.331222
O114  O     O_R   0.338039 0.676403 0.292061 -0.393269
N6    N     N_R   0.304829 0.681655 0.744133 0.221365
O115  O     O_R   0.295798 0.654920 0.776454 -0.330886
O116  O     O_R   0.338171 0.676653 0.707354 -0.393785
N7    N     N_R   0.304826 0.318379 0.744629 0.221742
O117  O     O_R   0.295882 0.344962 0.777220 -0.329016
O118  O     O_R   0.338080 0.323547 0.707815 -0.393243
N8    N     N_R   0.304824 0.318388 0.255161 0.221684
O119  O     O_R   0.295909 0.344904 0.222458 -0.329767
O120  O     O_R   0.338047 0.323631 0.291986 -0.393594
N9    N     N_R   0.804826 0.181640 0.255539 0.221444
O121  O     O_R   0.795852 0.155006 0.223035 -0.330964
O122  O     O_R   0.838106 0.176526 0.292348 -0.393617
N10   N     N_R   0.804838 0.181685 0.743424 0.221199
O123  O     O_R   0.795687 0.154728 0.775350 -0.331535
O124  O     O_R   0.838314 0.176929 0.706703 -0.394188
N11   N     N_R   0.804831 0.818367 0.744332 0.221605
O125  O     O_R   0.795830 0.845047 0.776754 -0.329450
O126  O     O_R   0.838147 0.823430 0.707546 -0.393770
N12   N     N_R   0.804823 0.818393 0.255033 0.221744
O127  O     O_R   0.795937 0.844866 0.222254 -0.329277
O128  O     O_R   0.838014 0.823684 0.291874 -0.393478
N13   N     N_R   0.804828 0.681646 0.755686 0.221408
O129  O     O_R   0.795824 0.654964 0.723267 -0.331262
O130  O     O_R   0.838140 0.676584 0.792480 -0.393703
N14   N     N_R   0.804818 0.681623 0.244942 0.221571
O131  O     O_R   0.795937 0.655148 0.277716 -0.330747
O132  O     O_R   0.837994 0.676336 0.208090 -0.393132
N15   N     N_R   0.804829 0.318372 0.244481 0.221744
O133  O     O_R   0.795862 0.345003 0.276991 -0.329280
O134  O     O_R   0.838111 0.323489 0.207678 -0.393218
N16   N     N_R   0.804842 0.318331 0.756538 0.221387
O135  O     O_R   0.795691 0.345281 0.724600 -0.330141
O136  O     O_R   0.838328 0.323094 0.793252 -0.394346
N17   N     N_R   0.504752 0.317833 0.054366 0.245257
O137  O     O_R   0.466355 0.340934 0.055164 -0.251090
O138  O     O_R   0.545045 0.324308 0.082776 -0.349764
N18   N     N_R   0.505202 0.317911 0.945724 0.243607
O139  O     O_R   0.468958 0.342656 0.948685 -0.244338
O140  O     O_R   0.544302 0.323622 0.915391 -0.355093
N19   N     N_R   0.505289 0.682061 0.945732 0.242888
O141  O     O_R   0.469660 0.656925 0.949625 -0.243954
O142  O     O_R   0.544094 0.676518 0.914958 -0.357304
N20   N     N_R   0.504537 0.682176 0.054376 0.245485
O143  O     O_R   0.465639 0.659538 0.056113 -0.252518
O144  O     O_R   0.545118 0.675446 0.082253 -0.350234
N21   N     N_R   0.505129 0.817919 0.554273 0.243518
O145  O     O_R   0.468983 0.842723 0.551080 -0.244506
O146  O     O_R   0.544156 0.823635 0.584703 -0.354545
N22   N     N_R   0.504756 0.817822 0.445640 0.245406
O147  O     O_R   0.466249 0.840824 0.444550 -0.248403
O148  O     O_R   0.545185 0.824357 0.417453 -0.351026
N23   N     N_R   0.504727 0.182152 0.445644 0.244836
O149  O     O_R   0.466540 0.158867 0.445299 -0.248131
O150  O     O_R   0.544873 0.175750 0.416996 -0.353291
N24   N     N_R   0.505056 0.182091 0.554283 0.243459
O151  O     O_R   0.468498 0.157561 0.551763 -0.245193
O152  O     O_R   0.544295 0.176265 0.584397 -0.355838
N25   N     N_R   0.005323 0.317847 0.554341 0.244478
O153  O     O_R   0.967888 0.341748 0.553594 -0.248295
O154  O     O_R   0.045138 0.323857 0.583615 -0.352141
N26   N     N_R   0.005401 0.317863 0.445686 0.244187
O155  O     O_R   0.968386 0.342082 0.447172 -0.246276
O156  O     O_R   0.044978 0.323729 0.416039 -0.353537
N27   N     N_R   0.004906 0.682082 0.445715 0.243531
O157  O     O_R   0.968412 0.657513 0.448432 -0.245739
O158  O     O_R   0.044079 0.676234 0.415525 -0.355342
N28   N     N_R   0.004501 0.682151 0.554344 0.245061
O159  O     O_R   0.966118 0.659034 0.554925 -0.249922
O160  O     O_R   0.044716 0.675625 0.582842 -0.351960
N29   N     N_R   0.004415 0.817879 0.054320 0.244832
O161  O     O_R   0.966612 0.841482 0.053651 -0.247851
O162  O     O_R   0.044218 0.824216 0.083472 -0.351635
N30   N     N_R   0.004516 0.817895 0.945709 0.244470
O163  O     O_R   0.967146 0.841836 0.947128 -0.246739
O164  O     O_R   0.044093 0.824076 0.916184 -0.352586
N31   N     N_R   0.004966 0.182085 0.945712 0.243472
O165  O     O_R   0.968472 0.157514 0.948394 -0.246092
O166  O     O_R   0.044150 0.176251 0.915531 -0.355328
N32   N     N_R   0.004583 0.182152 0.054345 0.245026
O167  O     O_R   0.966254 0.158988 0.054876 -0.249170
O168  O     O_R   0.044785 0.175666 0.082881 -0.352556
C241  C     C_1   0.195798 0.181372 0.756726 0.335248
N33   N     N_1   0.173847 0.153659 0.760847 -0.127691
C242  C     C_1   0.195805 0.181360 0.243462 0.335348
N34   N     N_1   0.173859 0.153639 0.239417 -0.127302
C243  C     C_1   0.195806 0.818650 0.243500 0.336410
N35   N     N_1   0.173859 0.846373 0.239481 -0.123974
C244  C     C_1   0.195778 0.818611 0.757143 0.336065
N36   N     N_1   0.173812 0.846306 0.761422 -0.124350
C245  C     C_1   0.195806 0.681361 0.256560 0.335394
N37   N     N_1   0.173859 0.653640 0.260612 -0.127860
C246  C     C_1   0.195779 0.681404 0.742813 0.335091
N38   N     N_1   0.173811 0.653712 0.738505 -0.126735
C247  C     C_1   0.195798 0.318640 0.743330 0.336618
N39   N     N_1   0.173846 0.346356 0.739241 -0.123319
C248  C     C_1   0.195807 0.318654 0.256478 0.336556
N40   N     N_1   0.173862 0.346378 0.260489 -0.124506
C249  C     C_1   0.695793 0.181381 0.256865 0.335078
N41   N     N_1   0.673836 0.153674 0.261041 -0.127675
C250  C     C_1   0.695750 0.181450 0.742129 0.334630
N42   N     N_1   0.673762 0.153788 0.737545 -0.127999
C251  C     C_1   0.695786 0.818622 0.743046 0.336125
N43   N     N_1   0.673825 0.846325 0.738844 -0.124728
C252  C     C_1   0.695813 0.818663 0.256343 0.336400
N44   N     N_1   0.673872 0.846394 0.260298 -0.124436
C253  C     C_1   0.695786 0.681390 0.757017 0.335048
N45   N     N_1   0.673826 0.653690 0.761256 -0.128699
C254  C     C_1   0.695812 0.681353 0.243608 0.335762
N46   N     N_1   0.673868 0.653626 0.239621 -0.125496
C255  C     C_1   0.695793 0.318631 0.243192 0.336704
N47   N     N_1   0.673837 0.346341 0.239049 -0.122052
C256  C     C_1   0.695752 0.318564 0.757808 0.335647
N48   N     N_1   0.673766 0.346229 0.762356 -0.125209
C257  C     C_1   0.902586 0.458860 0.743663 0.252655
N49   N     N_1   0.865913 0.443221 0.756654 -0.082313
C258  C     C_1   0.902448 0.458859 0.250349 0.252823
N50   N     N_1   0.866641 0.443216 0.235135 -0.082965
C259  C     C_1   0.907502 0.533933 0.223785 0.246206
N51   N     N_1   0.876818 0.543372 0.194223 -0.105430
C260  C     C_1   0.906001 0.533941 0.770476 0.246364
N52   N     N_1   0.873561 0.543387 0.798092 -0.104519
C261  C     C_1   0.902490 0.958856 0.246048 0.252999
N53   N     N_1   0.866148 0.943214 0.259932 -0.082854
C262  C     C_1   0.902440 0.958860 0.751306 0.252736
N54   N     N_1   0.866484 0.943220 0.736442 -0.083663
C263  C     C_1   0.907227 0.033937 0.724708 0.246035
N55   N     N_1   0.876249 0.043379 0.695457 -0.105905
C264  C     C_1   0.906557 0.033935 0.272775 0.246323
N56   N     N_1   0.874804 0.043378 0.301182 -0.105057
C265  C     C_1   0.403110 0.458868 0.237587 0.253339
N57   N     N_1   0.365694 0.443232 0.248259 -0.080904
C266  C     C_1   0.402625 0.458862 0.745111 0.252662
N58   N     N_1   0.367684 0.443224 0.727994 -0.085165
C267  C     C_1   0.409075 0.533940 0.718897 0.245730
N59   N     N_1   0.380003 0.543385 0.687751 -0.107575
C268  C     C_1   0.404849 0.533951 0.264549 0.246638
N60   N     N_1   0.370740 0.543401 0.290075 -0.102457
C269  C     C_1   0.402462 0.958855 0.750912 0.252760
N61   N     N_1   0.366857 0.943214 0.766589 -0.084084
C270  C     C_1   0.402442 0.958864 0.252003 0.253159
N62   N     N_1   0.366379 0.943224 0.237402 -0.083099
C271  C     C_1   0.407059 0.033937 0.225346 0.246285
N63   N     N_1   0.375883 0.043377 0.196303 -0.105519
C272  C     C_1   0.407864 0.033931 0.777418 0.246051
N64   N     N_1   0.377574 0.043371 0.807381 -0.106655
C273  C     C_1   0.576725 0.031626 0.812968 0.154004
N65   N     N_1   0.619336 0.039337 0.820646 -0.121132
C274  C     C_1   0.574772 0.031610 0.184748 0.154074
N66   N     N_1   0.617135 0.039314 0.175793 -0.121478
C275  C     C_1   0.553977 0.957985 0.167385 0.180143
N67   N     N_1   0.587075 0.942454 0.146740 -0.124386
C276  C     C_1   0.556481 0.957998 0.830946 0.180121
N68   N     N_1   0.590193 0.942473 0.850585 -0.123894
C277  C     C_1   0.567247 0.531618 0.322907 0.154186
N69   N     N_1   0.608404 0.539323 0.336359 -0.122815
C278  C     C_1   0.579216 0.531639 0.690121 0.153971
N70   N     N_1   0.622093 0.539364 0.684141 -0.120703
C279  C     C_1   0.559771 0.457996 0.671418 0.180076
N71   N     N_1   0.594264 0.442477 0.653177 -0.123277
C280  C     C_1   0.544723 0.457991 0.337930 0.180209
N72   N     N_1   0.575420 0.442461 0.362002 -0.126028
C281  C     C_1   0.073429 0.031627 0.316732 0.154090
N73   N     N_1   0.115603 0.039339 0.326533 -0.121474
C282  C     C_1   0.075216 0.031624 0.685260 0.154065
N74   N     N_1   0.117635 0.039338 0.676592 -0.121096
C283  C     C_1   0.054584 0.957990 0.667784 0.180106
N75   N     N_1   0.087839 0.942465 0.647383 -0.124038
C284  C     C_1   0.052317 0.957998 0.333671 0.180125
N76   N     N_1   0.085004 0.942473 0.354971 -0.124484
C285  C     C_1   0.071743 0.531624 0.818523 0.154095
N77   N     N_1   0.113664 0.539333 0.829360 -0.121818
C286  C     C_1   0.075877 0.531621 0.186019 0.154028
N78   N     N_1   0.118383 0.539333 0.177779 -0.121411
C287  C     C_1   0.055407 0.457989 0.168324 0.180091
N79   N     N_1   0.088860 0.442462 0.148250 -0.124158
C288  C     C_1   0.050213 0.457997 0.834939 0.180139
N80   N     N_1   0.082363 0.442469 0.857038 -0.124938
C289  C     C_1   0.495780 0.041121 0.847415 0.215957
N81   N     N_1   0.475731 0.056276 0.881210 -0.137743
C290  C     C_1   0.492832 0.041116 0.152746 0.215745
N82   N     N_1   0.471781 0.056272 0.119567 -0.137153
C291  C     C_1   0.466402 0.967903 0.160343 0.207120
N83   N     N_1   0.431957 0.960158 0.134129 -0.133948
C292  C     C_1   0.469155 0.967904 0.840616 0.207196
N84   N     N_1   0.435518 0.960155 0.867852 -0.134848
C293  C     C_1   0.482351 0.541126 0.345930 0.215258
N85   N     N_1   0.457867 0.556288 0.376657 -0.135021
C294  C     C_1   0.499699 0.541100 0.652479 0.216337
N86   N     N_1   0.480996 0.556242 0.617909 -0.138603
C295  C     C_1   0.472905 0.467871 0.658190 0.207256
N87   N     N_1   0.440410 0.460102 0.629607 -0.136064
C296  C     C_1   0.456899 0.467910 0.335554 0.207281
N88   N     N_1   0.419847 0.460167 0.357930 -0.130893
C297  C     C_1   0.990863 0.041122 0.347084 0.215659
N89   N     N_1   0.969148 0.056278 0.379833 -0.136869
C298  C     C_1   0.993491 0.041107 0.652701 0.215868
N90   N     N_1   0.972657 0.056256 0.619378 -0.137362
C299  C     C_1   0.967058 0.967887 0.660106 0.207185
N91   N     N_1   0.932808 0.960130 0.633645 -0.134496
C300  C     C_1   0.964617 0.967904 0.338965 0.207129
N92   N     N_1   0.929661 0.960154 0.364487 -0.133679
C301  C     C_1   0.988457 0.541125 0.846834 0.215526
N93   N     N_1   0.965946 0.556284 0.879039 -0.136431
C302  C     C_1   0.994483 0.541110 0.152641 0.215820
N94   N     N_1   0.973986 0.556261 0.119112 -0.137615
C303  C     C_1   0.967961 0.467892 0.159787 0.207112
N95   N     N_1   0.933971 0.460137 0.132991 -0.134196
C304  C     C_1   0.962410 0.467908 0.838075 0.207251
N96   N     N_1   0.926837 0.460161 0.862730 -0.132781
N97   N     N_R   0.514769 0.034438 0.653381 0.242509
O169  O     O_R   0.483971 0.013411 0.626802 -0.290328
O170  O     O_R   0.519406 0.068710 0.638440 -0.295103
N98   N     N_R   0.517653 0.034445 0.346122 0.242446
O171  O     O_R   0.487647 0.013430 0.373603 -0.289367
O172  O     O_R   0.522769 0.068713 0.360929 -0.295924
N99   N     N_R   0.544325 0.960279 0.341323 0.258472
O173  O     O_R   0.510511 0.935222 0.353747 -0.304371
O174  O     O_R   0.579422 0.968838 0.375187 -0.262730
N100  N     N_R   0.541597 0.960273 0.657379 0.258780
O175  O     O_R   0.507431 0.935210 0.645977 -0.304500
O176  O     O_R   0.575659 0.968830 0.622478 -0.261150
N101  N     N_R   0.527750 0.534440 0.156333 0.242183
O177  O     O_R   0.500829 0.513434 0.125804 -0.287303
O178  O     O_R   0.534452 0.568702 0.142154 -0.299799
N102  N     N_R   0.510963 0.534462 0.847117 0.242727
O179  O     O_R   0.479035 0.513476 0.872390 -0.292688
O180  O     O_R   0.515106 0.568718 0.862280 -0.294065
N103  N     N_R   0.537840 0.460296 0.844228 0.259076
O181  O     O_R   0.503244 0.435231 0.854233 -0.304860
O182  O     O_R   0.570451 0.468863 0.880489 -0.258846
N104  N     N_R   0.553727 0.460276 0.163951 0.257677
O183  O     O_R   0.521427 0.435226 0.147973 -0.305642
O184  O     O_R   0.592247 0.468828 0.134041 -0.267745
N105  N     N_R   0.019533 0.034439 0.154244 0.242405
O185  O     O_R   0.990097 0.013413 0.126161 -0.289170
O186  O     O_R   0.024913 0.068710 0.139555 -0.296645
N106  N     N_R   0.016990 0.034455 0.846242 0.242504
O187  O     O_R   0.986772 0.013449 0.873504 -0.290156
O188  O     O_R   0.022023 0.068720 0.861088 -0.295839
N107  N     N_R   0.043675 0.960289 0.841645 0.258564
O189  O     O_R   0.009778 0.935228 0.853826 -0.304674
O190  O     O_R   0.078525 0.968851 0.875760 -0.262138
N108  N     N_R   0.046123 0.960275 0.159577 0.258330
O191  O     O_R   0.012566 0.935215 0.146479 -0.304712
O192  O     O_R   0.081888 0.968831 0.126422 -0.263556
N109  N     N_R   0.021860 0.534438 0.654759 0.242350
O193  O     O_R   0.993113 0.513416 0.625964 -0.288673
O194  O     O_R   0.027612 0.568707 0.640201 -0.297465
N110  N     N_R   0.016042 0.534451 0.346408 0.242535
O195  O     O_R   0.985576 0.513436 0.373379 -0.290510
O196  O     O_R   0.020901 0.568720 0.361295 -0.295489
N111  N     N_R   0.042794 0.460286 0.342069 0.258654
O197  O     O_R   0.008779 0.435225 0.353916 -0.304726
O198  O     O_R   0.077309 0.468847 0.376524 -0.261477
N112  N     N_R   0.048298 0.460273 0.660743 0.258186
O199  O     O_R   0.015068 0.435217 0.646823 -0.305052
O200  O     O_R   0.084868 0.468827 0.628477 -0.264635
C305  C     C_1   0.589740 0.040944 0.704047 0.252721
N113  N     N_1   0.629609 0.055301 0.704034 -0.101991
C306  C     C_1   0.591063 0.040938 0.293224 0.252078
N114  N     N_1   0.630919 0.055288 0.292039 -0.102493
C307  C     C_1   0.597041 0.967565 0.268911 0.179540
N115  N     N_1   0.637278 0.959356 0.253425 -0.106274
C308  C     C_1   0.596467 0.967575 0.728177 0.179714
N116  N     N_1   0.637153 0.959373 0.742450 -0.106091
C309  C     C_1   0.595072 0.540926 0.216801 0.250364
N117  N     N_1   0.634576 0.555270 0.222256 -0.103392
C310  C     C_1   0.587888 0.540939 0.799466 0.253612
N118  N     N_1   0.627733 0.555287 0.801054 -0.101271
C311  C     C_1   0.595547 0.467556 0.775722 0.180032
N119  N     N_1   0.636777 0.459336 0.763126 -0.105750
C312  C     C_1   0.598401 0.467554 0.241591 0.179371
N120  N     N_1   0.636750 0.459339 0.261290 -0.106667
C313  C     C_1   0.091878 0.040944 0.208596 0.251759
N121  N     N_1   0.131699 0.055299 0.210577 -0.102666
C314  C     C_1   0.090762 0.040942 0.793847 0.252289
N122  N     N_1   0.130625 0.055292 0.792930 -0.102373
C315  C     C_1   0.096913 0.967565 0.769614 0.179591
N123  N     N_1   0.137261 0.959352 0.754422 -0.106066
C316  C     C_1   0.097388 0.967575 0.233027 0.179490
N124  N     N_1   0.137311 0.959371 0.249313 -0.106218
C317  C     C_1   0.092847 0.540938 0.710874 0.251351
N125  N     N_1   0.132609 0.555289 0.713834 -0.102866
C318  C     C_1   0.090336 0.540945 0.294757 0.252559
N126  N     N_1   0.130204 0.555299 0.294242 -0.102059
C319  C     C_1   0.096734 0.467571 0.270564 0.179726
N127  N     N_1   0.137230 0.459363 0.255766 -0.106094
C320  C     C_1   0.097744 0.467568 0.735430 0.179460
N128  N     N_1   0.137255 0.459361 0.752692 -0.106295
C321  C     C_1   0.494929 0.180866 0.945282 0.247640
N129  N     N_1   0.492245 0.153117 0.923195 -0.152865
C322  C     C_1   0.494927 0.180848 0.054673 0.248074
N130  N     N_1   0.492260 0.153093 0.076745 -0.153162
C323  C     C_1   0.495059 0.819158 0.054673 0.248992
N131  N     N_1   0.492455 0.846918 0.076744 -0.158104
C324  C     C_1   0.495047 0.819130 0.945287 0.248425
N132  N     N_1   0.492404 0.846881 0.923202 -0.158012
C325  C     C_1   0.494949 0.680841 0.445317 0.248356
N133  N     N_1   0.492291 0.653085 0.423242 -0.154359
C326  C     C_1   0.494989 0.680864 0.554707 0.247674
N134  N     N_1   0.492335 0.653114 0.576792 -0.152480
C327  C     C_1   0.495080 0.319142 0.554711 0.248477
N135  N     N_1   0.492459 0.346896 0.576794 -0.157986
C328  C     C_1   0.495112 0.319158 0.445325 0.248932
N136  N     N_1   0.492526 0.346917 0.423254 -0.157966
C329  C     C_1   0.994599 0.180876 0.445289 0.247701
N137  N     N_1   0.991787 0.153134 0.423201 -0.153343
C330  C     C_1   0.994599 0.180873 0.554693 0.247916
N138  N     N_1   0.991791 0.153130 0.576775 -0.152944
C331  C     C_1   0.995226 0.819165 0.554682 0.249021
N139  N     N_1   0.992683 0.846928 0.576754 -0.158096
C332  C     C_1   0.995239 0.819150 0.445301 0.248565
N140  N     N_1   0.992686 0.846908 0.423222 -0.158171
C333  C     C_1   0.995298 0.680832 0.945300 0.248260
N141  N     N_1   0.992769 0.653071 0.923223 -0.153633
C334  C     C_1   0.995311 0.680828 0.054680 0.248098
N142  N     N_1   0.992796 0.653065 0.076751 -0.153073
C335  C     C_1   0.995171 0.319162 0.054683 0.249002
N143  N     N_1   0.992604 0.346923 0.076756 -0.158023
C336  C     C_1   0.995189 0.319147 0.945300 0.248897
N144  N     N_1   0.992617 0.346904 0.923221 -0.157911

loop_
_geom_bond_atom_site_label_1
_geom_bond_atom_site_label_2
_geom_bond_distance
_ccdc_geom_bond_type
C114  C290  1.489047 S    
C151  C186  1.482999 S    
Zn29  O101  1.914525 S    
C296  N88   1.158034 T    
Zn4   O4    1.940681 S    
C205  C206  1.400392 A    
O98   C10   1.279735 A    
C218  C234  1.409556 A    
C289  N81   1.157919 T    
C58   C94   1.410406 A    
C207  C224  1.410762 A    
O48   C34   1.273349 A    
C280  N72   1.157945 T    
N30   O163  1.300638 A    
C309  N117  1.157868 T    
C118  C278  1.484909 S    
C116  C276  1.488478 S    
C219  C235  1.409744 A    
C319  N127  1.157957 T    
N104  O183  1.302008 A    
C217  C233  1.409475 A    
N10   O123  1.301204 A    
N111  O198  1.303308 A    
N2    O108  1.301397 A    
C199  C216  1.411050 A    
N101  O178  1.303830 A    
N13   O129  1.301231 A    
N24   O152  1.301212 A    
N103  O182  1.303311 A    
Zn28  O52   1.939355 S    
Zn28  O8    1.941105 S    
C302  N94   1.157919 T    
O15   C7    1.279945 A    
N98   O171  1.301196 A    
O16   C8    1.279998 A    
N107  O190  1.303313 A    
C273  N65   1.158083 T    
C290  N82   1.157917 T    
C121  C297  1.489065 S    
O60   C44   1.274264 A    
C77   C253  1.450829 S    
Zn13  O19   1.915851 S    
C54   C70   1.400387 A    
Zn14  O20   1.915819 S    
O50   C38   1.273305 A    
C80   C256  1.450818 S    
C201  C329  1.453240 S    
C164  C317  1.494388 S    
C127  C287  1.488480 S    
C237  N29   1.435726 S    
C139  C187  1.200867 T    
C9    C130  1.425446 S    
C22   C211  1.458032 S    
Zn11  O83   1.938991 S    
O97   C9    1.279783 A    
Zn26  O98   1.914557 S    
O47   C33   1.273391 A    
Zn2   O2    1.940751 S    
C76   C252  1.450793 S    
Zn5   O11   1.915851 S    
C58   N10   1.439740 S    
C55   C89   1.410333 A    
C29   C220  1.458142 S    
Zn6   O12   1.915819 S    
C174  C307  1.490714 S    
N8    O120  1.301393 A    
Zn7   O1    1.940670 S    
C334  N142  1.157548 T    
Zn11  O21   1.915859 S    
C53   C91   1.410304 A    
C64   C94   1.410426 A    
Zn15  O65   1.938715 S    
C131  C179  1.200868 T    
C79   C85   1.410780 A    
C6    C141  1.425441 S    
C165  N108  1.483746 S    
O104  C16   1.279577 A    
C171  N102  1.494877 S    
Zn29  O37   1.939253 S    
O36   C28   1.273290 A    
C107  C155  1.580621 S    
C122  C298  1.489054 S    
C67   C243  1.450794 S    
C116  C148  1.605565 S    
Zn31  O55   1.939394 S    
C278  N70   1.158084 T    
Zn7   O79   1.938991 S    
N107  O189  1.302003 A    
Zn22  O46   1.939385 S    
C123  C299  1.488438 S    
Zn10  O82   1.938953 S    
O21   C13   1.279732 A    
Zn26  O6    1.941041 S    
C106  C263  1.482722 S    
C275  N67   1.157943 T    
C110  C158  1.582518 S    
C223  C239  1.409734 A    
Zn31  O5    1.941114 S    
C73   C249  1.450818 S    
C224  C240  1.409367 A    
Zn12  O8    1.940681 S    
C200  C328  1.453264 S    
C113  C273  1.484911 S    
N19   O142  1.301277 A    
C143  C191  1.200859 T    
C79   C255  1.450793 S    
C308  N116  1.157959 T    
O45   C35   1.273346 A    
C75   C87   1.410771 A    
O46   C36   1.273299 A    
C170  C171  1.622007 S    
C209  C225  1.409333 A    
C102  H6    1.110851 S    
O95   C7    1.279535 A    
C231  C232  1.399114 A    
Zn14  O68   1.938720 S    
O96   C8    1.279575 A    
C104  H8    1.103604 S    
C52   N4    1.439699 S    
Zn18  O90   1.914557 S    
C307  N115  1.157964 T    
C160  C161  1.613026 S    
C109  C260  1.482733 S    
N6    O116  1.301397 A    
C237  C238  1.398962 A    
C194  C322  1.453225 S    
C156  C181  1.482977 S    
C62   C78   1.400213 A    
O87   C31   1.274008 A    
C272  N64   1.157535 T    
O88   C32   1.273976 A    
N1    O105  1.301238 A    
C165  C168  1.622012 S    
C56   N8    1.439604 S    
N3    O110  1.301395 A    
C103  C151  1.580619 S    
C126  C286  1.484912 S    
C104  C152  1.580616 S    
C66   C242  1.450818 S    
O71   C45   1.274218 A    
N25   O153  1.300553 A    
C161  C320  1.490728 S    
Zn16  O18   1.915815 S    
N110  O195  1.301191 A    
C62   N14   1.439520 S    
C148  C173  1.613037 S    
O64   C42   1.274266 A    
O23   C15   1.279952 A    
Zn21  O3    1.941182 S    
Zn22  O4    1.941041 S    
N97   O169  1.301197 A    
Zn10  O6    1.940751 S    
Zn2   O64   1.938720 S    
C63   C93   1.410344 A    
C111  C258  1.484678 S    
N29   O162  1.301119 A    
C36   C87   1.460588 S    
Zn19  O3    1.941114 S    
N5    O113  1.301247 A    
Zn16  O66   1.938754 S    
N28   O159  1.300590 A    
C108  C261  1.484675 S    
C54   N6    1.439628 S    
Zn6   O60   1.938720 S    
C162  N111  1.483752 S    
C204  C332  1.453284 S    
Zn2   O74   1.938953 S    
Zn15  O17   1.915859 S    
C162  C319  1.490729 S    
O83   C27   1.274077 A    
N32   O167  1.300588 A    
C173  C308  1.490725 S    
C157  C180  1.481438 S    
N17   O138  1.301102 A    
N108  O191  1.302004 A    
C105  C153  1.582522 S    
C158  C179  1.481449 S    
C132  C180  1.200864 T    
C133  C181  1.201038 T    
C244  N36   1.157554 T    
N106  O188  1.303833 A    
C317  N125  1.157868 T    
C109  C112  1.570429 S    
O33   C25   1.273303 A    
C306  N114  1.157872 T    
C153  C168  1.603242 S    
C135  C183  1.200862 T    
C64   N16   1.439801 S    
C112  C257  1.484676 S    
C297  N89   1.157923 T    
C155  C166  1.613020 S    
C231  N23   1.435485 S    
O75   C19   1.273911 A    
C97   C272  1.482727 S    
Zn1   O73   1.939024 S    
N15   O134  1.301393 A    
C149  C172  1.603223 S    
O73   C17   1.274079 A    
C150  C171  1.603240 S    
C124  C156  1.605567 S    
C99   H3    1.103590 S    
C311  N119  1.157960 T    
C74   C86   1.410653 A    
C60   C76   1.400257 A    
C125  C157  1.601606 S    
C124  C300  1.488440 S    
C1    C138  1.425449 S    
C65   C241  1.450822 S    
C300  N92   1.158034 T    
C145  C176  1.603242 S    
O31   C23   1.273093 A    
O77   C21   1.273857 A    
C146  C175  1.603236 S    
C301  N93   1.157921 T    
C163  N110  1.494891 S    
C147  C174  1.613022 S    
C121  C153  1.601605 S    
O22   C14   1.279697 A    
C295  N87   1.158039 T    
C59   C75   1.400387 A    
C30   C219  1.458059 S    
N23   O150  1.301117 A    
C50   C66   1.400252 A    
C63   N15   1.439650 S    
C63   C79   1.400351 A    
C12   C131  1.425551 S    
Zn28  O36   1.939290 S    
C13   C134  1.425444 S    
C104  C265  1.484672 S    
N27   O158  1.301225 A    
O103  C15   1.279532 A    
C168  N105  1.494886 S    
C98   H2    1.110864 S    
N3    O109  1.301254 A    
C101  C268  1.482736 S    
O91   C3    1.279508 A    
O56   C38   1.273348 A    
O94   C6    1.279755 A    
O89   C1    1.279792 A    
O44   C36   1.273345 A    
Zn15  O5    1.940670 S    
C27   C222  1.458053 S    
C239  C240  1.399082 A    
C97   H1    1.110873 S    
C18   C215  1.458128 S    
C46   C94   1.454786 S    
C197  C325  1.453237 S    
C294  N86   1.157919 T    
C208  C336  1.453300 S    
O93   C5    1.279777 A    
C176  C305  1.494381 S    
Zn30  O102  1.914557 S    
C40   C83   1.460596 S    
Zn24  O2    1.941105 S    
C193  C210  1.411080 A    
O99   C11   1.279526 A    
C123  C155  1.605560 S    
O26   C18   1.273299 A    
O67   C47   1.274223 A    
C107  H11   1.103604 S    
C167  N106  1.494884 S    
C107  C262  1.484675 S    
C298  N90   1.157921 T    
Zn31  O39   1.939285 S    
C72   C248  1.450797 S    
C229  N21   1.436465 S    
O20   C12   1.279991 A    
O39   C31   1.273187 A    
C259  N51   1.157536 T    
Zn17  O41   1.939360 S    
O40   C32   1.273232 A    
Zn29  O7    1.941182 S    
C287  N79   1.157947 T    
C120  C280  1.488483 S    
C212  C228  1.409221 A    
N9    O122  1.301394 A    
N102  O180  1.303835 A    
C174  N99   1.483740 S    
C261  N53   1.157519 T    
C176  N97   1.494891 S    
C59   C95   1.410357 A    
C168  C313  1.494383 S    
Zn26  O34   1.939323 S    
Zn23  O1    1.941114 S    
C114  C274  1.484896 S    
C53   C69   1.400257 A    
C203  C220  1.410761 A    
C55   C71   1.400322 A    
Zn19  O27   1.939285 S    
O81   C25   1.273935 A    
C52   C68   1.400434 A    
C318  N126  1.157871 T    
N18   O139  1.300553 A    
Zn28  O100  1.914565 S    
O49   C37   1.273341 A    
Zn13  O67   1.938746 S    
C10   C129  1.425437 S    
C175  C306  1.494371 S    
C111  H15   1.103611 S    
C267  N59   1.157535 T    
O42   C34   1.273304 A    
C58   C74   1.400541 A    
C149  C188  1.481438 S    
C51   C91   1.410326 A    
C196  C211  1.411122 A    
C226  N18   1.436447 S    
N31   O165  1.300558 A    
Zn3   O3    1.940670 S    
Zn1   O63   1.938746 S    
C110  C259  1.482730 S    
C49   C89   1.410308 A    
O30   C22   1.273021 A    
C333  N141  1.157536 T    
C281  N73   1.158080 T    
C156  C165  1.613032 S    
Zn3   O61   1.938715 S    
C145  C192  1.481450 S    
Zn8   O2    1.940681 S    
C109  H13   1.110871 S    
C37   C82   1.460601 S    
C195  C323  1.453223 S    
Zn5   O59   1.938746 S    
C147  C190  1.482990 S    
C213  C229  1.409751 A    
C115  C147  1.605563 S    
C214  C230  1.409310 A    
C169  C312  1.490722 S    
C238  N30   1.436015 S    
C215  C231  1.409397 A    
C119  C279  1.488478 S    
N112  O200  1.303310 A    
Zn20  O28   1.939290 S    
C151  C170  1.613018 S    
C233  N25   1.435771 S    
C254  N46   1.157549 T    
C47   C95   1.454755 S    
N7    O117  1.301251 A    
N4    O111  1.301234 A    
C76   C88   1.410831 A    
C203  C204  1.400364 A    
C110  C111  1.570403 S    
C69   C83   1.410762 A    
C113  C116  1.604090 S    
C117  C293  1.489057 S    
Zn21  O29   1.939253 S    
C140  C188  1.200858 T    
C194  C209  1.410701 A    
N26   O156  1.301181 A    
C11   C132  1.425536 S    
C52   C92   1.410374 A    
N30   O164  1.301188 A    
C125  C128  1.604095 S    
C258  N50   1.157518 T    
C126  C127  1.604105 S    
C154  C167  1.603240 S    
C207  C208  1.400369 A    
C98   C146  1.582529 S    
C100  C269  1.484677 S    
C197  C214  1.410633 A    
C137  C185  1.201031 T    
C32   C217  1.458108 S    
C196  C324  1.453313 S    
C121  C124  1.604098 S    
Zn9   O81   1.939024 S    
C293  N85   1.157919 T    
C66   C82   1.410753 A    
C157  C164  1.603239 S    
N10   O124  1.301397 A    
C122  C123  1.604099 S    
C105  H9    1.110872 S    
C158  C163  1.603244 S    
N101  O177  1.301197 A    
C122  C154  1.601595 S    
Zn27  O7    1.941114 S    
C75   C251  1.450802 S    
C153  C184  1.481444 S    
Zn5   O3    1.940612 S    
N14   O132  1.301395 A    
C7    C144  1.425551 S    
C64   C80   1.400569 A    
Zn6   O4    1.940751 S    
C108  H12   1.103611 S    
C8    C143  1.425546 S    
C129  C177  1.201038 T    
C24   C209  1.458146 S    
Zn7   O9    1.915859 S    
C43   C91   1.454742 S    
C206  C334  1.453318 S    
C97   C100  1.570402 S    
O37   C29   1.273313 A    
Zn20  O92   1.914565 S    
Zn27  O35   1.939285 S    
C41   C89   1.454752 S    
C284  N76   1.157947 T    
C98   C271  1.482723 S    
O35   C27   1.273156 A    
C202  C330  1.453221 S    
C328  N136  1.157556 T    
Zn8   O58   1.938754 S    
N26   O155  1.300549 A    
Zn24  O32   1.939290 S    
C277  N69   1.158079 T    
C101  C104  1.570437 S    
C228  N20   1.435077 S    
C266  N58   1.157514 T    
Zn24  O96   1.914565 S    
C127  C159  1.605567 S    
C164  N109  1.494889 S    
C136  C184  1.200867 T    
C205  C333  1.453262 S    
C243  N35   1.157556 T    
C252  N44   1.157554 T    
C103  H7    1.103609 S    
C152  C185  1.482975 S    
N105  O186  1.303832 A    
O72   C46   1.274265 A    
O58   C42   1.274226 A    
C303  N95   1.158034 T    
C121  C281  1.484905 S    
O10   C2    1.279708 A    
C73   C85   1.410731 A    
C39   C84   1.460596 S    
C97   C145  1.582515 S    
C148  C189  1.482976 S    
C100  C148  1.580628 S    
C57   C93   1.410322 A    
C330  N138  1.157538 T    
C221  C237  1.409496 A    
N100  O175  1.302001 A    
O61   C43   1.274177 A    
C227  C228  1.399149 A    
O14   C6    1.279686 A    
C201  C202  1.400434 A    
Zn4   O76   1.938986 S    
O65   C45   1.274178 A    
C299  N91   1.158036 T    
C102  C267  1.482725 S    
C113  C145  1.601604 S    
C68   C84   1.410761 A    
C268  N60   1.157543 T    
C4    C139  1.425549 S    
C125  C301  1.489069 S    
C5    C142  1.425446 S    
Zn8   O80   1.938986 S    
C251  N43   1.157554 T    
C15   C136  1.425539 S    
O82   C26   1.274075 A    
N12   O127  1.301256 A    
C16   C135  1.425546 S    
C134  C182  1.201042 T    
C119  C151  1.605552 S    
C74   C250  1.450839 S    
C120  C152  1.605592 S    
C25   C224  1.458136 S    
O78   C22   1.274135 A    
C329  N137  1.157537 T    
C49   C65   1.400289 A    
N21   O146  1.301212 A    
O79   C23   1.274078 A    
N16   O135  1.301215 A    
C44   C92   1.454770 S    
C115  C275  1.488471 S    
C193  C321  1.453273 S    
C170  N103  1.483768 S    
C310  N118  1.157874 T    
O85   C29   1.273924 A    
O74   C18   1.273933 A    
N7    O118  1.301395 A    
N104  O184  1.303310 A    
C126  C158  1.601605 S    
C112  H16   1.103612 S    
O9    C1    1.279724 A    
C150  C187  1.481441 S    
O69   C47   1.274178 A    
C199  C327  1.453295 S    
C175  N98   1.494873 S    
C208  C223  1.411069 A    
Zn6   O78   1.938953 S    
C126  C302  1.489062 S    
O18   C10   1.279702 A    
Zn23  O31   1.939285 S    
C113  C289  1.489061 S    
C282  N74   1.158082 T    
Zn26  O50   1.939385 S    
C263  N55   1.157538 T    
O13   C5    1.279729 A    
C146  C191  1.481443 S    
C26   C223  1.458064 S    
C250  N42   1.157557 T    
C204  C219  1.411066 A    
Zn17  O1    1.941182 S    
N21   O145  1.300570 A    
O24   C16   1.279990 A    
Zn30  O38   1.939323 S    
C45   C93   1.454750 S    
C35   C88   1.460604 S    
C61   C95   1.410338 A    
C197  C198  1.400406 A    
C72   C82   1.410815 A    
O55   C37   1.273413 A    
C200  C215  1.410775 A    
C71   C81   1.410790 A    
C2    C137  1.425438 S    
C235  N27   1.436382 S    
C286  N78   1.158082 T    
N103  O181  1.302001 A    
C255  N47   1.157555 T    
N2    O107  1.301248 A    
O90   C2    1.279726 A    
Zn31  O103  1.914521 S    
C127  C303  1.488447 S    
C59   N11   1.439677 S    
C312  N120  1.157954 T    
Zn32  O104  1.914565 S    
O101  C13   1.279784 A    
N24   O151  1.300549 A    
Zn1   O15   1.915851 S    
Zn2   O16   1.915819 S    
C114  C115  1.604090 S    
C279  N71   1.157946 T    
C159  C178  1.482986 S    
O25   C17   1.273110 A    
Zn3   O13   1.915859 S    
C33   C86   1.460596 S    
N19   O141  1.300564 A    
C141  C189  1.201032 T    
O66   C46   1.274230 A    
C274  N66   1.158085 T    
O28   C20   1.273092 A    
C271  N63   1.157543 T    
O29   C21   1.273394 A    
C117  C120  1.604097 S    
N97   O170  1.303828 A    
N28   O160  1.301105 A    
C316  N124  1.157958 T    
C220  C236  1.409354 A    
C248  N40   1.157557 T    
Zn19  O91   1.914521 S    
O32   C24   1.273339 A    
C106  C107  1.570403 S    
O17   C9    1.279737 A    
N99   O174  1.303314 A    
N32   O168  1.301113 A    
N108  O192  1.303309 A    
Zn17  O89   1.914525 S    
N31   O166  1.301215 A    
C118  C294  1.489053 S    
C116  C292  1.488451 S    
N8    O119  1.301257 A    
C54   C92   1.410350 A    
C326  N134  1.157538 T    
O34   C26   1.273111 A    
C98   C99   1.570405 S    
O41   C33   1.273322 A    
C195  C196  1.400367 A    
C61   C77   1.400356 A    
Zn23  O95   1.914521 S    
C233  C234  1.399191 A    
C230  N22   1.435261 S    
C174  C175  1.622003 S    
C166  N107  1.483753 S    
C53   N5    1.439556 S    
O92   C4    1.279578 A    
C335  N143  1.157552 T    
C60   N12   1.439588 S    
Zn13  O85   1.939024 S    
C171  C310  1.494400 S    
C234  N26   1.435986 S    
C198  C213  1.411149 A    
C17   C216  1.458068 S    
C172  C309  1.494402 S    
C70   C84   1.410692 A    
C105  C108  1.570420 S    
Zn27  O51   1.939394 S    
C239  N31   1.436367 S    
C322  N130  1.157533 T    
C77   C87   1.410723 A    
C321  N129  1.157535 T    
Zn5   O77   1.939024 S    
C68   C244  1.450804 S    
C69   C245  1.450817 S    
C71   C247  1.450794 S    
Zn10  O72   1.938720 S    
C270  N62   1.157516 T    
N109  O194  1.303828 A    
N11   O126  1.301393 A    
C323  N131  1.157556 T    
O68   C48   1.274265 A    
C99   C147  1.580600 S    
C152  C169  1.613010 S    
C80   C86   1.410717 A    
C198  C326  1.453258 S    
Zn20  O4    1.941105 S    
N6    O115  1.301228 A    
N22   O148  1.301129 A    
C325  N133  1.157552 T    
C61   N13   1.439614 S    
C118  C150  1.601598 S    
C304  N96   1.158034 T    
C122  C282  1.484901 S    
C161  N112  1.483748 S    
C128  C160  1.605577 S    
C201  C218  1.410901 A    
O52   C40   1.273354 A    
C103  C266  1.484672 S    
C142  C190  1.201041 T    
Zn12  O22   1.915815 S    
C246  N38   1.157549 T    
Zn17  O25   1.939253 S    
O63   C41   1.274221 A    
C314  N122  1.157873 T    
O51   C39   1.273399 A    
C20   C213  1.458073 S    
Zn27  O99   1.914521 S    
C313  N121  1.157869 T    
N111  O197  1.302002 A    
C211  C227  1.409912 A    
N27   O157  1.300567 A    
Zn25  O97   1.914525 S    
C170  C311  1.490713 S    
N9    O121  1.301239 A    
N22   O147  1.300614 A    
C166  C315  1.490715 S    
Zn1   O1    1.940612 S    
C256  N48   1.157557 T    
C336  N144  1.157555 T    
Zn4   O14   1.915815 S    
C331  N139  1.157552 T    
N1    O106  1.301396 A    
C112  C160  1.580626 S    
C249  N41   1.157556 T    
C118  C119  1.604125 S    
C205  C222  1.410956 A    
C130  C178  1.201044 T    
Zn8   O10   1.915815 S    
C253  N45   1.157557 T    
C117  C149  1.601605 S    
O38   C30   1.273098 A    
C117  C277  1.484881 S    
C216  C232  1.409708 A    
C62   C96   1.410291 A    
Zn22  O94   1.914557 S    
N5    O114  1.301393 A    
C260  N52   1.157539 T    
Zn7   O57   1.938715 S    
C111  C159  1.580625 S    
C173  N100  1.483752 S    
Zn20  O44   1.939355 S    
C262  N54   1.157519 T    
N18   O140  1.301218 A    
C245  N37   1.157558 T    
C154  C183  1.481447 S    
N25   O154  1.301158 A    
Zn24  O48   1.939355 S    
C70   C246  1.450820 S    
Zn15  O87   1.938991 S    
N106  O187  1.301186 A    
C128  C288  1.488481 S    
O76   C20   1.274091 A    
C167  C314  1.494387 S    
C264  N56   1.157537 T    
O11   C3    1.279976 A    
Zn9   O23   1.915851 S    
Zn32  O6    1.941105 S    
C155  C182  1.482985 S    
Zn10  O24   1.915819 S    
C241  N33   1.157554 T    
C222  C238  1.409665 A    
Zn9   O71   1.938746 S    
C51   C67   1.400283 A    
Zn25  O5    1.941182 S    
C56   C90   1.410326 A    
N20   O143  1.300608 A    
C100  H4    1.103610 S    
C114  C146  1.601610 S    
C210  C226  1.409741 A    
C327  N135  1.157550 T    
C14   C133  1.425440 S    
C108  C156  1.580628 S    
C78   C254  1.450801 S    
C159  C162  1.613035 S    
N4    O112  1.301395 A    
N13   O130  1.301397 A    
C128  C304  1.488439 S    
C225  N17   1.435336 S    
Zn13  O7    1.940612 S    
C55   N7    1.439624 S    
O100  C12   1.279575 A    
C60   C96   1.410317 A    
Zn25  O33   1.939253 S    
C48   C96   1.454750 S    
N29   O161  1.300575 A    
Zn11  O69   1.938715 S    
N99   O173  1.302009 A    
C109  C157  1.582526 S    
N11   O125  1.301240 A    
C51   N3    1.439607 S    
O27   C19   1.273319 A    
C119  C295  1.488442 S    
C202  C217  1.410822 A    
Zn3   O75   1.938991 S    
N20   O144  1.301045 A    
C240  N32   1.435422 S    
O86   C30   1.274089 A    
C291  N83   1.158039 T    
N15   O133  1.301247 A    
C19   C214  1.458124 S    
O59   C43   1.274219 A    
C102  C103  1.570363 S    
C101  H5    1.110861 S    
C21   C212  1.458182 S    
Zn12  O70   1.938754 S    
Zn22  O30   1.939323 S    
C236  N28   1.435391 S    
C105  C264  1.482731 S    
C57   C73   1.400322 A    
C276  N68   1.157947 T    
C50   C90   1.410308 A    
O19   C11   1.279958 A    
C242  N34   1.157550 T    
C169  C172  1.621957 S    
C163  C318  1.494391 S    
C265  N57   1.157522 T    
Zn9   O5    1.940612 S    
C269  N61   1.157518 T    
C34   C85   1.460593 S    
Zn30  O8    1.941041 S    
C110  H14   1.110872 S    
C38   C81   1.460588 S    
O62   C44   1.274231 A    
Zn11  O7    1.940670 S    
C169  N104  1.483748 S    
Zn18  O2    1.941041 S    
C124  C284  1.488478 S    
C225  C226  1.399118 A    
C206  C221  1.410917 A    
C78   C88   1.410762 A    
C203  C331  1.453251 S    
Zn4   O62   1.938754 S    
C125  C285  1.484897 S    
C99   C270  1.484664 S    
C56   C72   1.400286 A    
O57   C41   1.274180 A    
C165  C316  1.490731 S    
O43   C35   1.273413 A    
C161  C164  1.621996 S    
C3    C140  1.425530 S    
Zn32  O56   1.939355 S    
Zn30  O54   1.939385 S    
C227  N19   1.436793 S    
N102  O179  1.301197 A    
C144  C192  1.200873 T    
Zn14  O86   1.938953 S    
N105  O185  1.301200 A    
C257  N49   1.157520 T    
C173  C176  1.622030 S    
C57   N9    1.439590 S    
C232  N24   1.436321 S    
C320  N128  1.157957 T    
C315  N123  1.157960 T    
C166  C167  1.622004 S    
N14   O131  1.301249 A    
C160  C177  1.482976 S    
O102  C14   1.279740 A    
Zn29  O53   1.939360 S    
C195  C212  1.410673 A    
O84   C28   1.273947 A    
Zn18  O26   1.939323 S    
Zn25  O49   1.939360 S    
C102  C150  1.582496 S    
N100  O176  1.303309 A    
C332  N140  1.157552 T    
C50   N2    1.439541 S    
Zn12  O84   1.938986 S    
C138  C186  1.201049 T    
C115  C291  1.488431 S    
C101  C149  1.582533 S    
C207  C335  1.453251 S    
C67   C83   1.410806 A    
N98   O172  1.303846 A    
C31   C218  1.458089 S    
O70   C48   1.274228 A    
C172  N101  1.494875 S    
C106  H10   1.110861 S    
Zn19  O43   1.939394 S    
C193  C194  1.400395 A    
C65   C81   1.410736 A    
C288  N80   1.157947 T    
N109  O193  1.301196 A    
C28   C221  1.458085 S    
C199  C200  1.400377 A    
C324  N132  1.157544 T    
N17   O137  1.300588 A    
C229  C230  1.399078 A    
N12   O128  1.301392 A    
O53   C39   1.273334 A    
N23   O149  1.300577 A    
O12   C4    1.279991 A    
O54   C40   1.273309 A    
C123  C283  1.488476 S    
C283  N75   1.157945 T    
C23   C210  1.458054 S    
N16   O136  1.301396 A    
C42   C90   1.454757 S    
N110  O196  1.303825 A    
C120  C296  1.488425 S    
Zn14  O8    1.940751 S    
C292  N84   1.158036 T    
O80   C24   1.273895 A    
Zn18  O42   1.939385 S    
C285  N77   1.158083 T    
C162  C163  1.622019 S    
Zn21  O45   1.939360 S    
C49   N1    1.439563 S    
N112  O199  1.302002 A    
C106  C154  1.582513 S    
Zn23  O47   1.939394 S    
C305  N113  1.157867 T    
C247  N39   1.157556 T    
Zn16  O88   1.938986 S    
Zn21  O93   1.914525 S    
C235  C236  1.399067 A    
Zn16  O6    1.940681 S    
Zn32  O40   1.939290 S    
