data_mof_unit_20241.cif
_audit_creation_date              2012-12-10T20:49:49-0500
_audit_creation_method            fapswitch 2.2
_symmetry_space_group_name_H-M    P1
_symmetry_Int_Tables_number       1
_space_group_crystal_system       triclinic
_cell_length_a                    8.1052
_cell_length_b                    8.928079
_cell_length_c                    16.845415
_cell_angle_alpha                 90.010447
_cell_angle_beta                  85.294141
_cell_angle_gamma                 89.97245
_cell_volume                      1214.88993818

loop_
_atom_site_label
_atom_site_type_symbol
_atom_type_description
_atom_site_fract_x
_atom_site_fract_y
_atom_site_fract_z
_atom_type_partial_charge
C1    C     C_R   0.499969 0.782015 0.500028 0.941384
C2    C     C_R   0.397370 0.583546 0.225244 -0.208172
C3    C     C_R   0.582490 0.354096 0.850963 -0.226409
C4    C     C_R   0.405775 0.603164 0.143662 -0.160997
C5    C     C_R   0.451522 0.413330 0.900021 0.185729
C6    C     C_R   0.551315 0.566592 0.097742 0.182892
C7    C     C_R   0.320972 0.488717 0.867939 -0.157888
C8    C     C_R   0.692657 0.520551 0.133346 -0.218855
C9    C     C_R   0.326568 0.512766 0.786367 -0.213134
C10   C     C_R   0.685013 0.502423 0.215458 -0.198476
C11   C     C_2   0.470128 0.425049 0.984625 0.067996
C12   C     C_R   0.500028 0.217986 0.499992 0.940625
C13   C     C_2   0.544254 0.549200 0.012529 0.065941
C14   C     C_3   0.616228 0.676028 0.960125 -0.411341
C15   C     C_3   0.505328 0.814465 0.967293 -0.866354
C16   C     C_3   0.409103 0.293293 0.036346 -0.406663
C17   C     C_3   0.220294 0.286653 0.045324 -0.875005
C18   C     C_1   0.499959 0.934803 0.500023 -0.196961
C19   C     C_1   0.500037 0.065199 0.500014 -0.196915
C20   C     C_R   0.477522 0.494450 0.653205 0.854401
C21   C     C_R   0.522484 0.505051 0.346633 0.856974
C22   C     C_R   0.464465 0.463922 0.737764 -0.024020
C23   C     C_R   0.535428 0.529070 0.261229 -0.031200
C24   C     C_R   0.589845 0.380660 0.769852 -0.195532
H1    H     H_    0.220620 0.536041 0.906455 0.131306
H2    H     H_    0.495828 0.857829 0.029303 0.258208
H3    H     H_    0.558745 0.903802 0.927158 0.248158
H4    H     H_    0.740494 0.705595 0.978801 0.199202
H5    H     H_    0.635303 0.644335 0.896417 0.224266
H6    H     H_    0.168505 0.392339 0.071708 0.252127
H7    H     H_    0.170735 0.268296 0.986563 0.258037
H8    H     H_    0.179729 0.192252 0.085152 0.252357
H9    H     H_    0.457564 0.187700 0.008265 0.204134
H10   H     H_    0.455092 0.296362 0.096538 0.222980
H11   H     H_    0.804789 0.490777 0.097319 0.130588
H12   H     H_    0.296398 0.638386 0.115726 0.135531
H13   H     H_    0.684194 0.297209 0.876145 0.134637
H14   H     H_    0.694908 0.338744 0.732434 0.159391
H15   H     H_    0.282045 0.608368 0.259882 0.160646
H16   H     H_    0.793267 0.462383 0.242658 0.157909
H17   H     H_    0.227957 0.575126 0.761829 0.151704
H18   H     H_    0.379575 0.786901 0.949986 0.258659
N1    N     N_1   0.926360 0.500000 0.499990 -0.037241
N2    N     N_1   0.073640 0.500000 0.500010 -0.037101
O1    O     O_R   0.363150 0.714660 0.500000 -0.615260
O2    O     O_R   0.636850 0.285340 0.500000 -0.615977
O3    O     O_R   0.636850 0.714660 0.500000 -0.612083
O4    O     O_R   0.363150 0.285340 0.500000 -0.611812
O5    O     O_R   0.346950 0.500000 0.615800 -0.618600
O6    O     O_R   0.653050 0.500000 0.384200 -0.621531
O7    O     O_R   0.620700 0.500000 0.615800 -0.622023
O8    O     O_R   0.379300 0.500000 0.384200 -0.622441
Zn1   Zn    Zn3+2 0.317220 0.500000 0.500010 0.983768
Zn2   Zn    Zn3+2 0.682780 0.500000 0.499990 0.982444

loop_
_geom_bond_atom_site_label_1
_geom_bond_atom_site_label_2
_ccdc_geom_bond_type
C2    C4    A    
N1    N2    T    
C4    H12   S    
C20   O5    A    
C16   H9    S    
C11   C16   S    
N1    Zn2   S    
C24   H14   S    
C7    H1    S    
C12   O4    A    
O7    Zn2   S    
C14   H4    S    
O2    Zn2   S    
C1    C18   S    
C3    C5    A    
O1    Zn1   S    
C13   C14   S    
C6    C13   S    
C17   H6    S    
C11   C13   D    
C1    O1    A    
C3    C24   A    
O6    Zn2   S    
O3    Zn2   S    
O5    Zn1   S    
C2    H15   S    
C12   C19   S    
C8    C10   A    
C21   O6    A    
C20   C22   S    
C5    C11   S    
C20   O7    A    
C21   C23   S    
O4    Zn1   S    
C17   H7    S    
C22   C24   A    
C9    C22   A    
C4    C6    A    
C14   H5    S    
C7    C9    A    
C10   H16   S    
O8    Zn1   S    
C3    H13   S    
C12   O2    A    
C18   C19   T    
C2    C23   A    
C5    C7    A    
C17   H8    S    
C14   C15   S    
C1    O3    A    
C10   C23   A    
C6    C8    A    
C9    H17   S    
C16   H10   S    
C15   H3    S    
N2    Zn1   S    
C21   O8    A    
C15   H18   S    
C16   C17   S    
C15   H2    S    
C8    H11   S    
