data_mof_unit_35054.cif
_audit_creation_date              2012-12-11T14:08:11-0500
_audit_creation_method            fapswitch 2.2
_symmetry_space_group_name_H-M    P1
_symmetry_Int_Tables_number       1
_space_group_crystal_system       triclinic
_cell_length_a                    10.940238
_cell_length_b                    10.951364
_cell_length_c                    18.728533
_cell_angle_alpha                 90.144273
_cell_angle_beta                  90.094995
_cell_angle_gamma                 60.209612
_cell_volume                      1947.33825032

loop_
_atom_site_label
_atom_site_type_symbol
_atom_type_description
_atom_site_fract_x
_atom_site_fract_y
_atom_site_fract_z
_atom_type_partial_charge
C1    C     C_R   0.239212 0.644398 0.609443 0.557657
C2    C     C_2   0.785304 0.143416 0.705932 -0.171467
C3    C     C_2   0.190887 0.658390 0.683115 -0.086606
C4    C     C_R   0.656956 0.623866 0.599970 0.545810
C5    C     C_2   0.201213 0.664132 0.841881 -0.143524
C6    C     C_2   0.213986 0.556873 0.802504 -0.163701
C7    C     C_2   0.252436 0.546277 0.726868 -0.111260
C8    C     C_2   0.657395 0.662501 0.325000 -0.078800
C9    C     C_2   0.637885 0.658589 0.158346 -0.099741
C10   C     C_2   0.721487 0.567239 0.208602 -0.044911
C11   C     C_2   0.654845 0.576004 0.275751 -0.124277
C12   C     C_3   0.660014 0.565043 0.799874 -0.256616
C13   C     C_2   0.632532 0.195876 0.319145 -0.093246
C14   C     C_2   0.638127 0.199624 0.164669 -0.115969
C15   C     C_2   0.523501 0.227975 0.201648 -0.173938
C16   C     C_R   0.628390 0.226887 0.601741 0.542408
C17   C     C_2   0.517152 0.257614 0.277153 -0.174122
C18   C     C_2   0.121000 0.683171 0.344269 -0.103492
C19   C     C_2   0.118389 0.686080 0.189021 -0.132198
C20   C     C_2   0.027935 0.789614 0.232230 -0.155609
C21   C     C_2   0.069646 0.799587 0.304191 0.208267
C22   C     C_R   0.703455 0.101610 0.897347 0.544869
C23   C     C_3   0.704429 0.676569 0.811184 0.009078
C24   C     C_R   0.725268 0.689601 0.887641 0.546455
C25   C     C_R   0.119941 0.706489 0.907938 0.549231
C26   C     C_R   0.673487 0.113270 0.101671 0.553288
C27   C     C_R   0.694646 0.688359 0.095307 0.549224
C28   C     C_R   0.216503 0.651641 0.403694 0.571395
C29   C     C_R   0.091208 0.710194 0.114052 0.549014
C30   C     C_R   0.645215 0.627494 0.396789 0.535835
C31   C     C_R   0.614004 0.233529 0.393569 0.567302
C32   C     C_3   0.591753 0.819089 0.778122 -0.246364
C33   C     C_3   0.578521 0.802415 0.697419 -0.287888
C34   C     C_3   0.678894 0.647041 0.675012 0.038368
C35   C     C_3   0.846931 0.629612 0.772497 -0.190095
C36   C     C_3   0.882426 0.476200 0.203655 -0.231161
C37   C     C_3   0.956717 0.398232 0.272610 -0.292200
C38   C     C_3   0.114754 0.303495 0.260745 -0.411909
C39   C     C_3   0.834487 0.612013 0.691762 0.145160
C40   C     C_3   0.637276 0.553250 0.720150 -0.211945
C41   C     C_2   0.673819 0.154711 0.670411 -0.138147
C42   C     C_2   0.690616 0.163607 0.826976 -0.122664
C43   C     C_2   0.802536 0.113083 0.783005 -0.163966
Cr1   Cr    Cr6+3 0.393010 0.398050 0.501480 1.045112
Cr2   Cr    Cr6+3 0.398820 0.707980 0.501630 1.089144
Cr3   Cr    Cr6+3 0.708140 0.393940 0.496850 1.113854
Cr4   Cr    Cr6+3 0.937950 0.938450 0.008940 1.021452
Cr5   Cr    Cr6+3 0.626180 0.937030 0.994750 1.022610
Cr6   Cr    Cr6+3 0.937790 0.625760 0.001410 1.010681
H1    H     H_    0.621662 0.901392 0.787172 0.145468
H2    H     H_    0.233794 0.735343 0.819812 0.110404
H3    H     H_    0.487811 0.855384 0.804113 0.146330
H4    H     H_    0.117128 0.762298 0.703704 0.096990
H5    H     H_    0.629205 0.494495 0.288908 0.142059
H6    H     H_    0.525801 0.725979 0.168641 0.115130
H7    H     H_    0.689792 0.739490 0.313321 0.094012
H8    H     H_    0.439270 0.214938 0.178846 0.160575
H9    H     H_    0.412885 0.325595 0.299232 0.155483
H10   H     H_    0.718095 0.220046 0.187018 0.134817
H11   H     H_    0.736994 0.126369 0.298465 0.169529
H12   H     H_    0.696860 0.441215 0.703919 0.184232
H13   H     H_    0.935032 0.880792 0.210690 0.162541
H14   H     H_    0.466807 0.834894 0.685285 0.166432
H15   H     H_    0.214689 0.595537 0.207939 0.079199
H16   H     H_    0.107038 0.596360 0.325951 0.056296
H17   H     H_    0.604740 0.873992 0.667396 0.114863
H18   H     H_    0.881392 0.708544 0.781703 0.090487
H19   H     H_    0.851457 0.692191 0.664035 0.108690
H20   H     H_    0.742824 0.461072 0.820353 0.154261
H21   H     H_    0.561057 0.594576 0.829614 0.114343
H22   H     H_    0.524172 0.587057 0.711020 0.107808
H23   H     H_    0.929203 0.529131 0.796102 0.198847
H24   H     H_    0.097577 0.365557 0.563652 0.364984
H25   H     H_    0.134667 0.223451 0.219053 0.172097
H26   H     H_    0.163142 0.367211 0.243971 0.123243
H27   H     H_    0.165343 0.248446 0.311223 0.199299
H28   H     H_    0.942006 0.475671 0.314905 0.172082
H29   H     H_    0.911142 0.333481 0.291558 0.244766
H30   H     H_    0.908256 0.396796 0.160694 0.173965
H31   H     H_    0.927289 0.544797 0.190292 0.180057
H32   H     H_    0.037970 0.051263 0.221042 0.346355
H33   H     H_    0.908315 0.044745 0.803109 0.161135
H34   H     H_    0.864142 0.157604 0.678499 0.211572
H35   H     H_    0.585126 0.232734 0.806698 0.106275
H36   H     H_    0.602062 0.127619 0.696822 0.115184
H37   H     H_    0.188482 0.480526 0.824389 0.183547
H38   H     H_    0.326840 0.442704 0.706142 0.176471
O1    O     O_R   0.507110 0.256280 0.580300 -0.513515
O2    O     O_R   0.837080 0.593860 0.915300 -0.526337
O3    O     O_R   0.064770 0.636080 0.932550 -0.499356
O4    O     O_R   0.280830 0.527190 0.577940 -0.472303
O5    O     O_R   0.068250 0.829200 0.092940 -0.507838
O6    O     O_R   0.799650 0.057040 0.080330 -0.506274
O7    O     O_R   0.586130 0.079760 0.077080 -0.510756
O8    O     O_R   0.627700 0.809630 0.066580 -0.493192
O9    O     O_R   0.816140 0.597180 0.075920 -0.527541
O10   O     O_R   0.045360 0.639170 0.081440 -0.505422
O11   O     O_3   0.833980 0.833750 0.001700 -0.252446
O12   O     O_R   0.524640 0.695370 0.425100 -0.472852
O13   O     O_R   0.261360 0.738990 0.584270 -0.513165
O14   O     O_R   0.532590 0.694780 0.574370 -0.529612
O15   O     O_R   0.744470 0.503750 0.577000 -0.421709
O16   O     O_R   0.698520 0.277230 0.571620 -0.478486
O17   O     O_R   0.498530 0.256920 0.419280 -0.519151
O18   O     O_R   0.272880 0.527780 0.428680 -0.521880
O19   O     O_R   0.252780 0.739630 0.423250 -0.411941
O20   O     O_2   0.108597 0.398983 0.705320 -0.330682
O21   O     O_2   0.941410 0.328811 0.667207 -0.303274
O22   O     O_3   0.015833 0.458270 0.576033 -0.500341
O23   O     O_R   0.735890 0.504390 0.415980 -0.512289
O24   O     O_2   0.010059 0.007691 0.398317 -0.243422
O25   O     O_2   0.221687 0.928919 0.324898 -0.271864
O26   O     O_3   0.979294 0.080643 0.264763 -0.591490
O27   O     O_R   0.690560 0.277820 0.422350 -0.462233
O28   O     O_3   0.499990 0.499990 0.499980 -0.290737
O29   O     O_R   0.089190 0.825870 0.932320 -0.516224
O30   O     O_R   0.819070 0.053960 0.931440 -0.494877
O31   O     O_R   0.607070 0.076440 0.916460 -0.518169
O32   O     O_R   0.647110 0.806550 0.917690 -0.505472
S1    S     S_3+6 0.978612 0.442890 0.661557 -0.008477
S2    S     S_3+6 0.072788 0.956005 0.325616 0.003100

loop_
_geom_bond_atom_site_label_1
_geom_bond_atom_site_label_2
_ccdc_geom_bond_type
C26   O7    A    
C22   O30   A    
C12   H20   S    
Cr5   O8    S    
O24   S2    D    
C18   C21   D    
C39   H19   S    
O21   S1    D    
C27   O8    A    
C19   C20   D    
Cr6   O3    S    
C24   O2    A    
C8    H7    S    
Cr1   O17   S    
C13   H11   S    
C38   H27   S    
Cr1   O18   S    
C18   H16   S    
C14   H10   S    
Cr3   O15   S    
C12   C23   S    
C25   O3    A    
Cr4   O11   S    
Cr5   O7    S    
Cr3   O28   S    
C30   O23   A    
C34   C40   S    
C36   C37   S    
C40   H22   S    
C3    C7    D    
C5    C6    D    
C2    C41   D    
C39   S1    S    
C15   C17   S    
Cr4   O5    S    
C32   H3    S    
Cr6   O11   S    
C7    H38   S    
Cr1   O28   S    
C28   O19   A    
C4    O15   A    
C23   C24   S    
C9    H6    S    
C2    C43   S    
C9    C10   D    
C19   H15   S    
C31   O27   A    
C17   H9    S    
C26   O6    A    
C1    O4    A    
C20   H13   S    
C15   H8    S    
C27   O9    A    
C1    O13   A    
C33   H17   S    
Cr5   O32   S    
C38   H26   S    
Cr4   O29   S    
C4    C34   S    
Cr3   O27   S    
C34   C39   S    
C18   C28   S    
Cr2   O12   S    
C25   O29   A    
Cr5   O31   S    
C37   H28   S    
C30   O12   A    
C36   H30   S    
C40   H12   S    
C32   C33   S    
C1    C3    S    
C12   C40   S    
C35   C39   S    
C37   C38   S    
Cr2   O28   S    
C16   O16   A    
C35   H18   S    
C28   O18   A    
C33   H14   S    
C4    O14   A    
C33   C34   S    
Cr4   O6    S    
C42   H35   S    
C14   C26   S    
Cr1   O4    S    
C32   H1    S    
C11   H5    S    
Cr2   O14   S    
C5    C25   S    
C35   H23   S    
C23   C35   S    
Cr3   O23   S    
C36   H31   S    
C42   C43   D    
C19   C29   S    
O20   S1    D    
Cr5   O11   S    
Cr2   O19   S    
C9    C27   S    
C38   H25   S    
C22   O31   A    
C12   H21   S    
C24   O32   A    
C13   C31   S    
Cr6   O2    S    
Cr2   O13   S    
H24   O22   S    
C6    C7    S    
C29   O10   A    
C41   H36   S    
Cr3   O16   S    
C6    H37   S    
C13   C17   D    
C8    C30   S    
C31   O17   A    
O25   S2    D    
C23   C32   S    
C2    H34   S    
C3    H4    S    
C22   C42   S    
C8    C11   D    
Cr6   O9    S    
C21   S2    S    
C10   C11   S    
Cr6   O10   S    
Cr4   O30   S    
O26   S2    S    
C20   C21   S    
H32   O26   S    
C16   O1    A    
C43   H33   S    
C14   C15   D    
C5    H2    S    
C10   C36   S    
Cr1   O1    S    
C37   H29   S    
C16   C41   S    
C29   O5    A    
O22   S1    S    
