data_mof_unit_42502.cif
_audit_creation_date              2012-12-11T15:57:35-0500
_audit_creation_method            fapswitch 2.2
_symmetry_space_group_name_H-M    P1
_symmetry_Int_Tables_number       1
_space_group_crystal_system       triclinic
_cell_length_a                    10.708374
_cell_length_b                    10.781009
_cell_length_c                    17.028053
_cell_angle_alpha                 99.714342
_cell_angle_beta                  99.65792
_cell_angle_gamma                 61.403262
_cell_volume                      1692.65892491

loop_
_atom_site_label
_atom_site_type_symbol
_atom_type_description
_atom_site_fract_x
_atom_site_fract_y
_atom_site_fract_z
_atom_type_partial_charge
C1    C     C_R   0.355341 0.774980 0.401321 0.555458
C2    C     C_2   0.829501 0.330788 0.159415 -0.109469
C3    C     C_2   0.854157 0.218332 0.195262 -0.160572
C4    C     C_2   0.825875 0.234419 0.277816 -0.163639
C5    C     C_2   0.329709 0.852570 0.333034 -0.107848
C6    C     C_2   0.340305 0.837725 0.161785 -0.125373
C7    C     C_2   0.401915 0.898610 0.219397 -0.137977
C8    C     C_2   0.432561 0.863334 0.302212 -0.021906
C9    C     C_2   0.342476 0.334569 0.658751 -0.098014
C10   C     C_2   0.339613 0.349732 0.833419 -0.105303
C11   C     C_2   0.453107 0.274807 0.790802 -0.024305
C12   C     C_R   0.369488 0.346385 0.357223 0.550540
C13   C     C_2   0.443663 0.330726 0.717727 -0.130820
C14   C     C_1   0.818289 0.342308 0.708631 -0.050448
C15   C     C_1   0.845591 0.313637 0.776216 -0.053942
C16   C     C_1   0.358676 0.763770 0.713570 -0.042764
C17   C     C_1   0.325924 0.811123 0.780427 -0.044664
C18   C     C_R   0.894204 0.307939 0.086749 0.552124
C19   C     C_R   0.318987 0.299498 0.119794 0.546216
C20   C     C_R   0.293277 0.893507 0.084673 0.550123
C21   C     C_R   0.886410 0.296699 0.858444 0.549206
C22   C     C_R   0.308460 0.293129 0.894486 0.550382
C23   C     C_R   0.775885 0.377202 0.404611 0.555417
C24   C     C_R   0.280495 0.880971 0.857153 0.551302
C25   C     C_R   0.381432 0.714056 0.631402 0.556153
C26   C     C_R   0.367557 0.346826 0.581347 0.537644
C27   C     C_R   0.773090 0.381295 0.629670 0.541044
C28   C     C_1   0.342955 0.336009 0.273907 -0.044993
C29   C     C_1   0.331501 0.326221 0.203064 -0.042532
C30   C     C_2   0.846396 0.330465 0.331965 -0.114754
Cr1   Cr    Cr6+3 0.608020 0.610770 0.522990 1.010953
Cr2   Cr    Cr6+3 0.289390 0.599570 0.488050 1.026314
Cr3   Cr    Cr6+3 0.602610 0.289690 0.489020 1.005940
Cr4   Cr    Cr6+3 0.053780 0.052210 0.965970 1.018837
Cr5   Cr    Cr6+3 0.060060 0.372530 0.992430 1.032138
Cr6   Cr    Cr6+3 0.372600 0.061970 0.991430 1.014941
H1    H     H_    0.899533 0.111416 0.164805 0.160320
H2    H     H_    0.532670 0.346052 0.707342 0.140544
H3    H     H_    0.257139 0.453044 0.816279 0.103619
H4    H     H_    0.780069 0.437875 0.189492 0.107808
H5    H     H_    0.895542 0.390383 0.317217 0.107804
H6    H     H_    0.309678 0.761124 0.174571 0.101581
H7    H     H_    0.224832 0.885621 0.299514 0.101272
O1    O     O_R   0.749250 0.499990 0.439200 -0.527095
O2    O     O_R   0.299400 0.468710 0.556310 -0.506094
O3    O     O_R   0.489240 0.256450 0.560730 -0.514122
O4    O     O_R   0.723350 0.306730 0.584410 -0.504662
O5    O     O_3   0.500010 0.500010 0.500020 -0.268914
O6    O     O_R   0.170650 0.915100 0.051290 -0.514113
O7    O     O_R   0.941960 0.184500 0.049060 -0.500252
O8    O     O_R   0.922640 0.402670 0.071640 -0.510955
O9    O     O_R   0.196880 0.368740 0.083740 -0.495345
O10   O     O_R   0.411120 0.181190 0.091480 -0.520549
O11   O     O_R   0.364220 0.944920 0.062310 -0.499519
O12   O     O_R   0.477870 0.725740 0.440280 -0.504870
O13   O     O_R   0.158740 0.906940 0.874970 -0.506150
O14   O     O_R   0.930920 0.176940 0.885610 -0.501064
O15   O     O_R   0.910730 0.394510 0.895320 -0.506005
O16   O     O_R   0.185840 0.361180 0.920280 -0.495917
O17   O     O_R   0.399210 0.173040 0.915160 -0.527212
O18   O     O_R   0.353170 0.937370 0.898860 -0.498412
O19   O     O_3   0.162150 0.162240 0.983280 -0.251309
O20   O     O_R   0.260770 0.742210 0.412610 -0.507877
O21   O     O_R   0.297990 0.466320 0.394220 -0.494602
O22   O     O_R   0.487720 0.253870 0.385870 -0.524297
O23   O     O_R   0.721940 0.304340 0.422320 -0.493492
O24   O     O_R   0.750770 0.502570 0.614050 -0.508800
O25   O     O_R   0.479280 0.728140 0.602370 -0.491215
O26   O     O_R   0.262290 0.744790 0.587460 -0.500767
H8    H     H_    0.254967 0.314901 0.666461 0.095959
H9    H     H_    0.781385 0.170414 0.292644 0.158716
H10   H     H_    0.428461 0.977661 0.205885 0.161886
C31   C     C_3   0.577602 0.835266 0.347830 -0.235851
C32   C     C_3   0.667768 0.877521 0.308023 -0.449673
H11   H     H_    0.693049 0.816096 0.248465 0.155070
H12   H     H_    0.610873 0.992984 0.301371 0.174322
H13   H     H_    0.770033 0.853898 0.346005 0.139590
H14   H     H_    0.560758 0.895419 0.408233 0.167438
H15   H     H_    0.641369 0.720015 0.354266 0.187114
C33   C     C_3   0.575951 0.128259 0.807566 -0.237431
C34   C     C_3   0.688403 0.061445 0.747655 -0.425824
H16   H     H_    0.638985 0.045873 0.686487 0.173794
H17   H     H_    0.739995 0.128824 0.747158 0.163070
H18   H     H_    0.772374 0.956138 0.765158 0.145999
H19   H     H_    0.630871 0.136264 0.868251 0.167296
H20   H     H_    0.532202 0.052548 0.804868 0.183781

loop_
_geom_bond_atom_site_label_1
_geom_bond_atom_site_label_2
_ccdc_geom_bond_type
Cr4   O13   S    
C24   O18   A    
C9    C26   S    
C2    C18   S    
Cr2   O2    S    
C34   H16   S    
Cr3   O22   S    
C7    C8    S    
C10   C22   S    
Cr1   O24   S    
C20   O6    A    
C32   H12   S    
C12   C28   S    
Cr5   O15   S    
C1    C5    S    
C23   O23   A    
C28   C29   T    
C22   O17   A    
C12   O21   A    
Cr4   O19   S    
Cr5   O16   S    
C31   C32   S    
C9    C13   D    
C33   H20   S    
Cr6   O10   S    
C26   O2    A    
C19   O9    A    
C16   C17   T    
C32   H13   S    
Cr3   O23   S    
Cr4   O14   S    
C31   H14   S    
C30   H5    S    
C14   C27   S    
C19   O10   A    
C5    H7    S    
Cr3   O3    S    
Cr2   O5    S    
C25   O25   A    
Cr6   O19   S    
C1    O20   A    
C34   H17   S    
C18   O8    A    
Cr1   O25   S    
Cr4   O7    S    
C17   C24   S    
Cr1   O1    S    
C23   C30   S    
C27   O24   A    
C9    H8    S    
Cr2   O21   S    
C20   O11   A    
C11   C33   S    
C22   O16   A    
C23   O1    A    
C10   H3    S    
C21   O14   A    
C33   H19   S    
C31   H15   S    
C13   H2    S    
Cr2   O26   S    
Cr1   O5    S    
Cr5   O8    S    
Cr3   O4    S    
C25   O26   A    
C3    C4    S    
C19   C29   S    
C7    H10   S    
C34   H18   S    
C18   O7    A    
C27   O4    A    
C16   C25   S    
Cr4   O6    S    
Cr2   O20   S    
C33   C34   S    
Cr6   O17   S    
C5    C8    D    
C6    C7    D    
C24   O13   A    
C6    C20   S    
C12   O22   A    
C2    C3    D    
C1    O12   A    
C21   O15   A    
C11   C13   S    
C8    C31   S    
Cr5   O19   S    
Cr6   O11   S    
C10   C11   D    
C26   O3    A    
C2    H4    S    
C15   C21   S    
C32   H11   S    
C3    H1    S    
C6    H6    S    
Cr5   O9    S    
Cr3   O5    S    
C14   C15   T    
Cr1   O12   S    
C4    H9    S    
C4    C30   D    
Cr6   O18   S    
