data_mof_unit_61401.cif
_audit_creation_date              2013-03-05T16:20:13-0500
_audit_creation_method            fapswitch 2.2
_symmetry_space_group_name_H-M    P1
_symmetry_Int_Tables_number       1
_space_group_crystal_system       triclinic
_cell_length_a                    44.10576
_cell_length_b                    38.827036
_cell_length_c                    21.700577
_cell_angle_alpha                 89.834163
_cell_angle_beta                  61.682109
_cell_angle_gamma                 89.91301
_cell_volume                      32714.790864

loop_
_atom_site_label
_atom_site_type_symbol
_atom_site_description
_atom_site_fract_x
_atom_site_fract_y
_atom_site_fract_z
_atom_type_partial_charge
O1    O     O_R   0.050900 0.528720 0.449120 -0.563537
O2    O     O_R   0.949100 0.528720 0.550880 -0.559969
O3    O     O_R   0.550900 0.028720 0.449120 -0.562376
O4    O     O_R   0.449100 0.028720 0.550880 -0.561427
O5    O     O_R   0.050870 0.471230 0.449150 -0.593648
O6    O     O_R   0.949130 0.471230 0.550850 -0.609152
O7    O     O_R   0.550870 0.971230 0.449150 -0.630951
O8    O     O_R   0.449130 0.971230 0.550850 -0.607395
C1    C     C_R   0.067167 0.499934 0.433756 0.979232
C2    C     C_R   0.932695 0.499964 0.567522 0.941844
C3    C     C_R   0.567088 0.999925 0.432889 1.020190
C4    C     C_R   0.432689 0.999958 0.567519 0.947469
O9    O     O_R   0.000000 0.528720 0.591610 -0.580119
O10   O     O_R   0.000000 0.528720 0.408390 -0.567154
O11   O     O_R   0.500000 0.028720 0.591610 -0.565349
O12   O     O_R   0.500000 0.028720 0.408390 -0.568722
O13   O     O_R   0.999960 0.471230 0.591650 -0.585804
O14   O     O_R   0.000040 0.471230 0.408350 -0.609858
O15   O     O_R   0.499960 0.971230 0.591650 -0.608648
O16   O     O_R   0.500040 0.971230 0.408350 -0.618926
C5    C     C_R   0.000572 0.499751 0.619856 0.941981
C6    C     C_R   0.998850 0.499771 0.380776 0.924582
C7    C     C_R   0.500862 0.999800 0.619562 0.941369
C8    C     C_R   0.499352 0.999738 0.380239 0.960256
Zn1   Zn    Zn3+2 0.000000 0.538360 0.500000 1.182905
Zn2   Zn    Zn3+2 0.500000 0.038360 0.500000 1.201933
Zn3   Zn    Zn3+2 0.000000 0.461590 0.500000 1.040307
Zn4   Zn    Zn3+2 0.500000 0.961590 0.500000 0.984158
C9    C     C_R   0.991361 0.529008 0.726657 -0.179823
C10   C     C_R   0.003236 0.529427 0.278239 -0.143259
C11   C     C_R   0.488812 0.028074 0.729306 -0.194156
C12   C     C_R   0.507537 0.028497 0.273754 -0.105832
C13   C     C_R   0.999217 0.498894 0.687480 -0.209604
C14   C     C_R   0.998415 0.498795 0.314875 -0.241346
C15   C     C_R   0.499979 0.999015 0.686753 -0.200978
C16   C     C_R   0.499834 0.998568 0.313442 -0.233812
C17   C     C_R   0.002851 0.467723 0.717553 0.365642
C18   C     C_R   0.997008 0.467227 0.283082 0.388288
C19   C     C_R   0.506683 0.968302 0.713672 0.350476
C20   C     C_R   0.496267 0.967121 0.283736 0.380452
C21   C     C_R   0.005198 0.469148 0.779835 0.369244
C22   C     C_R   0.998063 0.467919 0.217563 0.410194
C23   C     C_R   0.508593 0.969785 0.776417 0.378928
C24   C     C_R   0.496006 0.967921 0.219376 0.409431
C25   C     C_R   0.998395 0.500403 0.816368 -0.169868
C26   C     C_R   0.001240 0.499821 0.183990 -0.198840
C27   C     C_R   0.498402 0.000070 0.816367 -0.170317
C28   C     C_R   0.501303 0.999572 0.183798 -0.205861
C29   C     C_R   0.988487 0.529455 0.792288 -0.262335
C30   C     C_R   0.006575 0.529976 0.212365 -0.263893
C31   C     C_R   0.485564 0.027984 0.795241 -0.252321
C32   C     C_R   0.510375 0.028842 0.208429 -0.237723
C33   C     C_3   0.999939 0.566702 0.784700 0.659713
C34   C     C_3   0.991320 0.565793 0.222168 0.666043
C35   C     C_3   0.492584 0.066259 0.792744 0.649397
C36   C     C_3   0.499888 0.066376 0.214606 0.649586
C37   C     C_3   0.005818 0.564679 0.708927 0.681018
C38   C     C_3   0.984635 0.563194 0.298487 0.661153
C39   C     C_3   0.498817 0.065308 0.716634 0.683114
C40   C     C_3   0.494680 0.064685 0.290072 0.653024
C41   C     C_R   0.378561 0.467565 0.106195 0.412988
C42   C     C_R   0.622515 0.470102 0.897879 0.410157
C43   C     C_R   0.876722 0.011400 0.066319 0.401889
C44   C     C_R   0.122744 0.970569 0.897102 0.409017
C45   C     C_R   0.342725 0.465799 0.147986 0.275942
C46   C     C_R   0.658557 0.470187 0.859532 0.276181
C47   C     C_R   0.840767 0.009622 0.100316 0.283517
C48   C     C_R   0.158765 0.970908 0.858517 0.276401
C49   C     C_R   0.324011 0.495865 0.180488 -0.140297
C50   C     C_R   0.675965 0.500781 0.826621 -0.141124
C51   C     C_R   0.822917 0.000413 0.171433 -0.146235
C52   C     C_R   0.175949 0.001734 0.826440 -0.143230
C53   C     C_R   0.341476 0.527247 0.173289 0.468760
C54   C     C_R   0.657305 0.530747 0.829660 0.470886
C55   C     C_R   0.841003 0.992414 0.208278 0.455414
C56   C     C_R   0.157053 0.031706 0.830647 0.468148
C57   C     C_R   0.377307 0.528062 0.136360 -0.374359
C58   C     C_R   0.621490 0.529699 0.863614 -0.381888
C59   C     C_R   0.876868 0.992319 0.173222 -0.312840
C60   C     C_R   0.121233 0.030402 0.864650 -0.366246
H1    H     H_    0.390765 0.551856 0.133429 0.172814
H2    H     H_    0.607146 0.552451 0.864105 0.169779
H3    H     H_    0.890462 0.984779 0.201622 0.223197
H4    H     H_    0.106674 0.053166 0.865944 0.176656
C61   C     C_R   0.395683 0.498552 0.102657 -0.244109
C62   C     C_R   0.604252 0.499756 0.897905 -0.235010
C63   C     C_R   0.894966 0.001541 0.102376 -0.286040
C64   C     C_R   0.104244 0.000172 0.897959 -0.240730
C65   C     C_R   0.269365 0.506613 0.289621 -0.111069
C66   C     C_R   0.730900 0.509550 0.717894 -0.107166
C67   C     C_R   0.767780 0.969112 0.236015 -0.132744
C68   C     C_R   0.230729 0.011517 0.717781 -0.108337
H5    H     H_    0.284075 0.515146 0.314980 0.211191
H6    H     H_    0.716527 0.514755 0.689941 0.207440
H7    H     H_    0.781983 0.945465 0.230065 0.206668
H8    H     H_    0.216237 0.017320 0.690328 0.208357
C69   C     C_R   0.233556 0.507869 0.325995 0.299471
C70   C     C_R   0.766685 0.510424 0.682231 0.300714
C71   C     C_R   0.731975 0.968720 0.271742 0.382923
C72   C     C_R   0.266519 0.012369 0.681792 0.301315
C73   C     C_R   0.214353 0.496808 0.293165 -0.047134
C74   C     C_R   0.785339 0.503224 0.718414 -0.044444
C75   C     C_R   0.713633 0.999498 0.279251 -0.041597
C76   C     C_R   0.285329 0.004285 0.717246 -0.042737
C77   C     C_R   0.231413 0.484434 0.223935 0.427502
C78   C     C_R   0.767864 0.495741 0.790528 0.426103
C79   C     C_R   0.731386 0.030520 0.251221 0.333957
C80   C     C_R   0.268004 0.996005 0.789027 0.426710
C81   C     C_R   0.267199 0.484196 0.187627 -0.211981
C82   C     C_R   0.732068 0.495375 0.825720 -0.215397
C83   C     C_R   0.767155 0.030598 0.216184 -0.190229
C84   C     C_R   0.232220 0.995754 0.824584 -0.215252
H9    H     H_    0.280219 0.475616 0.133702 0.197849
H10   H     H_    0.718567 0.489734 0.881294 0.193302
H11   H     H_    0.780883 0.054507 0.195035 0.195836
H12   H     H_    0.218854 0.989497 0.879891 0.193670
C85   C     C_R   0.286271 0.495066 0.220303 0.053595
C86   C     C_R   0.713597 0.501791 0.789372 0.059989
C87   C     C_R   0.785325 0.999956 0.208172 0.063470
C88   C     C_R   0.213582 0.002953 0.788900 0.058856
C89   C     C_R   0.159258 0.521299 0.306973 0.440358
C90   C     C_R   0.842076 0.528310 0.691899 0.452510
C91   C     C_R   0.656849 0.983818 0.289159 0.439718
C92   C     C_R   0.342215 0.028264 0.692510 0.451671
C93   C     C_R   0.123232 0.520578 0.339089 0.310805
C94   C     C_R   0.878070 0.526333 0.657387 0.325110
C95   C     C_R   0.620802 0.982413 0.328958 0.294179
C96   C     C_R   0.378144 0.025594 0.659032 0.331767
C97   C     C_R   0.104719 0.499698 0.398578 -0.307422
C98   C     C_R   0.894932 0.500190 0.607303 -0.312605
C99   C     C_R   0.604464 0.999669 0.393632 -0.289989
C100  C     C_R   0.394905 0.000241 0.607093 -0.318222
C101  C     C_R   0.122446 0.478380 0.423517 0.352929
C102  C     C_R   0.875161 0.474743 0.596317 0.361212
C103  C     C_R   0.623996 0.016017 0.420665 0.336388
C104  C     C_R   0.375018 0.975777 0.594020 0.358915
C105  C     C_R   0.158244 0.477691 0.388605 -0.162761
C106  C     C_R   0.839454 0.476106 0.633291 -0.160120
C107  C     C_R   0.659668 0.015383 0.383021 -0.182349
C108  C     C_R   0.339305 0.977543 0.630377 -0.159662
H13   H     H_    0.171816 0.460726 0.406970 0.221478
H14   H     H_    0.824376 0.456437 0.624921 0.221505
H15   H     H_    0.674743 0.027393 0.404564 0.210873
H16   H     H_    0.324128 0.958512 0.620636 0.221357
C109  C     C_R   0.176681 0.498796 0.330350 -0.053679
C110  C     C_R   0.822933 0.502691 0.680554 -0.055261
C111  C     C_R   0.676078 0.999446 0.317674 -0.034034
C112  C     C_R   0.322923 0.003635 0.679049 -0.056772
O17   O     O_R   0.971240 0.449020 0.028740 -0.597896
O18   O     O_R   0.028760 0.449020 0.971260 -0.582266
O19   O     O_R   0.471240 0.949020 0.028740 -0.602016
O20   O     O_R   0.528760 0.949020 0.971260 -0.589630
C113  C     C_R   0.000033 0.432787 0.999115 1.058761
C114  C     C_R   0.500025 0.932833 0.999172 1.077725
O21   O     O_R   0.971230 0.499930 0.937140 -0.622655
O22   O     O_R   0.028770 0.499930 0.062860 -0.612331
O23   O     O_R   0.471230 0.999930 0.937140 -0.628065
O24   O     O_R   0.528770 0.999930 0.062860 -0.618071
O25   O     O_R   0.028710 0.499970 0.879680 -0.598805
O26   O     O_R   0.971290 0.499970 0.120320 -0.612459
O27   O     O_R   0.528710 0.999970 0.879680 -0.603719
O28   O     O_R   0.471290 0.999970 0.120320 -0.621342
C115  C     C_R   0.999602 0.501561 0.880556 0.984327
C116  C     C_R   0.000368 0.501048 0.119493 0.948340
C117  C     C_R   0.499592 0.001353 0.880553 0.996460
C118  C     C_R   0.500366 0.000955 0.119463 0.961202
Zn5   Zn    Zn3+2 0.961590 0.499920 0.038380 1.046241
Zn6   Zn    Zn3+2 0.038410 0.499920 0.961620 1.054026
Zn7   Zn    Zn3+2 0.461590 0.999920 0.038380 1.027959
Zn8   Zn    Zn3+2 0.538410 0.999920 0.961620 1.031464
O29   O     O_R   0.971230 0.550840 0.028760 -0.623846
O30   O     O_R   0.028770 0.550840 0.971240 -0.626295
O31   O     O_R   0.471230 0.050840 0.028760 -0.629354
O32   O     O_R   0.528770 0.050840 0.971240 -0.632409
C119  C     C_R   0.999986 0.567121 0.999636 0.829380
C120  C     C_R   0.499974 0.067130 0.999217 0.840141
O33   O     O_R   0.499940 0.449000 0.051660 -0.592381
O34   O     O_R   0.500060 0.449000 0.948340 -0.593111
O35   O     O_R   0.999940 0.949000 0.051660 -0.599859
O36   O     O_R   0.000060 0.949000 0.948340 -0.578600
C121  C     C_R   0.500089 0.432828 0.000011 1.010400
C122  C     C_R   0.000033 0.932841 0.000041 1.002502
O37   O     O_R   0.449070 0.499910 0.102620 -0.596884
O38   O     O_R   0.550930 0.499910 0.897380 -0.595044
O39   O     O_R   0.949070 0.999910 0.102620 -0.625999
O40   O     O_R   0.050930 0.999910 0.897380 -0.594747
O41   O     O_R   0.449060 0.499970 0.999190 -0.646262
O42   O     O_R   0.550940 0.499970 0.000810 -0.650558
O43   O     O_R   0.949060 0.999970 0.999190 -0.573323
O44   O     O_R   0.050940 0.999970 0.000810 -0.644292
C123  C     C_R   0.432955 0.499843 0.066457 0.979593
C124  C     C_R   0.567015 0.499725 0.933609 0.980207
C125  C     C_R   0.932712 0.000463 0.066557 0.955557
C126  C     C_R   0.067013 0.999809 0.933621 0.988241
Zn9   Zn    Zn3+2 0.499980 0.499890 0.069080 1.024875
Zn10  Zn    Zn3+2 0.500020 0.499890 0.930920 1.032239
Zn11  Zn    Zn3+2 0.999980 0.999890 0.069080 0.995366
Zn12  Zn    Zn3+2 0.000020 0.999890 0.930920 1.048663
O45   O     O_R   0.500010 0.550820 0.051820 -0.582267
O46   O     O_R   0.499990 0.550820 0.948180 -0.581857
O47   O     O_R   0.000010 0.050820 0.051820 -0.590021
O48   O     O_R   0.999990 0.050820 0.948180 -0.597841
C127  C     C_R   0.499911 0.567214 0.999935 0.899891
C128  C     C_R   0.000103 0.067272 0.999743 0.898499
C129  C     C_R   0.487839 0.623495 0.063383 0.414670
C130  C     C_R   0.507373 0.623271 0.937478 0.387353
C131  C     C_R   0.006608 0.123880 0.047731 0.408892
C132  C     C_R   0.994349 0.123458 0.948870 0.371057
C133  C     C_R   0.486711 0.659445 0.062477 -0.295469
C134  C     C_R   0.503518 0.658875 0.938941 -0.173925
C135  C     C_R   0.007484 0.159816 0.045060 -0.299770
C136  C     C_R   0.993302 0.159339 0.950271 -0.184931
H17   H     H_    0.481429 0.673505 0.109385 0.148025
H18   H     H_    0.509788 0.672569 0.890764 0.182793
H19   H     H_    0.014364 0.174038 0.079455 0.139543
H20   H     H_    0.987572 0.173253 0.913650 0.164104
C137  C     C_R   0.493642 0.677009 0.000945 0.139178
C138  C     C_R   0.000120 0.177317 0.997639 0.163309
C139  C     C_R   0.498589 0.605087 0.000320 -0.272896
C140  C     C_R   0.000269 0.105269 0.998940 -0.265342
C141  C     C_R   0.464151 0.733915 0.035727 0.358332
C142  C     C_R   0.526271 0.731115 0.956798 0.320233
C143  C     C_R   0.971935 0.233344 0.044003 0.359679
C144  C     C_R   0.029398 0.231688 0.942490 0.334260
C145  C     C_R   0.971261 0.269143 0.037458 0.270921
C146  C     C_R   0.028865 0.267463 0.936438 0.299356
C147  C     C_R   0.465465 0.769902 0.028344 0.266936
C148  C     C_R   0.527378 0.766787 0.948968 0.315906
C149  C     C_R   0.000030 0.286170 0.984549 -0.110307
C150  C     C_R   0.497232 0.786263 0.986118 -0.120464
C151  C     C_R   0.494591 0.714661 0.998819 -0.223095
C152  C     C_R   0.000677 0.214775 0.995437 -0.237894
C153  C     C_R   0.021911 0.340119 0.008586 0.427897
C154  C     C_R   0.980855 0.343056 0.963000 0.439148
C155  C     C_R   0.517056 0.839768 0.017551 0.428702
C156  C     C_R   0.483383 0.843884 0.955174 0.447713
C157  C     C_R   0.022493 0.375989 0.011118 0.219623
C158  C     C_R   0.979312 0.378834 0.970759 0.267192
C159  C     C_R   0.518993 0.875611 0.018300 0.223375
C160  C     C_R   0.482063 0.879639 0.962973 0.262181
C161  C     C_R   0.000265 0.395372 0.994581 -0.403129
C162  C     C_R   0.500140 0.895533 0.994027 -0.400822
C163  C     C_R   0.001286 0.323787 0.984130 -0.113342
C164  C     C_R   0.499498 0.823933 0.985417 -0.121896
C165  C     C_R   0.525662 0.377599 0.941534 0.349320
C166  C     C_R   0.475506 0.377048 0.057781 0.351494
C167  C     C_R   0.025983 0.877469 0.943107 0.350672
C168  C     C_R   0.974536 0.877309 0.057266 0.345124
C169  C     C_R   0.525736 0.341805 0.941478 -0.197043
C170  C     C_R   0.475548 0.341265 0.056449 -0.200319
C171  C     C_R   0.026145 0.841681 0.943804 -0.201701
C172  C     C_R   0.974775 0.841503 0.056941 -0.189864
H21   H     H_    0.545161 0.328103 0.896641 0.189952
H22   H     H_    0.456205 0.327134 0.100801 0.190337
H23   H     H_    0.046532 0.828049 0.900409 0.185129
H24   H     H_    0.954461 0.827728 0.100331 0.183548
C173  C     C_R   0.500606 0.323644 0.998528 -0.043073
C174  C     C_R   0.000528 0.823523 0.000394 -0.033203
C175  C     C_R   0.500448 0.395413 0.999851 -0.283741
C176  C     C_R   0.000163 0.895446 0.000101 -0.250613
C177  C     C_R   0.470584 0.268438 0.009533 -0.151108
C178  C     C_R   0.530317 0.267940 0.984972 -0.148307
C179  C     C_R   0.993099 0.767398 0.061424 -0.158372
C180  C     C_R   0.007736 0.767898 0.938505 -0.153020
H25   H     H_    0.447511 0.282347 0.018682 0.152449
H26   H     H_    0.553487 0.281447 0.976341 0.153679
H27   H     H_    0.987965 0.780687 0.109213 0.151246
H28   H     H_    0.012942 0.781578 0.890932 0.154515
C181  C     C_R   0.992776 0.731624 0.061206 -0.165930
C182  C     C_R   0.007737 0.732131 0.938164 -0.164141
C183  C     C_R   0.470490 0.232674 0.008524 -0.160241
C184  C     C_R   0.530116 0.232172 0.984889 -0.162572
H29   H     H_    0.987255 0.717746 0.108773 0.159067
H30   H     H_    0.013135 0.718660 0.890385 0.160925
H31   H     H_    0.447324 0.219420 0.016444 0.143701
H32   H     H_    0.553148 0.218520 0.976751 0.144019
C185  C     C_R   0.000161 0.713907 0.999547 0.092917
C186  C     C_R   0.500215 0.214291 0.996520 0.106857
C187  C     C_R   0.500511 0.286126 0.997624 0.142325
C188  C     C_R   0.000495 0.785766 0.000104 0.145636
C189  C     C_R   0.028219 0.658386 0.947968 -0.156718
C190  C     C_R   0.971699 0.658371 0.050375 -0.162630
C191  C     C_R   0.528744 0.158267 0.947482 -0.149434
C192  C     C_R   0.471099 0.158530 0.046337 -0.152860
H33   H     H_    0.050343 0.672049 0.908483 0.158496
H34   H     H_    0.949638 0.672025 0.089940 0.160236
H35   H     H_    0.551087 0.171609 0.907935 0.154259
H36   H     H_    0.448823 0.172079 0.085461 0.153945
C193  C     C_R   0.028285 0.622623 0.948269 -0.139631
C194  C     C_R   0.971559 0.622614 0.050108 -0.151225
C195  C     C_R   0.528785 0.122519 0.948552 -0.131421
C196  C     C_R   0.470987 0.122774 0.046781 -0.142177
H37   H     H_    0.050402 0.609080 0.908649 0.201790
H38   H     H_    0.949451 0.609069 0.089867 0.204623
H39   H     H_    0.551270 0.108883 0.910287 0.194933
H40   H     H_    0.448506 0.109345 0.085715 0.196456
C197  C     C_R   0.999931 0.604611 0.999274 -0.057901
C198  C     C_R   0.499914 0.104632 0.998182 -0.046605
C199  C     C_R   0.000004 0.676351 0.999242 0.081483
C200  C     C_R   0.499979 0.176527 0.996648 0.094724
O49   O     O_3   0.008077 0.436669 0.682827 -0.570551
C201  C     C_3   0.977350 0.417263 0.715515 0.143509
H41   H     H_    0.956013 0.430939 0.711881 0.133034
H42   H     H_    0.969590 0.412100 0.771568 0.190981
C202  C     C_3   0.983028 0.382762 0.678685 -0.754237
H43   H     H_    0.003893 0.368354 0.682368 0.253885
H44   H     H_    0.958998 0.367288 0.703809 0.205847
H45   H     H_    0.990297 0.386838 0.622688 0.262069
O50   O     O_3   0.997107 0.435561 0.312550 -0.565791
C203  C     C_3   0.963045 0.426385 0.361621 0.158772
H46   H     H_    0.947562 0.420219 0.335327 0.133574
H47   H     H_    0.949640 0.447335 0.399837 0.186707
C204  C     C_3   0.964108 0.394472 0.401385 -0.686638
H48   H     H_    0.977788 0.400296 0.431893 0.253716
H49   H     H_    0.937515 0.385899 0.437866 0.239831
H50   H     H_    0.977713 0.373278 0.364089 0.235671
O51   O     O_3   0.515167 0.938051 0.675514 -0.594062
C205  C     C_3   0.486781 0.915344 0.706153 0.157194
H51   H     H_    0.463734 0.926872 0.705665 0.140185
H52   H     H_    0.480278 0.908710 0.760994 0.197890
C206  C     C_3   0.495775 0.882111 0.664288 -0.793094
H53   H     H_    0.518355 0.869732 0.664896 0.253250
H54   H     H_    0.473586 0.864099 0.687712 0.209776
H55   H     H_    0.501964 0.887625 0.609299 0.258309
O52   O     O_3   0.496514 0.935413 0.312887 -0.586590
C207  C     C_3   0.462713 0.926227 0.363040 0.160763
H56   H     H_    0.447296 0.918498 0.337511 0.142955
H57   H     H_    0.449080 0.947699 0.399602 0.185275
C208  C     C_3   0.464528 0.895536 0.404942 -0.714380
H58   H     H_    0.478600 0.873998 0.369095 0.234177
H59   H     H_    0.478115 0.902859 0.434887 0.248847
H60   H     H_    0.438155 0.886657 0.442091 0.245936
Cl1   Cl    Cl    0.213689 0.524808 0.411479 -0.557521
Cl2   Cl    Cl    0.787339 0.521067 0.592506 -0.553993
Cl3   Cl    Cl    0.710933 0.929505 0.308111 -0.560990
Cl4   Cl    Cl    0.286979 0.024051 0.592607 -0.560553
Cl5   Cl    Cl    0.208829 0.468481 0.181358 -0.547561
Cl6   Cl    Cl    0.789981 0.485563 0.837805 -0.552258
Cl7   Cl    Cl    0.709632 0.069587 0.258032 -0.562219
Cl8   Cl    Cl    0.290265 0.984566 0.835397 -0.557172
O53   O     O_3   0.177416 0.541787 0.248637 -0.573557
C209  C     C_3   0.184083 0.573714 0.270674 0.133568
H61   H     H_    0.198269 0.570275 0.301246 0.155417
H62   H     H_    0.159598 0.587827 0.303094 0.186465
C210  C     C_3   0.206344 0.595453 0.206582 -0.783802
H63   H     H_    0.192663 0.600089 0.175572 0.271668
H64   H     H_    0.212023 0.620608 0.223099 0.214172
H65   H     H_    0.230997 0.581934 0.173368 0.253989
O54   O     O_3   0.825590 0.553659 0.741284 -0.580461
C211  C     C_3   0.820844 0.582670 0.707512 0.130503
H66   H     H_    0.806424 0.575847 0.678742 0.163900
H67   H     H_    0.846120 0.594210 0.670326 0.191967
C212  C     C_3   0.799985 0.609503 0.762280 -0.783565
H68   H     H_    0.813973 0.617505 0.791047 0.267693
H69   H     H_    0.795819 0.632436 0.736517 0.218477
H70   H     H_    0.774563 0.598635 0.800022 0.254194
O55   O     O_3   0.673437 0.968673 0.223815 -0.593378
C213  C     C_3   0.674736 0.992662 0.173653 0.105833
H71   H     H_    0.687796 0.016907 0.175434 0.180660
H72   H     H_    0.648349 0.998785 0.182160 0.182071
C214  C     C_3   0.695154 0.977215 0.101052 -0.709586
H73   H     H_    0.682589 0.953158 0.097121 0.258896
H74   H     H_    0.696314 0.995813 0.061018 0.214635
H75   H     H_    0.721795 0.971266 0.090744 0.277096
O56   O     O_3   0.325853 0.053079 0.743199 -0.581716
C215  C     C_3   0.321657 0.082909 0.710756 0.129324
H76   H     H_    0.307740 0.077102 0.680480 0.162869
H77   H     H_    0.347140 0.094582 0.675203 0.191268
C216  C     C_3   0.300458 0.109054 0.766862 -0.776711
H78   H     H_    0.313886 0.115991 0.797341 0.269497
H79   H     H_    0.296834 0.132671 0.742107 0.218497
H80   H     H_    0.274797 0.098053 0.802867 0.252275
O57   O     O_3   0.106391 0.540574 0.311927 -0.573265
C217  C     C_3   0.101904 0.520799 0.262226 0.143738
H81   H     H_    0.080370 0.502228 0.289456 0.123789
H82   H     H_    0.125671 0.506333 0.226372 0.185567
C218  C     C_3   0.093079 0.544615 0.217311 -0.709892
H83   H     H_    0.114956 0.562295 0.186867 0.259484
H84   H     H_    0.087729 0.529230 0.180476 0.202443
H85   H     H_    0.069987 0.560066 0.250964 0.294160
O58   O     O_3   0.896499 0.550098 0.673622 -0.568292
C219  C     C_3   0.902883 0.536704 0.727212 0.146076
H86   H     H_    0.930910 0.531840 0.704802 0.160983
H87   H     H_    0.889354 0.511970 0.751095 0.121097
C220  C     C_3   0.892179 0.563116 0.785558 -0.660780
H88   H     H_    0.863772 0.566444 0.812246 0.265681
H89   H     H_    0.900178 0.554241 0.824411 0.199869
H90   H     H_    0.904496 0.588342 0.763887 0.290302
O59   O     O_3   0.601155 0.966927 0.302493 -0.606620
C221  C     C_3   0.603318 0.930771 0.307033 0.132665
H91   H     H_    0.600225 0.922449 0.358985 0.149545
H92   H     H_    0.628404 0.921225 0.265083 0.205221
C222  C     C_3   0.574703 0.914103 0.297313 -0.709926
H93   H     H_    0.576310 0.922414 0.246822 0.281921
H94   H     H_    0.577108 0.885633 0.297347 0.197612
H95   H     H_    0.549290 0.921643 0.340880 0.285018
O60   O     O_3   0.396592 0.047187 0.679514 -0.563748
C223  C     C_3   0.402291 0.030486 0.731333 0.151883
H96   H     H_    0.430428 0.028365 0.711360 0.166650
H97   H     H_    0.391746 0.003742 0.745146 0.112385
C224  C     C_3   0.386954 0.051892 0.798020 -0.656973
H98   H     H_    0.358417 0.051510 0.822678 0.273256
H99   H     H_    0.394950 0.041048 0.835520 0.197543
H100  H     H_    0.395961 0.078961 0.786125 0.290513
Cl9   Cl    Cl    0.100838 0.452946 0.499626 -0.523869
Cl10  Cl    Cl    0.893427 0.440980 0.535901 -0.623023
Cl11  Cl    Cl    0.604763 0.036009 0.503096 -0.475409
Cl12  Cl    Cl    0.393172 0.942545 0.532436 -0.632204
O61   O     O_3   0.480712 0.606411 0.124850 -0.577664
C225  C     C_3   0.445005 0.608202 0.171294 0.094457
H101  H     H_    0.429288 0.603543 0.144185 0.121271
H102  H     H_    0.438422 0.633797 0.197248 0.146955
C226  C     C_3   0.435488 0.580678 0.227454 -0.743069
H103  H     H_    0.450135 0.584707 0.256676 0.254443
H104  H     H_    0.407495 0.582036 0.264649 0.214166
H105  H     H_    0.441553 0.554749 0.203031 0.266770
O62   O     O_3   0.519896 0.606397 0.874080 -0.574442
C227  C     C_3   0.556257 0.607323 0.841074 0.102043
H106  H     H_    0.566289 0.598472 0.876945 0.105565
H107  H     H_    0.565711 0.633914 0.822686 0.166461
C228  C     C_3   0.570655 0.583465 0.778088 -0.737338
H108  H     H_    0.561760 0.591838 0.740345 0.257951
H109  H     H_    0.599244 0.584077 0.751726 0.217870
H110  H     H_    0.561873 0.556659 0.795216 0.266085
O63   O     O_3   0.015089 0.106974 0.093694 -0.581488
C229  C     C_3   0.987698 0.110493 0.162472 0.124412
H111  H     H_    0.962642 0.102790 0.165602 0.129608
H112  H     H_    0.985887 0.137478 0.181063 0.132469
C230  C     C_3   0.994287 0.087134 0.211231 -0.773795
H113  H     H_    0.018874 0.094368 0.210213 0.254715
H114  H     H_    0.972961 0.089742 0.265558 0.200983
H115  H     H_    0.995811 0.059883 0.194551 0.255939
O64   O     O_3   0.987525 0.106258 0.901082 -0.604823
C231  C     C_3   0.016686 0.108637 0.834221 0.135863
H116  H     H_    0.040518 0.100078 0.835613 0.143608
H117  H     H_    0.020218 0.135505 0.813944 0.149253
C232  C     C_3   0.011527 0.085425 0.783643 -0.789482
H118  H     H_    0.988172 0.093452 0.780287 0.251036
H119  H     H_    0.034219 0.087257 0.730785 0.217656
H120  H     H_    0.008510 0.058264 0.801832 0.254224
O65   O     O_3   0.012952 0.439886 0.806351 -0.605647
C233  C     C_3   0.048752 0.433634 0.768154 0.129321
H121  H     H_    0.063693 0.456059 0.771275 0.167989
H122  H     H_    0.056827 0.428147 0.712193 0.206833
C234  C     C_3   0.057738 0.402350 0.798643 -0.730536
H123  H     H_    0.042847 0.379597 0.797338 0.242572
H124  H     H_    0.085653 0.396611 0.767545 0.233811
H125  H     H_    0.051749 0.407480 0.853475 0.261180
O66   O     O_3   0.998366 0.437111 0.185062 -0.556486
C235  C     C_3   0.964798 0.429045 0.196359 0.123398
H126  H     H_    0.962033 0.437349 0.150582 0.182815
H127  H     H_    0.943736 0.441599 0.243406 0.112711
C236  C     C_3   0.959565 0.390165 0.203278 -0.764417
H128  H     H_    0.964539 0.379922 0.245415 0.253556
H129  H     H_    0.932731 0.383821 0.215629 0.230507
H130  H     H_    0.977399 0.377395 0.153536 0.248425
O67   O     O_3   0.518625 0.941233 0.800719 -0.599769
C237  C     C_3   0.554821 0.937972 0.763042 0.124518
H131  H     H_    0.567757 0.961714 0.767626 0.164264
H132  H     H_    0.563634 0.932689 0.706724 0.189405
C238  C     C_3   0.565970 0.907925 0.792760 -0.748922
H133  H     H_    0.554012 0.883699 0.787700 0.241072
H134  H     H_    0.594417 0.905153 0.763678 0.222796
H135  H     H_    0.558021 0.912451 0.848830 0.269414
O68   O     O_3   0.493692 0.937273 0.189140 -0.555318
C239  C     C_3   0.459242 0.931352 0.203629 0.124223
H136  H     H_    0.455381 0.941173 0.160007 0.188515
H137  H     H_    0.439653 0.943860 0.252684 0.109292
C240  C     C_3   0.452290 0.892743 0.208750 -0.782700
H138  H     H_    0.459618 0.880465 0.246015 0.254180
H139  H     H_    0.424514 0.888035 0.226784 0.225367
H140  H     H_    0.467329 0.880621 0.156743 0.246627
O69   O     O_3   0.432816 0.717032 0.070721 -0.549074
C241  C     C_3   0.420683 0.718465 0.143832 0.157733
H141  H     H_    0.408631 0.743761 0.165158 0.201352
H142  H     H_    0.441434 0.714161 0.158352 0.089701
C242  C     C_3   0.393249 0.690932 0.179088 -0.805376
H143  H     H_    0.403634 0.665355 0.156024 0.238922
H144  H     H_    0.384912 0.690168 0.236059 0.209310
H145  H     H_    0.370597 0.696740 0.171416 0.273841
O70   O     O_3   0.555877 0.711937 0.919191 -0.567705
C243  C     C_3   0.571745 0.706094 0.961536 0.157339
H146  H     H_    0.553399 0.695098 0.013544 0.118367
H147  H     H_    0.582532 0.730551 0.969570 0.191101
C244  C     C_3   0.601002 0.680459 0.925099 -0.804202
H148  H     H_    0.620177 0.690736 0.873332 0.275941
H149  H     H_    0.613930 0.675807 0.957539 0.208415
H150  H     H_    0.590738 0.655644 0.917448 0.231701
O71   O     O_3   0.943475 0.215949 0.094011 -0.544997
C245  C     C_3   0.944450 0.216061 0.158218 0.156870
H151  H     H_    0.934742 0.241004 0.185524 0.192945
H152  H     H_    0.970831 0.211723 0.151491 0.089989
C246  C     C_3   0.921311 0.187468 0.204697 -0.806804
H153  H     H_    0.930147 0.162220 0.178192 0.234916
H154  H     H_    0.922210 0.186859 0.254968 0.203912
H155  H     H_    0.894335 0.191971 0.215691 0.279850
O72   O     O_3   0.057030 0.212853 0.893908 -0.563186
C247  C     C_3   0.081295 0.208766 0.918503 0.161962
H156  H     H_    0.069125 0.199387 0.973665 0.114743
H157  H     H_    0.094542 0.233616 0.915097 0.196599
C248  C     C_3   0.108108 0.182371 0.873242 -0.787238
H158  H     H_    0.121386 0.191147 0.817871 0.275647
H159  H     H_    0.127488 0.179036 0.891740 0.205424
H160  H     H_    0.095501 0.157180 0.876521 0.245102
Cl13  Cl    Cl    0.934294 0.292408 0.096060 -0.550439
Cl14  Cl    Cl    0.064291 0.288497 0.867598 -0.560074
Cl15  Cl    Cl    0.427126 0.794317 0.070967 -0.549332
Cl16  Cl    Cl    0.566793 0.786632 0.890835 -0.543653
O73   O     O_3   0.042759 0.320736 0.026993 -0.535072
C249  C     C_3   0.024388 0.312288 0.098975 0.129133
H161  H     H_    0.996164 0.308855 0.118619 0.130057
H162  H     H_    0.028146 0.332915 0.130114 0.202471
C250  C     C_3   0.038332 0.278620 0.111419 -0.823543
H163  H     H_    0.066257 0.281170 0.094564 0.282803
H164  H     H_    0.024529 0.271933 0.167949 0.210322
H165  H     H_    0.034476 0.257569 0.081249 0.222158
O74   O     O_3   0.960401 0.326644 0.939652 -0.521677
C251  C     C_3   0.979164 0.323731 0.866074 0.114848
H166  H     H_    0.002725 0.307824 0.850078 0.166179
H167  H     H_    0.986643 0.349537 0.840744 0.166074
C252  C     C_3   0.956776 0.306295 0.839504 -0.731889
H168  H     H_    0.933202 0.321824 0.853840 0.274423
H169  H     H_    0.971278 0.303915 0.781628 0.198328
H170  H     H_    0.949260 0.280183 0.862894 0.263230
O75   O     O_3   0.533905 0.819924 0.044965 -0.530759
C253  C     C_3   0.510880 0.812142 0.115704 0.120545
H171  H     H_    0.484013 0.807275 0.125514 0.126022
H172  H     H_    0.510503 0.833755 0.149549 0.193924
C254  C     C_3   0.523244 0.779784 0.136647 -0.816845
H173  H     H_    0.549692 0.783742 0.129283 0.279599
H174  H     H_    0.505737 0.773667 0.192508 0.209298
H175  H     H_    0.523387 0.757748 0.103944 0.225974
O76   O     O_3   0.466767 0.828219 0.922359 -0.515924
C255  C     C_3   0.490302 0.825203 0.850384 0.116501
H176  H     H_    0.512629 0.808745 0.842071 0.161025
H177  H     H_    0.499804 0.850961 0.826194 0.162253
C256  C     C_3   0.472290 0.808553 0.813250 -0.738549
H178  H     H_    0.450169 0.824699 0.819684 0.270292
H179  H     H_    0.490589 0.806033 0.756547 0.197470
H180  H     H_    0.462807 0.782557 0.835503 0.267090
Cl17  Cl    Cl    0.049996 0.395770 0.038945 -0.483545
Cl18  Cl    Cl    0.951929 0.402337 0.947289 -0.512325
Cl19  Cl    Cl    0.543821 0.894840 0.053175 -0.490689
Cl20  Cl    Cl    0.458381 0.903959 0.931390 -0.519945
Cl21  Cl    Cl    0.558312 0.399126 0.868689 -0.508576
Cl22  Cl    Cl    0.443059 0.397843 0.131879 -0.503507
Cl23  Cl    Cl    0.059282 0.898824 0.871043 -0.507288
Cl24  Cl    Cl    0.940761 0.898523 0.128611 -0.577544
O77   O     O_3   0.973197 0.590514 0.823962 -0.578645
C257  C     C_3   0.955331 0.581623 0.895501 0.139472
H181  H     H_    0.973215 0.573478 0.915109 0.151152
H182  H     H_    0.936796 0.560465 0.903835 0.150168
C258  C     C_3   0.935262 0.612754 0.937367 -0.742254
H183  H     H_    0.916552 0.621121 0.919657 0.260732
H184  H     H_    0.921009 0.606008 0.993832 0.205822
H185  H     H_    0.953215 0.634296 0.930084 0.269463
O78   O     O_3   0.015481 0.592442 0.186469 -0.575978
C259  C     C_3   0.036888 0.584608 0.115323 0.139462
H186  H     H_    0.021835 0.573977 0.091125 0.146084
H187  H     H_    0.056963 0.565713 0.110001 0.150864
C260  C     C_3   0.054799 0.617303 0.076519 -0.741332
H188  H     H_    0.070903 0.627892 0.098751 0.263870
H189  H     H_    0.071568 0.611506 0.020254 0.204040
H190  H     H_    0.035381 0.636865 0.081455 0.268480
O79   O     O_3   0.463160 0.086604 0.834835 -0.579611
C261  C     C_3   0.447620 0.076545 0.905762 0.145537
H191  H     H_    0.467031 0.071809 0.923306 0.161102
H192  H     H_    0.431998 0.052881 0.913779 0.152585
C262  C     C_3   0.423933 0.105147 0.950618 -0.753394
H193  H     H_    0.403640 0.110195 0.935233 0.261221
H194  H     H_    0.411512 0.097433 0.006614 0.204733
H195  H     H_    0.438986 0.129084 0.943769 0.268242
O80   O     O_3   0.527021 0.089568 0.173873 -0.568573
C263  C     C_3   0.544198 0.080239 0.102675 0.158629
H196  H     H_    0.525736 0.072811 0.084232 0.148016
H197  H     H_    0.562121 0.058474 0.094529 0.158904
C264  C     C_3   0.565063 0.110772 0.059423 -0.742591
H198  H     H_    0.584235 0.118530 0.076245 0.270688
H199  H     H_    0.578855 0.103636 0.003194 0.199357
H200  H     H_    0.547714 0.132867 0.066318 0.266276
Cl25  Cl    Cl    0.037920 0.574068 0.793624 -0.573240
Cl26  Cl    Cl    0.953590 0.569159 0.211007 -0.556511
Cl27  Cl    Cl    0.529465 0.077662 0.803108 -0.582786
Cl28  Cl    Cl    0.461678 0.074352 0.206794 -0.564144
Cl29  Cl    Cl    0.979720 0.592850 0.688281 -0.501869
Cl30  Cl    Cl    0.006338 0.594541 0.323898 -0.480743
Cl31  Cl    Cl    0.469820 0.090554 0.698982 -0.490373
Cl32  Cl    Cl    0.522922 0.091305 0.307388 -0.443399
Cl33  Cl    Cl    0.049875 0.565055 0.641357 -0.462992
Cl34  Cl    Cl    0.940540 0.558220 0.364146 -0.488682
Cl35  Cl    Cl    0.542463 0.071535 0.650402 -0.400118
Cl36  Cl    Cl    0.451020 0.067058 0.358921 -0.487972
O81   O     O_3   0.397283 0.438205 0.074796 -0.537056
C265  C     C_3   0.397632 0.433570 0.009932 0.117482
H201  H     H_    0.409922 0.455908 0.974464 0.135477
H202  H     H_    0.371082 0.430164 0.017133 0.170761
C266  C     C_3   0.418225 0.401384 0.974812 -0.703151
H203  H     H_    0.406990 0.378680 0.009539 0.275014
H204  H     H_    0.417726 0.396842 0.924808 0.202637
H205  H     H_    0.445362 0.404617 0.963485 0.247816
O82   O     O_3   0.604934 0.440067 0.928670 -0.538320
C267  C     C_3   0.602934 0.436495 0.995286 0.115993
H206  H     H_    0.589745 0.458980 0.029276 0.135167
H207  H     H_    0.629010 0.433795 0.990898 0.175709
C268  C     C_3   0.582388 0.404262 0.030557 -0.698523
H208  H     H_    0.594825 0.381311 0.997741 0.274190
H209  H     H_    0.581202 0.400761 0.082458 0.203044
H210  H     H_    0.555774 0.406659 0.038104 0.249773
O83   O     O_3   0.893863 0.021164 0.996690 -0.545031
C269  C     C_3   0.899225 0.057130 0.993253 0.131262
H211  H     H_    0.915979 0.064366 0.016698 0.119821
H212  H     H_    0.874322 0.071274 0.020728 0.156497
C270  C     C_3   0.917034 0.068327 0.916969 -0.661884
H213  H     H_    0.900631 0.062055 0.892421 0.253319
H214  H     H_    0.921658 0.096543 0.913350 0.221474
H215  H     H_    0.942083 0.054777 0.888289 0.262535
O84   O     O_3   0.105403 0.940382 0.927536 -0.536136
C271  C     C_3   0.103543 0.936668 0.994005 0.118239
H216  H     H_    0.090453 0.959129 0.028192 0.133541
H217  H     H_    0.129673 0.933863 0.989304 0.174715
C272  C     C_3   0.082964 0.904448 0.029238 -0.702798
H218  H     H_    0.095273 0.881521 0.996219 0.276817
H219  H     H_    0.081929 0.900812 0.080973 0.199760
H220  H     H_    0.056297 0.906968 0.037126 0.248833
Cl37  Cl    Cl    0.322204 0.425250 0.163073 -0.516979
Cl38  Cl    Cl    0.681278 0.431238 0.849118 -0.520317
Cl39  Cl    Cl    0.818658 0.017907 0.051917 -0.547280
Cl40  Cl    Cl    0.181699 0.931985 0.846793 -0.520871
O85   O     O_3   0.323690 0.556810 0.205954 -0.594988
C273  C     C_3   0.316258 0.575274 0.158621 0.087544
H221  H     H_    0.301764 0.559089 0.139070 0.139769
H222  H     H_    0.340436 0.584718 0.113390 0.148609
C274  C     C_3   0.293985 0.606208 0.196015 -0.770843
H223  H     H_    0.307903 0.623338 0.215063 0.264682
H224  H     H_    0.287801 0.620921 0.159436 0.208747
H225  H     H_    0.269587 0.597457 0.241274 0.263295
O86   O     O_3   0.674094 0.560585 0.795889 -0.592090
C275  C     C_3   0.677501 0.581965 0.844723 0.086000
H226  H     H_    0.691354 0.568427 0.869392 0.142425
H227  H     H_    0.651762 0.590554 0.886221 0.139494
C276  C     C_3   0.698301 0.613680 0.807069 -0.771891
H228  H     H_    0.684773 0.628321 0.783322 0.263780
H229  H     H_    0.701521 0.630556 0.844788 0.206481
H230  H     H_    0.724138 0.605865 0.765209 0.262229
O87   O     O_3   0.823570 0.982802 0.277923 -0.579282
C277  C     C_3   0.819579 0.012129 0.319363 0.080311
H231  H     H_    0.806831 0.033601 0.306118 0.140520
H232  H     H_    0.845030 0.021004 0.312350 0.143095
C278  C     C_3   0.797005 0.002868 0.395971 -0.723694
H233  H     H_    0.809145 0.981825 0.411402 0.264696
H234  H     H_    0.793723 0.025725 0.429212 0.206795
H235  H     H_    0.771277 0.994277 0.404528 0.262419
O88   O     O_3   0.173599 0.061830 0.797960 -0.589145
C279  C     C_3   0.177358 0.082515 0.847274 0.089271
H236  H     H_    0.191608 0.068549 0.870579 0.141157
H237  H     H_    0.151724 0.090725 0.889757 0.144394
C280  C     C_3   0.197837 0.114578 0.810749 -0.773629
H238  H     H_    0.183960 0.129599 0.788252 0.265009
H239  H     H_    0.201241 0.130954 0.848892 0.205518
H240  H     H_    0.223605 0.107148 0.768082 0.263117

loop_
_geom_bond_atom_site_label_1
_geom_bond_atom_site_label_2
_geom_bond_distance
_ccdc_geom_bond_type
C71   C75   1.407912 A    
C101  C105  1.390223 A    
O55   C213  1.410979 S    
C35   C39   1.540896 S    
O63   C229  1.412737 S    
C182  H30   1.083443 S    
C223  C224  1.522873 S    
O39   Zn11  2.005289 S    
C104  C108  1.388994 A    
C82   C86   1.398542 A    
C277  C278  1.520380 S    
C59   C63   1.400850 A    
C96   O60   1.381973 S    
C172  C174  1.401267 A    
C232  H118  1.110680 S    
C256  H180  1.110753 S    
C103  C107  1.387083 A    
C259  C260  1.519997 S    
O24   C118  1.272803 A    
C275  H226  1.115285 S    
O78   C259  1.409439 S    
C102  C106  1.388528 A    
C220  H88   1.110580 S    
C230  H113  1.110677 S    
C27   C117  1.419552 S    
C232  H120  1.110784 S    
C5    C13   1.440362 S    
C271  H216  1.113613 S    
C9    C13   1.391068 A    
C72   C76   1.407883 A    
C213  C214  1.520080 S    
C258  H183  1.110675 S    
C11   C39   1.498302 S    
O66   C235  1.416582 S    
C159  Cl19  1.766736 S    
C12   C32   1.362693 A    
C218  H85   1.107059 S    
O23   Zn7   2.030080 S    
C185  C199  1.458299 S    
C222  H93   1.110853 S    
C213  H71   1.114627 S    
C153  C163  1.404657 A    
C186  C200  1.466298 S    
C95   O59   1.384898 S    
O21   Zn5   2.030080 S    
C260  H189  1.110323 S    
C50   C54   1.407661 A    
C249  H162  1.111432 S    
C207  H56   1.103760 S    
O4    C4    1.285906 A    
C4    C100  1.468689 S    
C93   O57   1.383059 S    
O30   C119  1.284002 A    
C276  H230  1.110985 S    
C238  H134  1.110302 S    
C226  H104  1.110538 S    
C231  H116  1.115899 S    
C98   C102  1.412349 A    
C194  C197  1.401290 A    
C35   Cl27  1.800678 S    
C212  H69   1.110514 S    
O36   C122  1.283381 A    
C167  C176  1.407149 A    
O44   C126  1.283698 A    
C43   C47   1.397849 A    
C195  H39   1.083063 S    
C214  H75   1.110931 S    
C203  H47   1.111882 S    
C81   C85   1.399008 A    
C84   C88   1.398396 A    
C89   C109  1.405884 A    
C42   C46   1.401630 A    
C209  H61   1.114670 S    
C262  H195  1.110936 S    
Zn5   O29   2.012248 S    
C216  H78   1.110809 S    
O16   Zn4   2.021890 S    
C275  C276  1.520545 S    
C240  H138  1.109469 S    
C36   O80   1.421097 S    
C133  H17   1.079966 S    
O7    Zn4   2.010733 S    
O86   C275  1.411111 S    
C236  H130  1.107296 S    
C179  H27   1.083008 S    
O64   C231  1.413158 S    
C263  H196  1.103180 S    
C64   C126  1.445674 S    
C278  H234  1.110448 S    
C58   H2    1.082933 S    
C267  H207  1.112920 S    
C132  C136  1.393785 A    
C264  H200  1.110858 S    
C157  Cl17  1.768181 S    
C207  C208  1.521753 S    
C247  H156  1.114509 S    
C77   Cl5   1.762925 S    
C210  H65   1.110963 S    
C274  H223  1.110716 S    
C41   C61   1.403901 A    
C97   C101  1.409315 A    
C243  H147  1.113320 S    
C246  H154  1.110444 S    
O87   C277  1.411178 S    
O8    Zn4   2.010657 S    
C258  H185  1.110893 S    
C279  H237  1.114243 S    
C245  H151  1.110741 S    
C39   Cl35  1.790099 S    
C239  C240  1.523709 S    
O26   C116  1.274832 A    
C143  C152  1.404140 A    
C267  C268  1.520881 S    
Zn8   O32   2.012167 S    
C240  H140  1.107752 S    
C135  C138  1.392319 A    
C259  H186  1.104425 S    
C184  C186  1.403936 A    
O33   Zn9   2.012979 S    
C205  C206  1.520223 S    
O3    Zn2   2.011798 S    
C204  H50   1.110790 S    
C209  C210  1.520198 S    
C251  H166  1.113056 S    
C121  C175  1.452784 S    
C51   C87   1.459745 S    
C130  C139  1.415020 A    
C61   C123  1.448058 S    
C269  C270  1.519729 S    
C122  C176  1.451954 S    
O84   C271  1.412326 S    
C141  C147  1.404102 A    
C62   C124  1.445826 S    
C153  O73   1.384225 S    
C193  C197  1.401117 A    
C25   C115  1.419784 S    
C133  C137  1.396281 A    
C60   C64   1.394812 A    
C41   O81   1.383286 S    
O56   C215  1.410529 S    
C241  H141  1.108636 S    
C46   C50   1.410048 A    
O28   Zn7   2.016579 S    
O29   C119  1.283481 A    
C29   C33   1.515142 S    
C178  C187  1.399324 A    
C34   O78   1.421936 S    
C119  C197  1.455601 S    
C31   C35   1.514061 S    
C90   C110  1.401489 A    
C211  H66   1.114725 S    
C256  H178  1.110782 S    
C95   C99   1.407985 A    
C150  C164  1.465722 S    
C179  C181  1.389118 A    
C41   C45   1.401928 A    
C28   C32   1.394691 A    
C101  Cl9   1.763917 S    
C192  C196  1.388293 A    
C242  H144  1.110448 S    
C265  H201  1.113621 S    
C53   C57   1.392546 A    
C255  H176  1.113926 S    
C75   C79   1.407357 A    
C250  H164  1.110411 S    
O82   C267  1.412309 S    
C272  H218  1.110733 S    
C23   C27   1.403902 A    
C217  C218  1.519914 S    
O27   C117  1.276439 A    
C168  C172  1.390266 A    
O44   Zn11  2.021766 S    
C220  H89   1.110958 S    
C235  H127  1.115626 S    
C228  H108  1.110566 S    
C66   H6    1.083675 S    
C113  C161  1.455990 S    
C226  H103  1.110626 S    
C33   Cl25  1.798635 S    
C251  C252  1.519953 S    
C224  H98   1.109858 S    
C267  H206  1.113461 S    
C75   C111  1.458945 S    
C9    C29   1.368822 A    
O79   C261  1.409880 S    
C89   C93   1.400236 A    
C42   C62   1.404000 A    
C73   C109  1.464846 S    
C8    C16   1.440433 S    
C12   C16   1.387579 A    
C182  C185  1.399878 A    
C44   C48   1.401158 A    
C171  C174  1.400955 A    
C154  C158  1.397460 A    
C257  H181  1.104566 S    
C204  H49   1.109938 S    
C235  C236  1.523695 S    
O22   Zn6   2.030082 S    
C37   Cl29  1.790180 S    
C179  C188  1.403258 A    
C42   O82   1.383619 S    
C68   H8    1.083644 S    
C83   C87   1.397844 A    
C252  H168  1.110740 S    
C146  Cl14  1.767008 S    
C217  H81   1.112785 S    
C274  H225  1.111067 S    
O17   C113  1.283995 A    
C166  C175  1.408599 A    
O5    Zn3   2.010733 S    
C107  H15   1.084037 S    
C190  C194  1.388395 A    
C166  Cl22  1.762471 S    
C36   Cl28  1.798315 S    
C255  C256  1.519960 S    
Zn12  O48   2.013563 S    
C165  C175  1.408616 A    
C82   H10   1.083755 S    
C91   O55   1.382399 S    
O8    C4    1.285248 A    
C69   Cl1   1.762025 S    
C57   C61   1.394398 A    
O28   C118  1.274330 A    
C248  H158  1.110632 S    
C131  C135  1.396152 A    
C208  H59   1.110537 S    
C131  O63   1.383862 S    
C234  H123  1.110022 S    
C103  Cl11  1.757365 S    
C190  C199  1.400383 A    
O70   C243  1.412141 S    
Zn9   O45   2.011436 S    
C6    C14   1.439901 S    
C222  H95   1.109541 S    
C201  H42   1.113891 S    
C237  H131  1.114060 S    
C10   C14   1.388068 A    
O13   Zn3   2.024012 S    
O36   Zn12  2.010825 S    
C37   Cl33  1.795256 S    
C196  H40   1.083093 S    
O3    C3    1.282604 A    
C63   C125  1.466221 S    
C257  C258  1.519925 S    
C272  H220  1.109477 S    
O23   C117  1.272120 A    
O24   Zn8   2.030082 S    
C277  H232  1.113899 S    
C205  H51   1.114688 S    
O21   C115  1.272678 A    
O34   Zn10  2.010825 S    
C40   Cl32  1.792014 S    
C148  Cl16  1.767798 S    
C273  C274  1.520492 S    
C234  H125  1.108302 S    
O5    C1    1.281705 A    
C244  H148  1.110642 S    
O15   Zn4   2.024012 S    
C93   C97   1.409417 A    
C227  C228  1.520408 S    
C130  C134  1.391156 A    
C91   C95   1.404965 A    
C34   Cl26  1.796233 S    
C100  C104  1.411478 A    
C206  H55   1.110812 S    
C132  O64   1.383027 S    
C52   C88   1.462205 S    
C254  H173  1.110583 S    
C181  C185  1.400270 A    
C213  H72   1.113842 S    
C92   O56   1.382013 S    
C252  H169  1.110597 S    
C215  C216  1.520309 S    
C138  C152  1.454907 S    
C225  H101  1.116779 S    
C65   C85   1.399460 A    
C206  H53   1.110871 S    
C268  H210  1.109413 S    
C174  C188  1.466018 S    
C67   C87   1.397544 A    
C1    C97   1.458251 S    
C102  Cl10  1.758146 S    
C165  Cl21  1.762825 S    
C84   H12   1.083761 S    
C224  H100  1.109700 S    
C266  H205  1.108992 S    
O67   C237  1.412404 S    
C165  C169  1.389738 A    
C261  H191  1.104585 S    
C129  C139  1.413329 A    
C180  C182  1.388775 A    
C46   Cl38  1.767719 S    
C263  C264  1.520073 S    
O14   C6    1.270677 A    
C45   Cl37  1.767892 S    
O40   C126  1.284896 A    
C56   C60   1.391756 A    
C11   C31   1.368674 A    
C23   O67   1.385403 S    
C143  C145  1.398525 A    
C173  C187  1.456937 S    
C167  C171  1.389625 A    
C228  H110  1.110783 S    
O19   Zn7   2.011470 S    
C157  C161  1.409372 A    
O42   C124  1.283951 A    
C47   Cl39  1.768139 S    
C216  H80   1.111054 S    
O61   C225  1.412472 S    
O85   C273  1.410983 S    
C271  H217  1.112939 S    
C50   C86   1.461810 S    
O33   C121  1.283580 A    
C208  H60   1.109809 S    
O32   C120  1.284495 A    
C44   C64   1.403630 A    
C183  H31   1.082937 S    
C253  H172  1.111684 S    
C17   C21   1.404876 A    
C57   H1    1.084166 S    
C218  H84   1.110655 S    
C20   O52   1.384884 S    
C67   H7    1.083668 S    
O43   C125  1.287434 A    
C20   C24   1.402383 A    
C270  H214  1.110386 S    
C260  H188  1.110578 S    
C248  H160  1.111142 S    
Zn7   O31   2.012248 S    
C207  H57   1.111680 S    
C67   C71   1.390565 A    
C233  H121  1.114179 S    
O76   C255  1.411829 S    
O1    Zn1   2.011798 S    
O72   C247  1.412897 S    
C276  H229  1.110501 S    
C271  C272  1.520842 S    
C170  H22   1.083775 S    
C219  H86   1.108944 S    
O41   Zn10  2.021769 S    
C76   C112  1.460507 S    
C196  C198  1.400414 A    
O17   Zn5   2.011470 S    
C60   H4    1.084286 S    
C238  H135  1.109323 S    
C148  C150  1.404697 A    
C280  H238  1.110810 S    
C21   O65   1.385852 S    
C44   O84   1.383431 S    
C212  H68   1.110835 S    
C214  H74   1.110449 S    
C158  C161  1.410886 A    
C131  C140  1.416803 A    
C30   C34   1.514915 S    
C134  C137  1.394442 A    
O48   C128  1.292110 A    
C128  C140  1.475356 S    
C120  C198  1.456241 S    
C66   C86   1.397881 A    
C105  C109  1.396998 A    
C227  H106  1.115606 S    
C94   O58   1.382787 S    
O37   Zn9   2.005289 S    
C166  C170  1.389736 A    
O73   C249  1.414650 S    
C209  H62   1.114048 S    
C262  H194  1.110525 S    
C229  H111  1.115783 S    
C94   C98   1.414891 A    
C254  H175  1.111280 S    
C22   C26   1.408266 A    
C236  H129  1.110306 S    
C195  C198  1.400369 A    
C215  H76   1.114963 S    
C263  H197  1.111997 S    
C160  Cl20  1.767695 S    
C280  H239  1.110484 S    
C168  C176  1.406935 A    
O42   Zn9   2.021766 S    
C71   Cl3   1.762103 S    
C264  H199  1.110366 S    
O18   C113  1.281266 A    
O12   C8    1.288746 A    
C247  H157  1.112718 S    
O38   C124  1.284741 A    
C49   C53   1.410702 A    
C210  H64   1.110454 S    
C143  O71   1.383993 S    
C170  C173  1.397915 A    
Zn10  O46   2.013563 S    
O74   C251  1.412161 S    
C92   C96   1.399069 A    
O35   C122  1.283788 A    
C232  H119  1.110425 S    
C10   C30   1.365921 A    
C194  H38   1.082868 S    
C246  H153  1.110450 S    
O45   C127  1.293611 A    
C258  H184  1.110434 S    
C279  C280  1.520653 S    
C189  C199  1.400506 A    
C79   C83   1.388887 A    
C278  H235  1.110984 S    
C202  H44   1.110567 S    
O83   C269  1.412562 S    
C240  H139  1.110317 S    
O54   C211  1.410609 S    
C189  H33   1.083281 S    
C259  H187  1.112206 S    
C247  C248  1.521092 S    
C53   O85   1.381950 S    
C191  H35   1.082852 S    
C192  H36   1.082835 S    
O1    C1    1.283709 A    
C106  H14   1.084171 S    
C33   C37   1.540583 S    
C27   C31   1.395326 A    
C211  C212  1.520309 S    
C191  C195  1.388121 A    
C266  H203  1.110763 S    
C192  C200  1.403102 A    
C13   C17   1.417897 A    
C80   C84   1.389619 A    
C144  C146  1.396067 A    
C245  C246  1.520442 S    
C14   C18   1.424042 A    
C15   C19   1.417568 A    
C2    C98   1.468082 S    
C177  H25   1.083499 S    
O77   C257  1.409723 S    
C171  H23   1.083330 S    
C177  C187  1.399564 A    
C142  C148  1.393016 A    
C184  H32   1.082933 S    
C260  H190  1.110551 S    
C55   O87   1.381940 S    
C21   C25   1.403583 A    
C223  H97   1.118834 S    
C211  H67   1.113887 S    
C9    C37   1.496557 S    
C275  H227  1.114274 S    
C239  H137  1.115638 S    
C255  H177  1.113958 S    
C144  O72   1.383596 S    
C256  H179  1.110551 S    
C12   C40   1.493689 S    
C39   Cl31  1.789425 S    
C76   C80   1.407923 A    
C212  H70   1.110990 S    
C38   Cl30  1.791634 S    
C241  C242  1.520879 S    
C24   O68   1.387575 S    
C278  H233  1.110664 S    
C105  H13   1.083837 S    
C203  H46   1.104617 S    
C70   Cl2   1.762235 S    
C155  C159  1.395051 A    
C227  H107  1.113606 S    
O49   C201  1.412660 S    
C108  H16   1.084154 S    
C169  C173  1.397822 A    
C158  Cl18  1.768699 S    
O6    C2    1.285321 A    
C251  H167  1.113875 S    
C221  H91   1.116312 S    
C265  C266  1.520815 S    
C266  H204  1.110340 S    
C219  C220  1.522050 S    
C181  H29   1.083450 S    
C153  C157  1.394703 A    
C250  H165  1.111197 S    
C272  H219  1.110363 S    
C43   O83   1.382819 S    
C70   C74   1.408006 A    
C257  H182  1.112099 S    
O10   C6    1.287599 A    
C204  H48   1.110741 S    
C77   C81   1.390047 A    
C45   C49   1.411010 A    
C33   O77   1.421202 S    
C104  Cl12  1.756014 S    
O2    Zn1   2.011881 S    
C47   C51   1.405097 A    
O10   Zn1   2.023983 S    
C68   C88   1.398160 A    
O52   C207  1.412181 S    
C19   O51   1.384046 S    
C7    C15   1.440240 S    
C193  H37   1.082905 S    
C155  C164  1.407209 A    
C274  H224  1.110449 S    
O34   C121  1.284086 A    
C36   C40   1.543204 S    
Zn6   O30   2.012167 S    
C28   C118  1.417060 S    
C141  O69   1.385870 S    
C269  H211  1.114445 S    
C54   C58   1.391266 A    
C246  H155  1.110601 S    
C279  H236  1.115246 S    
O40   Zn12  2.005290 S    
C142  O70   1.383889 S    
C129  O61   1.384088 S    
O60   C223  1.418346 S    
C145  C149  1.407614 A    
C90   O54   1.382214 S    
C74   C110  1.460273 S    
C203  C204  1.521228 S    
O13   C5    1.273326 A    
O43   Zn12  2.021769 S    
C132  C140  1.418326 A    
C22   O66   1.387193 S    
C24   C28   1.408944 A    
C114  C162  1.452716 S    
C208  H58   1.110771 S    
C268  H209  1.110368 S    
O15   C7    1.275100 A    
C52   C56   1.408077 A    
C108  C112  1.394230 A    
C221  C222  1.520539 S    
O62   C227  1.412954 S    
C262  H193  1.110677 S    
O81   C265  1.412369 S    
C245  H152  1.114415 S    
O20   C114  1.280625 A    
O50   C203  1.414042 S    
O7    C3    1.279917 A    
C222  H94   1.110367 S    
C201  C202  1.520263 S    
C107  C111  1.395584 A    
C242  H143  1.109313 S    
C237  H132  1.112346 S    
O51   C205  1.413193 S    
C202  H43   1.110939 S    
C243  C244  1.521072 S    
C80   Cl8   1.762740 S    
C106  C110  1.393972 A    
O58   C219  1.417338 S    
C18   C22   1.400517 A    
C242  H145  1.110690 S    
C99   C103  1.404435 A    
C144  C152  1.404761 A    
C149  C163  1.461515 S    
O26   Zn5   2.016579 S    
C54   O86   1.382176 S    
C135  H19   1.082528 S    
C17   O49   1.383627 S    
C169  H21   1.083756 S    
O20   Zn8   2.011550 S    
O25   Zn6   2.016566 S    
C147  Cl15  1.769163 S    
C250  H163  1.110542 S    
O19   C114  1.282819 A    
C234  H124  1.110308 S    
O38   Zn10  2.005290 S    
C180  C188  1.403519 A    
C273  H221  1.115222 S    
C241  H142  1.112530 S    
C191  C200  1.402861 A    
C183  C186  1.403706 A    
C136  H20   1.083938 S    
C59   H3    1.083495 S    
C237  C238  1.521016 S    
C205  H52   1.113346 S    
Zn11  O47   2.011436 S    
C72   Cl4   1.762080 S    
C25   C29   1.395745 A    
C155  O75   1.383757 S    
C230  H115  1.110860 S    
C225  H102  1.111903 S    
C48   C52   1.410304 A    
C154  C163  1.403571 A    
C172  H24   1.083312 S    
C220  H90   1.110040 S    
C56   O88   1.382191 S    
C58   C62   1.394400 A    
O11   C7    1.283761 A    
C235  H126  1.103899 S    
C35   O79   1.420885 S    
O18   Zn6   2.011550 S    
C228  H109  1.110627 S    
C26   C116  1.418917 S    
C65   H5    1.083523 S    
C253  C254  1.520541 S    
O9    Zn1   2.021852 S    
C236  H128  1.109218 S    
C18   O50   1.385163 S    
C96   C100  1.414063 A    
C224  H99   1.110745 S    
C230  H114  1.110493 S    
C73   C77   1.408785 A    
C265  H202  1.113503 S    
C261  H192  1.111956 S    
O4    Zn2   2.011881 S    
C177  C183  1.388906 A    
O9    C5    1.285343 A    
C78   Cl6   1.762444 S    
O16   C8    1.269565 A    
C16   C20   1.425672 A    
C225  C226  1.520502 S    
C167  Cl23  1.762761 S    
C38   Cl34  1.794557 S    
O11   Zn2   2.021852 S    
C19   C23   1.404903 A    
O35   Zn11  2.012979 S    
C249  C250  1.520904 S    
C206  H54   1.110543 S    
O69   C241  1.414744 S    
C134  H18   1.084027 S    
C178  C184  1.388811 A    
C243  H146  1.114741 S    
C156  C160  1.396825 A    
C65   C69   1.391803 A    
C90   C94   1.399672 A    
C238  H133  1.109999 S    
C249  H161  1.116154 S    
O6    Zn3   2.010657 S    
C129  C133  1.397042 A    
C180  H28   1.083003 S    
C202  H45   1.110805 S    
O57   C217  1.414106 S    
C141  C151  1.408220 A    
C160  C162  1.408655 A    
O68   C239  1.417007 S    
C145  Cl13  1.768220 S    
C226  H105  1.110754 S    
C218  H83   1.110594 S    
C48   Cl40  1.767851 S    
O27   Zn8   2.016566 S    
C91   C111  1.404303 A    
C142  C151  1.408041 A    
C190  H34   1.083280 S    
C248  H159  1.110582 S    
O47   C128  1.294843 A    
O25   C115  1.276335 A    
C55   C59   1.392594 A    
C233  H122  1.112606 S    
O2    C2    1.285607 A    
C68   C72   1.390389 A    
C130  O62   1.382124 S    
C276  H228  1.110743 S    
C34   C38   1.541374 S    
O31   C120  1.283478 A    
C201  H41   1.114634 S    
C219  H87   1.119095 S    
C40   Cl36  1.794314 S    
C92   C112  1.401336 A    
C221  H92   1.111517 S    
C43   C63   1.414526 A    
C223  H96   1.106485 S    
O41   C123  1.285163 A    
C154  O74   1.383446 S    
O14   Zn3   2.021890 S    
O39   C125  1.291894 A    
O12   Zn2   2.023983 S    
C89   O53   1.382372 S    
C178  H26   1.083487 S    
C231  H117  1.113086 S    
C268  H208  1.110745 S    
C277  H231  1.115511 S    
O37   C123  1.284620 A    
C81   H9    1.083644 S    
C270  H215  1.110208 S    
C146  C149  1.406045 A    
C214  H73   1.110748 S    
C26   C30   1.395655 A    
C269  H212  1.114549 S    
C239  H136  1.105040 S    
C270  H213  1.110575 S    
C127  C139  1.471451 S    
O71   C245  1.414263 S    
C156  C164  1.404927 A    
C233  C234  1.520809 S    
C3    C99   1.452925 S    
C244  H150  1.111050 S    
C244  H149  1.110420 S    
O88   C279  1.411188 S    
C137  C151  1.462549 S    
C51   C55   1.405337 A    
O65   C233  1.413351 S    
O59   C221  1.413214 S    
C229  H112  1.112910 S    
O46   C127  1.291135 A    
C10   C38   1.497717 S    
C49   C85   1.467585 S    
C280  H240  1.111022 S    
C254  H174  1.110405 S    
C217  H82   1.116570 S    
C66   C70   1.390095 A    
C74   C78   1.407535 A    
C159  C162  1.406547 A    
C11   C15   1.393231 A    
O80   C263  1.408623 S    
C252  H170  1.110780 S    
C215  H77   1.113887 S    
C231  C232  1.520530 S    
C79   Cl7   1.762281 S    
C168  Cl24  1.763561 S    
C156  O76   1.383141 S    
C147  C150  1.409835 A    
C273  H222  1.114057 S    
O22   C116  1.273218 A    
C78   C82   1.390033 A    
C264  H198  1.110550 S    
O53   C209  1.410604 S    
C253  H171  1.116419 S    
C83   H11   1.083801 S    
C216  H79   1.110496 S    
C210  H63   1.110670 S    
O75   C253  1.413624 S    
C261  C262  1.519910 S    
C69   C73   1.408789 A    
C32   C36   1.515245 S    
C189  C193  1.388542 A    
C136  C138  1.390084 A    
C229  C230  1.520522 S    
