data_mof_unit_30358.cif
_audit_creation_date              2012-12-10T18:01:18-0500
_audit_creation_method            fapswitch 2.2
_symmetry_space_group_name_H-M    P1
_symmetry_Int_Tables_number       1
_space_group_crystal_system       triclinic
_cell_length_a                    9.51997
_cell_length_b                    10.794353
_cell_length_c                    17.36677
_cell_angle_alpha                 90.104299
_cell_angle_beta                  84.698886
_cell_angle_gamma                 90.071962
_cell_volume                      1777.00547683

loop_
_atom_site_label
_atom_site_type_symbol
_atom_type_description
_atom_site_fract_x
_atom_site_fract_y
_atom_site_fract_z
_atom_type_partial_charge
C1    C     C_R   0.500694 0.737520 0.499080 0.864464
C2    C     C_R   0.499306 0.262480 0.500920 0.864459
C3    C     C_R   0.583537 0.936694 0.440841 0.146649
C4    C     C_R   0.416458 0.063305 0.559157 0.146639
C5    C     C_R   0.577175 0.066230 0.440002 0.202306
C6    C     C_R   0.422825 0.933769 0.559998 0.202312
C7    C     C_R   0.497596 0.128577 0.500325 -0.213751
C8    C     C_R   0.502403 0.871422 0.499675 -0.213744
C9    C     C_R   0.917009 0.576572 0.548205 -0.156021
C10   C     C_R   0.082991 0.423428 0.451795 -0.156023
C11   C     C_R   0.066035 0.576908 0.548385 0.288231
C12   C     C_R   0.933965 0.423092 0.451614 0.288227
C13   C     C_R   0.479820 0.499648 0.650187 0.787766
C14   C     C_R   0.520180 0.500353 0.349813 0.787764
C15   C     C_R   0.465866 0.504307 0.735150 -0.106668
C16   C     C_R   0.534135 0.495696 0.264850 -0.106669
C17   C     C_R   0.585143 0.538449 0.772119 -0.259043
C18   C     C_R   0.414858 0.461553 0.227880 -0.259043
C19   C     C_R   0.578550 0.545975 0.851887 -0.154125
C20   C     C_R   0.421452 0.454030 0.148112 -0.154125
C21   C     C_R   0.452639 0.518289 0.896560 0.133784
C22   C     C_R   0.547362 0.481718 0.103440 0.133784
C23   C     C_R   0.331578 0.488492 0.860712 -0.199010
C24   C     C_R   0.668423 0.511515 0.139288 -0.199010
C25   C     C_R   0.336030 0.480093 0.779779 0.260798
C26   C     C_R   0.663970 0.519913 0.220221 0.260797
C27   C     C_2   0.445132 0.517705 0.981145 -0.212771
C28   C     C_2   0.554870 0.482304 0.018855 -0.212771
Cu1   Cu    Cu3+1 0.359340 0.499980 0.500000 0.963700
Cu2   Cu    Cu3+1 0.640660 0.500020 0.500000 0.963698
H1    H     H_    0.684317 0.560547 0.739277 0.162275
H2    H     H_    0.315684 0.439454 0.260722 0.162275
H3    H     H_    0.654595 0.457185 0.987270 0.143463
H4    H     H_    0.345407 0.542824 0.012730 0.143462
H5    H     H_    0.235704 0.467070 0.896658 0.134353
H6    H     H_    0.764297 0.532940 0.103343 0.134353
H7    H     H_    0.327895 0.425866 0.121625 0.131914
H8    H     H_    0.672107 0.574139 0.878373 0.131914
H9    H     H_    0.853752 0.638005 0.586559 0.131781
H10   H     H_    0.146248 0.361995 0.413440 0.131777
N1    N     N_R   0.147930 0.499970 0.499980 -0.158891
N2    N     N_R   0.852070 0.500030 0.500020 -0.158896
O1    O     O_R   0.381260 0.680340 0.500000 -0.539218
O2    O     O_R   0.618740 0.319660 0.500000 -0.539215
O3    O     O_R   0.618830 0.680370 0.500010 -0.599776
O4    O     O_R   0.381170 0.319630 0.499990 -0.599780
O5    O     O_R   0.367440 0.500000 0.613600 -0.535404
O6    O     O_R   0.632560 0.500000 0.386400 -0.535407
O7    O     O_R   0.605010 0.500030 0.613600 -0.598891
O8    O     O_R   0.394990 0.499970 0.386400 -0.598891
N3    N     N_2   0.785277 0.558256 0.257007 -0.404371
H11   H     H_    0.771210 0.638173 0.289253 0.259418
C29   C     C_3   0.924825 0.544410 0.217178 -0.741754
H12   H     H_    0.943075 0.615686 0.171297 0.221869
H13   H     H_    0.938097 0.450007 0.191965 0.230291
H14   H     H_    0.004974 0.557273 0.259091 0.229335
N4    N     N_2   0.214722 0.441750 0.742994 -0.404369
H15   H     H_    0.228789 0.361831 0.710749 0.259412
C30   C     C_3   0.075175 0.455598 0.782823 -0.741752
H16   H     H_    0.056924 0.384324 0.828705 0.221868
H17   H     H_    0.995025 0.442736 0.740911 0.229333
H18   H     H_    0.061905 0.550003 0.808035 0.230290
N5    N     N_2   0.664821 0.873481 0.379771 -0.423089
H19   H     H_    0.619922 0.793373 0.360836 0.236166
C31   C     C_3   0.813350 0.860116 0.390318 -0.691144
H20   H     H_    0.829314 0.787048 0.433434 0.249257
H21   H     H_    0.858636 0.948156 0.410191 0.214768
H22   H     H_    0.871842 0.833683 0.334483 0.220495
N6    N     N_2   0.335162 0.126518 0.620223 -0.423091
H23   H     H_    0.380053 0.206630 0.639157 0.236171
C32   C     C_3   0.186636 0.139877 0.609666 -0.691100
H24   H     H_    0.170684 0.212898 0.566517 0.249248
H25   H     H_    0.128139 0.166371 0.665488 0.220488
H26   H     H_    0.141344 0.051817 0.589828 0.214756
N7    N     N_2   0.642758 0.134509 0.376057 -0.400733
H27   H     H_    0.737056 0.099104 0.351852 0.272539
C33   C     C_3   0.549275 0.165695 0.317916 -0.655551
H28   H     H_    0.512376 0.080073 0.290364 0.223424
H29   H     H_    0.606575 0.224065 0.272699 0.228867
H30   H     H_    0.456707 0.218687 0.343828 0.218136
N8    N     N_2   0.357248 0.865490 0.623946 -0.400735
H31   H     H_    0.262952 0.900894 0.648153 0.272538
C34   C     C_3   0.450737 0.834306 0.682083 -0.655563
H32   H     H_    0.487638 0.919929 0.709633 0.223423
H33   H     H_    0.543304 0.781314 0.656169 0.218139
H34   H     H_    0.393442 0.775937 0.727302 0.228870
N9    N     N_3   0.131135 0.659225 0.598856 -0.496937
H35   H     H_    0.101734 0.749461 0.585662 0.180940
H36   H     H_    0.089855 0.640643 0.655507 0.210172
N10   N     N_3   0.868865 0.340775 0.401144 -0.496936
H37   H     H_    0.910145 0.359358 0.344493 0.210172
H38   H     H_    0.898267 0.250539 0.414338 0.180939

loop_
_geom_bond_atom_site_label_1
_geom_bond_atom_site_label_2
_ccdc_geom_bond_type
N9    H35   S    
N5    C31   S    
C1    C8    S    
Cu2   O3    S    
C2    C7    S    
N8    H31   S    
N4    H15   S    
C29   H12   S    
C2    O4    A    
C9    N2    A    
C24   H6    S    
Cu1   O5    S    
C22   C24   A    
C12   N10   S    
C19   C21   A    
C24   C26   A    
C15   C25   A    
C9    H9    S    
C10   H10   S    
N6    C32   S    
C12   N2    A    
C13   O5    A    
C1    O1    A    
C11   N9    S    
C31   H21   S    
C33   H29   S    
C21   C27   S    
C30   H16   S    
C6    N8    S    
C22   C28   S    
Cu1   O1    S    
C10   N1    A    
Cu2   O2    S    
C25   N4    S    
C4    C7    A    
C4    N6    S    
N8    C34   S    
Cu1   O8    S    
C29   H13   S    
C27   H4    S    
C16   C26   A    
C30   H17   S    
N3    H11   S    
C4    C6    A    
C3    C8    A    
C2    O2    A    
C5    C7    A    
C14   O6    A    
C33   H28   S    
N3    C29   S    
C5    N7    S    
N7    H27   S    
Cu1   Cu2   S    
C19   H8    S    
N7    C33   S    
N10   H38   S    
C34   H32   S    
C31   H22   S    
C9    C11   A    
C10   C12   A    
C13   O7    A    
C34   H33   S    
Cu2   O7    S    
C20   C22   A    
C28   H3    S    
C23   H5    S    
C13   C15   S    
C17   H1    S    
C14   C16   S    
C18   H2    S    
C32   H25   S    
C29   H14   S    
Cu2   O6    S    
C15   C17   A    
C30   H18   S    
Cu1   N1    S    
C3    C5    A    
C32   H26   S    
C6    C8    A    
C3    N5    S    
Cu1   O4    S    
C21   C23   A    
C32   H24   S    
C26   N3    S    
C20   H7    S    
C33   H30   S    
C1    O3    A    
N10   H37   S    
C14   O8    A    
C17   C19   A    
C11   N1    A    
C18   C20   A    
C23   C25   A    
N6    H23   S    
N4    C30   S    
N5    H19   S    
C34   H34   S    
C16   C18   A    
C31   H20   S    
C27   C28   D    
N9    H36   S    
Cu2   N2    S    
