data_mof_unit_57601.cif
_audit_creation_date              2012-12-10T19:07:01-0500
_audit_creation_method            fapswitch 2.2
_symmetry_space_group_name_H-M    P1
_symmetry_Int_Tables_number       1
_space_group_crystal_system       triclinic
_cell_length_a                    27.795723
_cell_length_b                    10.86172
_cell_length_c                    9.538556
_cell_angle_alpha                 90.348828
_cell_angle_beta                  90.068846
_cell_angle_gamma                 90.423954
_cell_volume                      2879.64489888

loop_
_atom_site_label
_atom_site_type_symbol
_atom_type_description
_atom_site_fract_x
_atom_site_fract_y
_atom_site_fract_z
_atom_type_partial_charge
C1    C     C_R   0.499583 0.262768 0.499466 0.813435
C2    C     C_R   0.278853 0.508115 0.371894 -0.100211
C3    C     C_R   0.253468 0.499172 0.498127 0.353338
C4    C     C_R   0.101660 0.498407 0.494655 -0.048374
C5    C     C_R   0.127015 0.389705 0.524447 0.003687
C6    C     C_R   0.101573 0.281058 0.551476 -0.150534
C7    C     C_R   0.127485 0.606651 0.464398 -0.091768
C8    C     C_R   0.354433 0.499829 0.499440 -0.035442
C9    C     C_R   0.645615 0.496416 0.500245 -0.035167
C10   C     C_R   0.974350 0.383633 0.502222 0.046844
C11   C     C_R   0.974569 0.610145 0.488983 0.059408
C12   C     C_R   0.407436 0.499966 0.499880 0.810537
C13   C     C_R   0.949191 0.496452 0.495843 0.062374
C14   C     C_R   0.947582 0.272395 0.497484 -0.206245
C15   C     C_R   0.897580 0.272552 0.493979 -0.138026
C16   C     C_R   0.872413 0.383439 0.496503 -0.020694
C17   C     C_R   0.898108 0.495702 0.498343 -0.046927
C18   C     C_R   0.872669 0.607240 0.503746 -0.020092
C19   C     C_R   0.822176 0.604528 0.504985 0.540680
C20   C     C_R   0.821910 0.384968 0.496888 0.535729
C21   C     C_R   0.721377 0.492103 0.627452 -0.105191
C22   C     C_R   0.671207 0.492954 0.627423 -0.216588
C23   C     C_R   0.500015 0.737404 0.500182 0.824462
C24   C     C_R   0.671229 0.496731 0.373183 -0.214943
C25   C     C_R   0.721394 0.495844 0.373510 -0.105931
C26   C     C_R   0.746524 0.494022 0.500575 0.366856
C27   C     C_R   0.025221 0.385702 0.513636 0.076822
C28   C     C_R   0.050635 0.498289 0.493595 0.006263
C29   C     C_R   0.025480 0.610175 0.471468 -0.060457
C30   C     C_R   0.051660 0.278784 0.545768 -0.212118
C31   C     C_R   0.102644 0.713048 0.428087 -0.230050
C32   C     C_R   0.948101 0.719785 0.506349 -0.138373
C33   C     C_R   0.898119 0.718471 0.511316 -0.167870
C34   C     C_R   0.592582 0.498949 0.500088 0.795202
C35   C     C_R   0.052085 0.716947 0.430412 0.478363
C36   C     C_R   0.494051 0.063308 0.619487 0.045236
C37   C     C_R   0.499171 0.130312 0.497278 -0.073423
C38   C     C_R   0.504341 0.063981 0.370602 -0.206706
C39   C     C_R   0.504601 0.934852 0.371312 -0.206681
C40   C     C_R   0.499978 0.870178 0.498789 -0.114814
C41   C     C_R   0.494891 0.939347 0.620714 0.097138
C42   C     C_3   0.488478 0.933307 0.775826 0.336260
C43   C     C_3   0.486813 0.075136 0.773506 -0.512027
C44   C     C_R   0.541156 0.525651 0.074012 0.259707
C45   C     C_R   0.177515 0.392194 0.526116 0.531709
C46   C     C_R   0.460662 0.462444 0.073908 -0.094874
C47   C     C_R   0.460631 0.462668 0.925219 -0.073678
C48   C     C_R   0.541366 0.524006 0.926613 0.254019
C49   C     C_3   0.571126 0.638347 0.920572 -0.507108
C50   C     C_3   0.569906 0.641993 0.079579 -0.500410
C51   C     C_R   0.178034 0.604922 0.466061 0.565744
C52   C     C_R   0.278531 0.490569 0.625055 -0.099121
C53   C     C_R   0.328714 0.491140 0.625898 -0.202966
C54   C     C_R   0.329012 0.508246 0.372356 -0.215265
Cu1   Cu    Cu3+1 0.500000 0.499980 0.640670 0.960600
Cu2   Cu    Cu3+1 0.500000 0.500020 0.359330 0.942514
H1    H     H_    0.347813 0.515195 0.273314 0.150423
H2    H     H_    0.259062 0.483854 0.723006 0.139864
H3    H     H_    0.122722 0.792693 0.392875 0.196521
H4    H     H_    0.965272 0.807793 0.523256 0.183975
H5    H     H_    0.652610 0.497399 0.273574 0.148707
H6    H     H_    0.879521 0.805283 0.522510 0.189170
H7    H     H_    0.740793 0.496717 0.275136 0.134797
H8    H     H_    0.508353 0.111072 0.271486 0.162610
H9    H     H_    0.508575 0.886497 0.272448 0.152047
H10   H     H_    0.259638 0.514575 0.273420 0.140016
H11   H     H_    0.520707 0.896039 0.829372 0.052570
H12   H     H_    0.451084 0.114307 0.799959 0.220712
H13   H     H_    0.518047 0.119779 0.826638 0.166976
H14   H     H_    0.428589 0.433186 0.128615 0.144398
H15   H     H_    0.428526 0.433643 0.869920 0.140702
H16   H     H_    0.607650 0.621209 0.878181 0.194248
H17   H     H_    0.551885 0.714999 0.870441 0.207201
H18   H     H_    0.605870 0.629011 0.127692 0.196875
H19   H     H_    0.549159 0.720779 0.122392 0.201946
H20   H     H_    0.120164 0.196672 0.576610 0.184233
H21   H     H_    0.652567 0.490467 0.726820 0.148584
H22   H     H_    0.740759 0.490023 0.725940 0.134550
H23   H     H_    0.878704 0.184958 0.490267 0.188070
H24   H     H_    0.964372 0.183347 0.492577 0.131802
H25   H     H_    0.034629 0.192350 0.571383 0.130075
H26   H     H_    0.347295 0.484483 0.725375 0.149887
N1    N     N_R   0.201881 0.498862 0.497297 -0.468934
N2    N     N_R   0.798015 0.494483 0.500714 -0.472260
N3    N     N_R   0.500300 0.500930 0.147930 -0.188109
N4    N     N_R   0.500310 0.500890 0.852020 -0.182830
O1    O     O_R   0.500000 0.319640 0.618810 -0.577675
O2    O     O_2   0.796848 0.278090 0.493723 -0.528789
O3    O     O_2   0.203193 0.708596 0.437841 -0.531215
O4    O     O_2   0.797379 0.710818 0.510101 -0.528602
O5    O     O_R   0.500010 0.319680 0.381230 -0.586763
O6    O     O_R   0.430260 0.500000 0.618780 -0.583689
O7    O     O_R   0.430270 0.500040 0.381190 -0.593074
O8    O     O_R   0.499990 0.680320 0.618770 -0.563137
O9    O     O_R   0.500000 0.680360 0.381190 -0.588044
O10   O     O_R   0.569730 0.499960 0.618810 -0.587102
O11   O     O_R   0.569740 0.500000 0.381220 -0.584131
O12   O     O_2   0.202107 0.288660 0.554865 -0.533507
O13   O     O_3   0.028512 0.815303 0.368634 -0.571747
C55   C     C_3   0.044752 0.929381 0.423971 -0.361123
H27   H     H_    0.076920 0.962627 0.366193 0.192331
H28   H     H_    0.052145 0.925580 0.538755 0.151217
H29   H     H_    0.016052 0.998333 0.408193 0.188373
O14   O     O_3   0.443756 0.878986 0.810339 -0.534992
C56   C     C_3   0.443179 0.851773 0.954607 -0.270964
H30   H     H_    0.450807 0.935174 0.019629 0.148731
H31   H     H_    0.469203 0.777644 0.979251 0.156062
H32   H     H_    0.406779 0.817596 0.982833 0.194163

loop_
_geom_bond_atom_site_label_1
_geom_bond_atom_site_label_2
_ccdc_geom_bond_type
C10   C27   A    
C1    O1    A    
Cu2   O9    S    
C21   C26   A    
C40   C41   A    
C24   H5    S    
C41   C42   S    
Cu1   Cu2   S    
C49   H17   S    
C56   H31   S    
Cu1   O6    S    
C28   C29   A    
C34   O10   A    
C45   O12   S    
C4    C7    A    
C5    C6    A    
C9    C22   A    
C42   H11   S    
C15   C16   A    
C19   N2    A    
C34   O11   A    
C18   C19   A    
C25   H7    S    
C31   H3    S    
Cu2   O5    S    
C15   H23   S    
C16   C17   A    
C49   H16   S    
C21   H22   S    
C14   H24   S    
C16   C20   A    
C46   N3    A    
C1    O5    A    
C21   C22   A    
C27   C30   A    
C39   H9    S    
C36   C41   A    
C45   N1    A    
Cu2   O11   S    
Cu1   O8    S    
C35   O13   S    
O14   C56   S    
C4    C28   A    
C38   H8    S    
Cu2   O7    S    
C56   H32   S    
C7    C31   A    
C47   N4    A    
C24   C25   A    
C2    C54   A    
C8    C54   A    
C39   C40   A    
C33   H6    S    
C25   C26   A    
C5    C45   A    
C55   H29   S    
C53   H26   S    
C37   C38   A    
O13   C55   S    
C8    C12   S    
C55   H28   S    
C17   C18   A    
C47   H15   S    
C52   H2    S    
C48   C49   S    
C6    C30   A    
C11   C32   A    
C20   N2    A    
C3    N1    S    
C9    C34   S    
C31   C35   A    
C12   O7    A    
C42   C43   S    
C32   H4    S    
C44   N3    A    
C51   N1    A    
C52   C53   A    
C44   C50   S    
C46   C47   A    
C36   C37   A    
C26   N2    S    
C12   O6    A    
C22   H21   S    
Cu1   O10   S    
C2    H10   S    
C10   C13   A    
C42   O14   S    
C8    C53   A    
C3    C52   A    
C9    C24   A    
C6    H20   S    
C1    C37   S    
C56   H30   S    
C29   C35   A    
C23   O8    A    
C13   C17   A    
C32   C33   A    
C30   H25   S    
C50   H18   S    
C2    C3    A    
C7    C51   A    
C19   O4    S    
C50   H19   S    
C51   O3    S    
C11   C13   A    
Cu2   N3    S    
C38   C39   A    
Cu1   N4    S    
C20   O2    S    
C55   H27   S    
C23   O9    A    
C48   N4    A    
Cu1   O1    S    
C18   C33   A    
C46   H14   S    
C44   C48   A    
C4    C5    A    
C11   C29   A    
C43   H13   S    
C49   C50   S    
C27   C28   A    
C14   C15   A    
C36   C43   S    
C54   H1    S    
C23   C40   S    
C10   C14   A    
C43   H12   S    
