data_mof_unit_30924.cif
_audit_creation_date              2013-03-05T16:46:08-0500
_audit_creation_method            fapswitch 2.2
_symmetry_space_group_name_H-M    P1
_symmetry_Int_Tables_number       1
_space_group_crystal_system       triclinic
_cell_length_a                    10.771329
_cell_length_b                    10.637716
_cell_length_c                    9.892761
_cell_angle_alpha                 89.100449
_cell_angle_beta                  90.661588
_cell_angle_gamma                 91.611075
_cell_volume                      1132.87802285

loop_
_atom_site_label
_atom_site_type_symbol
_atom_site_description
_atom_site_fract_x
_atom_site_fract_y
_atom_site_fract_z
_atom_type_partial_charge
O1    O     O_R   0.500020 0.316790 0.614690 -0.608297
O2    O     O_R   0.500000 0.316760 0.385350 -0.620901
C1    C     C_R   0.506331 0.259852 0.500493 0.869932
O3    O     O_R   0.316770 0.500030 0.614670 -0.629211
O4    O     O_R   0.316750 0.499990 0.385330 -0.614109
C2    C     C_R   0.260578 0.504418 0.499024 0.869839
Zn1   Zn    Zn3+2 0.500010 0.500020 0.653130 0.946109
Zn2   Zn    Zn3+2 0.499990 0.499980 0.346870 0.937475
O5    O     O_R   0.500000 0.683240 0.614650 -0.626918
O6    O     O_R   0.499980 0.683210 0.385310 -0.622481
O7    O     O_R   0.683250 0.500010 0.614670 -0.607014
O8    O     O_R   0.683230 0.499970 0.385330 -0.632733
C3    C     C_R   0.508431 0.740012 0.499237 0.865978
C4    C     C_R   0.740315 0.503054 0.501265 0.860398
H1    H     H_    0.281351 0.862334 0.008909 0.126277
C5    C     C_R   0.254485 0.830508 0.222251 -0.121893
H2    H     H_    0.310486 0.911860 0.251343 0.132783
C6    C     C_R   0.198714 0.753379 0.321433 -0.095531
H3    H     H_    0.212592 0.775980 0.427026 0.095779
C7    C     C_R   0.124735 0.648161 0.284287 0.128643
C8    C     C_R   0.106155 0.623021 0.146685 -0.180062
H4    H     H_    0.051475 0.541373 0.116492 0.142724
C9    C     C_R   0.163474 0.699192 0.047785 -0.148238
H5    H     H_    0.150330 0.677750 0.941886 0.129089
C10   C     C_R   0.237504 0.803012 0.085524 -0.124809
C11   C     C_R   0.935126 0.558443 0.390819 -0.251033
H6    H     H_    0.882901 0.598223 0.307920 0.140159
C12   C     C_R   0.873659 0.509656 0.504564 -0.082841
C13   C     C_R   0.941145 0.472807 0.620649 0.008069
C14   C     C_R   0.067402 0.465769 0.612169 -0.274669
H7    H     H_    0.118436 0.433027 0.699958 0.173114
C15   C     C_R   0.128688 0.511714 0.497971 -0.085792
C16   C     C_R   0.063458 0.567789 0.389666 0.006323
C17   C     C_R   0.876605 0.587360 0.821083 -0.151302
H8    H     H_    0.895145 0.672579 0.762785 0.131852
C18   C     C_R   0.841895 0.592450 0.957234 0.256644
C19   C     C_R   0.820006 0.478507 0.028505 -0.210735
H9    H     H_    0.790833 0.479021 0.132623 0.158359
C20   C     C_R   0.834124 0.362932 0.965814 -0.176888
H10   H     H_    0.817407 0.276192 0.022170 0.143550
C21   C     C_R   0.870726 0.359192 0.831076 -0.156066
H11   H     H_    0.884122 0.269481 0.783884 0.128245
C22   C     C_R   0.890975 0.471597 0.758366 0.117392
C23   C     C_R   0.547790 0.062840 0.620943 0.143714
C24   C     C_R   0.534120 0.129313 0.499839 -0.105388
C25   C     C_R   0.551182 0.067964 0.376832 -0.234517
H12   H     H_    0.551715 0.118492 0.280905 0.173339
C26   C     C_R   0.553299 0.937868 0.376230 -0.251755
H13   H     H_    0.554464 0.890478 0.280123 0.166910
C27   C     C_R   0.538221 0.871293 0.498598 -0.101803
C28   C     C_R   0.551522 0.934298 0.620651 0.135548
C29   C     C_3   0.476223 0.920714 0.746252 -0.502167
C30   C     C_3   0.467915 0.061969 0.742694 -0.509783
H14   H     H_    0.384921 0.871365 0.730186 0.207931
H15   H     H_    0.531646 0.885655 0.833688 0.198376
H16   H     H_    0.373040 0.091247 0.715005 0.205848
H17   H     H_    0.513545 0.109005 0.830492 0.212535
C31   C     C_R   0.443784 0.402998 0.073324 0.154628
N1    N     N_R   0.499160 0.499140 0.142800 -0.123370
C32   C     C_R   0.552309 0.596699 0.070758 -0.129932
H18   H     H_    0.593896 0.675414 0.124116 0.153336
C33   C     C_R   0.553198 0.596201 0.927248 -0.101344
H19   H     H_    0.597148 0.673626 0.872448 0.160305
N2    N     N_R   0.499160 0.499180 0.857150 -0.120931
C34   C     C_R   0.440375 0.404571 0.929646 0.175876
C35   C     C_3   0.301563 0.381316 0.932229 -0.066447
C36   C     C_3   0.309474 0.369892 0.085962 -0.052538
H20   H     H_    0.251474 0.466532 0.898514 0.150493
H21   H     H_    0.258573 0.443581 0.137186 0.183645
C37   C     C_3   0.254459 0.264711 0.857507 -0.888836
H22   H     H_    0.299058 0.178946 0.896301 0.253242
H23   H     H_    0.152636 0.252936 0.871399 0.238978
H24   H     H_    0.272738 0.276748 0.747955 0.254755
C38   C     C_3   0.286785 0.239950 0.152552 -0.845426
H25   H     H_    0.355322 0.170765 0.119791 0.228468
H26   H     H_    0.294307 0.248228 0.263966 0.254005
H27   H     H_    0.191342 0.204469 0.128290 0.244405
N3    N     N_2   0.823751 0.709259 0.023149 -0.325884
H28   H     H_    0.828921 0.708669 0.127028 0.217556
C39   C     C_3   0.856423 0.827794 0.956938 -0.831487
H29   H     H_    0.835540 0.906550 0.024688 0.240526
H30   H     H_    0.800286 0.839773 0.862926 0.237907
H31   H     H_    0.957061 0.832488 0.933764 0.252071

loop_
_geom_bond_atom_site_label_1
_geom_bond_atom_site_label_2
_geom_bond_distance
_ccdc_geom_bond_type
C35   H20   1.112618 S    
C21   H11   1.082961 S    
C2    C15   1.424840 S    
C20   C21   1.395856 A    
C24   C25   1.406179 A    
C29   C30   1.507634 S    
Zn1   O7    2.014388 S    
C11   H6    1.076985 S    
C19   H9    1.080479 S    
C38   H26   1.108931 S    
O4    C2    1.285429 A    
C12   C13   1.408369 A    
C17   H8    1.081833 S    
O1    C1    1.293573 A    
C39   H31   1.110163 S    
Zn2   N1    2.018891 S    
C14   H7    1.080731 S    
O7    C4    1.284976 A    
N3    C39   1.448207 S    
H1    C10   1.082706 S    
C32   C33   1.419950 A    
C6    H3    1.083327 S    
O5    C3    1.286167 A    
C33   N2    1.365372 A    
C11   C16   1.383254 A    
C23   C30   1.488000 S    
C33   H19   1.079977 S    
C5    H2    1.081697 S    
C38   H27   1.110076 S    
C9    H5    1.082519 S    
C37   H22   1.104461 S    
C17   C18   1.404259 A    
C29   H15   1.110913 S    
C26   C27   1.401622 A    
C35   C36   1.525381 S    
N1    C32   1.365833 A    
C8    H4    1.079721 S    
C13   C22   1.471181 S    
C21   C22   1.398821 A    
O3    Zn1   2.005760 S    
C29   H14   1.112646 S    
C25   C26   1.384865 A    
C38   H25   1.111412 S    
C28   C29   1.494547 S    
C39   H30   1.111064 S    
C20   H10   1.082344 S    
C30   H17   1.111893 S    
N3    H28   1.028440 S    
C31   N1    1.361047 A    
C1    C24   1.428863 S    
C32   H18   1.080634 S    
C36   H21   1.102231 S    
C13   C14   1.367732 A    
C31   C34   1.421269 A    
Zn2   O8    2.005761 S    
C37   H24   1.108543 S    
C27   C28   1.394158 A    
C36   C38   1.536409 S    
C7    C16   1.486472 S    
C23   C28   1.369160 A    
O3    C2    1.288922 A    
C26   H13   1.083474 S    
O8    C4    1.295508 A    
C8    C9    1.398550 A    
C23   C24   1.390038 A    
C30   H16   1.106861 S    
C5    C10   1.397228 A    
Zn1   O5    1.979999 S    
C25   H12   1.083251 S    
C18   C19   1.408123 A    
O1    Zn1   1.991752 S    
Zn2   O6    1.991753 S    
O2    Zn2   1.979997 S    
C17   C22   1.400826 A    
C39   H29   1.110588 S    
O6    C3    1.288242 A    
O4    Zn2   2.014388 S    
C11   C12   1.397662 A    
C15   C16   1.408385 A    
O2    C1    1.283550 A    
C19   C20   1.398552 A    
C18   N3    1.431590 S    
N2    C34   1.371190 A    
C14   C15   1.390214 A    
C35   C37   1.525526 S    
C6    C7    1.406699 A    
C9    C10   1.396965 A    
Zn1   N2    2.018326 S    
C3    C27   1.424031 S    
C31   C36   1.485511 S    
C7    C8    1.402403 A    
C5    C6    1.399072 A    
C34   C35   1.509076 S    
C37   H23   1.110269 S    
C4    C12   1.436046 S    
