data_mof_unit_43740.cif
_audit_creation_date              2012-12-11T14:33:02-0500
_audit_creation_method            fapswitch 2.2
_symmetry_space_group_name_H-M    P1
_symmetry_Int_Tables_number       1
_space_group_crystal_system       triclinic
_cell_length_a                    6.946938
_cell_length_b                    13.737553
_cell_length_c                    17.946113
_cell_angle_alpha                 112.375879
_cell_angle_beta                  95.52544
_cell_angle_gamma                 90.291965
_cell_volume                      1574.73382749

loop_
_atom_site_label
_atom_site_type_symbol
_atom_type_description
_atom_site_fract_x
_atom_site_fract_y
_atom_site_fract_z
_atom_type_partial_charge
O1    O     O_R   0.484560 0.544530 0.414330 -0.536850
O2    O     O_R   0.197040 0.638810 0.585080 -0.539192
O3    O     O_R   0.026800 0.455470 0.585670 -0.541772
C1    C     C_R   0.374003 0.678935 0.610367 0.684627
O4    O     O_R   0.155000 0.556150 0.414940 -0.543058
O5    O     O_R   0.984450 0.372220 0.414320 -0.535965
C2    C     C_R   0.317644 0.565051 0.386571 0.757791
O6    O     O_R   0.526900 0.627780 0.585680 -0.539256
O7    O     O_3   0.339170 0.439750 0.499990 -0.374234
V1    V     V_3+5 0.064350 0.511180 0.500000 1.370410
O8    O     O_R   0.654880 0.361190 0.414920 -0.542409
C3    C     C_R   0.816895 0.324468 0.386451 0.763452
O9    O     O_R   0.696930 0.443850 0.585060 -0.541495
C4    C     C_R   0.873211 0.433852 0.612481 0.692447
V2    V     V_3+5 0.564340 0.488820 0.500000 1.370960
O10   O     O_3   0.839390 0.560250 0.500010 -0.374911
C5    C     C_R   0.041529 0.860693 0.822563 -0.051926
C6    C     C_R   0.906330 0.397712 0.679887 -0.051990
C7    C     C_R   0.921243 0.821133 0.682792 -0.127457
C8    C     C_R   0.973502 0.787790 0.745690 -0.145419
C9    C     C_R   0.052605 0.968537 0.836706 -0.211626
C10   C     C_R   0.997662 0.005007 0.773569 0.096727
C11   C     C_R   0.933092 0.928347 0.695817 0.120559
C12   C     C_R   0.002767 0.114216 0.784753 0.066677
C13   C     C_R   0.945232 0.144177 0.717679 0.066677
C14   C     C_R   0.885007 0.063957 0.641698 -0.179197
C15   C     C_R   0.878959 0.958651 0.631319 -0.219206
C16   C     C_R   0.063032 0.194434 0.860730 -0.179248
C17   C     C_R   0.069117 0.299737 0.871106 -0.219146
C18   C     C_R   0.014954 0.330043 0.806612 0.120657
C19   C     C_R   0.950315 0.253388 0.728866 0.096732
C20   C     C_R   0.026832 0.437255 0.819636 -0.127450
C21   C     C_R   0.974481 0.470604 0.756749 -0.145511
C22   C     C_R   0.895288 0.289865 0.665738 -0.211710
H1    H     H_    0.829886 0.900036 0.571884 0.118398
H2    H     H_    0.846813 0.237121 0.604753 0.092696
H3    H     H_    0.989180 0.553585 0.768003 0.091481
H4    H     H_    0.118237 0.358350 0.930536 0.118459
H5    H     H_    0.869207 0.762818 0.623725 0.138698
H6    H     H_    0.958848 0.704808 0.734434 0.091523
H7    H     H_    0.101038 0.021284 0.897696 0.092709
H8    H     H_    0.839947 0.079698 0.588485 0.123613
H9    H     H_    0.108122 0.178694 0.913940 0.123641
H10   H     H_    0.078956 0.495563 0.878693 0.138806
H11   H     H_    0.114052 0.224016 0.308852 0.155247
H12   H     H_    0.834383 0.034430 0.193598 0.155251
C23   C     C_2   0.135783 0.037604 0.184062 -0.353375
C24   C     C_2   0.972768 0.077811 0.217023 -0.130270
H13   H     H_    0.674543 0.177341 0.294483 0.125152
C25   C     C_2   0.812644 0.220855 0.318373 -0.353398
C26   C     C_2   0.975663 0.180642 0.285418 -0.130252
H14   H     H_    0.273875 0.081133 0.207935 0.125149
C27   C     C_R   0.409343 0.785122 0.677260 -0.057777
C28   C     C_R   0.539119 0.473102 0.825438 -0.057630
C29   C     C_R   0.531184 0.886787 0.817120 -0.125293
C30   C     C_R   0.478975 0.790286 0.754349 -0.141787
C31   C     C_R   0.397570 0.880133 0.663467 -0.210552
C32   C     C_R   0.452184 0.980754 0.727191 0.097682
C33   C     C_R   0.517756 0.981343 0.804635 0.117980
C34   C     C_R   0.445720 0.080456 0.717435 0.066006
C35   C     C_R   0.502538 0.177780 0.785284 0.066036
C36   C     C_R   0.563539 0.172042 0.860544 -0.179496
C37   C     C_R   0.571200 0.076114 0.869699 -0.217248
C38   C     C_R   0.384689 0.086196 0.642178 -0.179414
C39   C     C_R   0.377032 0.182124 0.633023 -0.217189
C40   C     C_R   0.430522 0.276892 0.698081 0.118071
C41   C     C_R   0.496106 0.277481 0.775525 0.097685
C42   C     C_R   0.417150 0.371445 0.685589 -0.125466
C43   C     C_R   0.469457 0.467939 0.748350 -0.141762
C44   C     C_R   0.550791 0.378099 0.839243 -0.210631
H15   H     H_    0.620978 0.076126 0.928845 0.118596
H16   H     H_    0.600062 0.385530 0.900025 0.092610
H17   H     H_    0.453622 0.539200 0.736603 0.091434
H18   H     H_    0.327238 0.182111 0.573878 0.118651
H19   H     H_    0.584103 0.887472 0.876066 0.143260
H20   H     H_    0.494868 0.719023 0.766089 0.091377
H21   H     H_    0.348308 0.872703 0.602685 0.092554
H22   H     H_    0.607914 0.240898 0.913989 0.123768
H23   H     H_    0.340285 0.017342 0.588735 0.123767
H24   H     H_    0.364223 0.370765 0.626644 0.143308
H25   H     H_    0.334240 0.667410 0.194525 0.154550
H26   H     H_    0.614930 0.590816 0.308141 0.154403
C45   C     C_2   0.314170 0.602320 0.318880 -0.351016
C46   C     C_2   0.476516 0.610971 0.285376 -0.130036
H27   H     H_    0.773101 0.636063 0.206961 0.125972
C47   C     C_2   0.634975 0.655939 0.183745 -0.350735
C48   C     C_2   0.472681 0.647265 0.217275 -0.129860
H28   H     H_    0.176091 0.622215 0.295639 0.126026
O11   O     O_R   0.421600 0.630430 0.917010 -0.539332
O12   O     O_R   0.793840 0.702190 0.087630 -0.542926
O13   O     O_R   0.964010 0.886170 0.088190 -0.535969
C49   C     C_R   0.631302 0.693225 0.116055 0.758169
O14   O     O_R   0.751460 0.619510 0.917500 -0.539206
O15   O     O_R   0.921330 0.802900 0.916840 -0.541862
C50   C     C_R   0.574509 0.579303 0.892312 0.684623
O16   O     O_R   0.464290 0.713700 0.088350 -0.537161
O17   O     O_3   0.609200 0.818520 0.002630 -0.374325
V3    V     V_3+5 0.884140 0.747190 0.002530 1.370442
O18   O     O_R   0.251150 0.814630 0.917340 -0.541871
C51   C     C_R   0.074799 0.824555 0.889965 0.692124
O19   O     O_R   0.293530 0.897310 0.087470 -0.542502
C52   C     C_R   0.131540 0.933979 0.115996 0.763429
V4    V     V_3+5 0.384070 0.769710 0.002370 1.371085
O20   O     O_3   0.109180 0.698190 0.002460 -0.374780

loop_
_geom_bond_atom_site_label_1
_geom_bond_atom_site_label_2
_ccdc_geom_bond_type
C42   H24   S    
C40   C42   A    
C29   C30   A    
C13   C19   A    
O19   C52   A    
C30   H20   S    
C29   C33   A    
C1    C27   S    
C4    C6    S    
O18   V4    S    
C7    C8    A    
C46   C48   S    
C1    O6    A    
O17   V3    S    
C31   C32   A    
H27   C47   S    
C14   C15   A    
C17   C18   A    
C16   C17   A    
O5    C3    A    
C18   C19   A    
C8    H6    S    
O15   V3    S    
C32   C34   A    
V2    O10   S    
C49   O16   A    
C5    C8    A    
O8    V2    S    
C24   C26   S    
C45   C46   D    
C42   C43   A    
C17   H4    S    
C43   H17   S    
O1    V2    S    
C11   C15   A    
O7    V1    S    
C29   H19   S    
C45   H28   S    
O19   V4    S    
C23   C52   S    
O9    C4    A    
O11   V4    S    
C6    C21   A    
H12   C24   S    
C44   H16   S    
C23   C24   D    
C31   H21   S    
C12   C13   A    
O4    C2    A    
C27   C31   A    
C47   C48   D    
C15   H1    S    
C32   C33   A    
C21   H3    S    
C39   H18   S    
C34   C35   A    
O11   C50   A    
O2    C1    A    
C36   C37   A    
C35   C41   A    
O12   C49   A    
O18   C51   A    
C28   C44   A    
O15   C51   A    
C25   C26   D    
C20   H10   S    
C19   C22   A    
H25   C48   S    
C6    C22   A    
C28   C50   S    
O17   V4    S    
O3    C4    A    
C7    H5    S    
C9    H7    S    
C37   H15   S    
H13   C25   S    
O6    V2    S    
H26   C46   S    
O9    V2    S    
C38   H23   S    
C10   C12   A    
O13   C52   A    
O2    V1    S    
C14   H8    S    
C27   C30   A    
O1    C2    A    
C36   H22   S    
C12   C16   A    
O5    V1    S    
C3    C25   S    
O8    C3    A    
C23   H14   S    
C16   H9    S    
C33   C37   A    
C34   C38   A    
C41   C44   A    
C20   C21   A    
C13   C14   A    
O4    V1    S    
O3    V1    S    
C47   C49   S    
C38   C39   A    
C18   C20   A    
C2    C45   S    
C28   C43   A    
V3    O20   S    
C40   C41   A    
C22   H2    S    
O13   V3    S    
O7    V2    S    
C35   C36   A    
C5    C51   S    
C5    C9    A    
C7    C11   A    
O14   C50   A    
C39   C40   A    
O16   V4    S    
V4    O20   S    
H11   C26   S    
C10   C11   A    
V1    O10   S    
C9    C10   A    
O14   V3    S    
O12   V3    S    
