data_mof_unit_52926.cif
_audit_creation_date              2012-12-10T17:43:18-0500
_audit_creation_method            fapswitch 2.2
_symmetry_space_group_name_H-M    P1
_symmetry_Int_Tables_number       1
_space_group_crystal_system       triclinic
_cell_length_a                    14.985371
_cell_length_b                    13.877549
_cell_length_c                    10.676822
_cell_angle_alpha                 89.902769
_cell_angle_beta                  88.638582
_cell_angle_gamma                 89.880039
_cell_volume                      2219.71960514

loop_
_atom_site_label
_atom_site_type_symbol
_atom_type_description
_atom_site_fract_x
_atom_site_fract_y
_atom_site_fract_z
_atom_type_partial_charge
C1    C     C_R   0.329027 0.499856 0.501239 0.801468
C2    C     C_R   0.670952 0.499672 0.501147 0.798240
C3    C     C_R   0.953152 0.495045 0.507266 0.061426
C4    C     C_R   0.046693 0.495216 0.507128 0.062272
C5    C     C_R   0.908009 0.437383 0.420309 0.098200
C6    C     C_R   0.091873 0.553281 0.593610 0.099337
C7    C     C_R   0.950189 0.609441 0.680358 -0.217204
C8    C     C_R   0.049626 0.379986 0.334938 -0.212223
C9    C     C_R   0.043286 0.609735 0.680084 -0.216493
C10   C     C_R   0.956559 0.379915 0.334966 -0.208768
C11   C     C_R   0.427092 0.795816 0.545674 0.548883
C12   C     C_R   0.565638 0.206888 0.433922 0.542632
C13   C     C_R   0.571953 0.794995 0.449750 0.534118
C14   C     C_R   0.434225 0.206406 0.564755 0.531788
C15   C     C_R   0.569672 0.897854 0.440285 -0.091916
C16   C     C_R   0.430933 0.103876 0.560673 -0.093675
C17   C     C_R   0.429946 0.898235 0.556486 -0.091697
C18   C     C_R   0.568398 0.104002 0.435952 -0.098069
C19   C     C_R   0.500297 0.949509 0.499530 0.016187
C20   C     C_R   0.499994 0.052602 0.498932 0.017196
C21   C     C_R   0.636092 0.950263 0.374106 -0.175250
C22   C     C_R   0.360325 0.051352 0.616830 -0.176429
C23   C     C_R   0.360672 0.950530 0.616779 -0.174097
C24   C     C_R   0.637029 0.051091 0.375295 -0.173045
C25   C     C_R   0.498823 0.500038 0.260052 0.790243
C26   C     C_R   0.500698 0.500105 0.740090 0.787354
C27   C     C_3   0.439853 0.563491 0.042500 0.187430
C28   C     C_3   0.559287 0.437462 0.958331 0.152674
C29   C     C_3   0.521154 0.587514 0.959601 0.201939
C30   C     C_3   0.477692 0.413537 0.041002 0.177084
C31   C     C_3   0.416593 0.476422 0.959310 -0.348521
C32   C     C_3   0.582274 0.524789 0.041367 -0.298496
C33   C     C_3   0.500065 0.500710 0.876239 -0.088015
C34   C     C_3   0.498976 0.500158 0.124131 -0.062604
C35   C     C_R   0.815041 0.438961 0.419671 -0.219754
C36   C     C_R   0.184919 0.554079 0.591486 -0.263098
C37   C     C_R   0.767464 0.497944 0.503873 -0.050712
C38   C     C_R   0.232463 0.498535 0.503458 -0.051041
C39   C     C_R   0.811812 0.553164 0.592310 -0.291765
C40   C     C_R   0.188010 0.439239 0.419569 -0.238364
C41   C     C_R   0.904787 0.552794 0.594044 0.118077
C42   C     C_R   0.095030 0.437586 0.420183 0.110280
Cu1   Cu    Cu3+1 0.500000 0.597420 0.500000 1.013086
Cu2   Cu    Cu3+1 0.500000 0.402580 0.500000 1.003140
H1    H     H_    0.348762 0.458506 0.927192 0.140906
H2    H     H_    0.649362 0.544437 0.074976 0.151969
H3    H     H_    0.779578 0.395777 0.352490 0.167126
H4    H     H_    0.220541 0.597533 0.658207 0.170626
H5    H     H_    0.773815 0.595995 0.659676 0.126086
H6    H     H_    0.225985 0.395776 0.352741 0.135448
H7    H     H_    0.913703 0.653917 0.747440 0.141110
H8    H     H_    0.086095 0.335444 0.267914 0.142606
H9    H     H_    0.077295 0.654423 0.746965 0.146254
H10   H     H_    0.922554 0.335327 0.267962 0.146058
H11   H     H_    0.688391 0.913695 0.321011 0.168467
H12   H     H_    0.303343 0.087553 0.659427 0.168090
H13   H     H_    0.305362 0.913593 0.662811 0.173179
H14   H     H_    0.692382 0.086671 0.328293 0.161935
N1    N     N_R   0.500000 0.743810 0.500000 -0.262236
N2    N     N_R   0.500000 0.256190 0.500000 -0.260902
O1    O     O_R   0.370260 0.582280 0.500030 -0.542896
O2    O     O_R   0.629740 0.417720 0.499970 -0.536047
O3    O     O_R   0.629740 0.582280 0.499970 -0.546633
O4    O     O_R   0.370260 0.417720 0.500030 -0.534029
O5    O     O_R   0.499980 0.582260 0.316850 -0.552380
O6    O     O_R   0.500020 0.417740 0.683150 -0.585353
O7    O     O_R   0.500020 0.582260 0.683150 -0.556691
O8    O     O_R   0.499980 0.417740 0.316850 -0.567863
N3    N     N_3   0.376171 0.634360 0.090939 -0.578511
H15   H     H_    0.343702 0.663759 0.014177 0.230351
H16   H     H_    0.327965 0.597097 0.144083 0.194445
N4    N     N_3   0.625096 0.367529 0.913204 -0.593939
H17   H     H_    0.591837 0.315643 0.861425 0.220882
H18   H     H_    0.668439 0.403482 0.850958 0.212249
N5    N     N_3   0.542802 0.683902 0.914298 -0.557104
H19   H     H_    0.554074 0.726735 0.992731 0.229766
H20   H     H_    0.603525 0.679220 0.864460 0.200602
N6    N     N_3   0.454484 0.317949 0.087501 -0.596878
H21   H     H_    0.446691 0.273162 0.010175 0.200621
H22   H     H_    0.392041 0.323191 0.132682 0.213592
O9    O     O_3   0.348107 0.749596 0.576308 -0.557418
C43   C     C_3   0.288230 0.764511 0.476946 -0.315738
H23   H     H_    0.223705 0.729831 0.501139 0.185467
H24   H     H_    0.314279 0.732117 0.387991 0.184225
H25   H     H_    0.273100 0.841827 0.460640 0.142719
O10   O     O_3   0.633229 0.258644 0.374196 -0.566479
C44   C     C_3   0.627344 0.252077 0.242344 -0.263282
H26   H     H_    0.623251 0.325678 0.202622 0.219964
H27   H     H_    0.569882 0.209085 0.208712 0.164538
H28   H     H_    0.689878 0.220169 0.203142 0.144020
O11   O     O_3   0.645768 0.746395 0.402171 -0.549414
C45   C     C_3   0.717556 0.758920 0.484784 -0.297377
H29   H     H_    0.774137 0.713504 0.451366 0.196581
H30   H     H_    0.698929 0.736834 0.582216 0.157023
H31   H     H_    0.742731 0.833865 0.486777 0.136844
O12   O     O_3   0.369163 0.257367 0.630521 -0.545073
C46   C     C_3   0.386434 0.252937 0.759921 -0.285343
H32   H     H_    0.353604 0.315442 0.806004 0.181735
H33   H     H_    0.458795 0.255882 0.780557 0.148315
H34   H     H_    0.357229 0.187337 0.803480 0.135970

loop_
_geom_bond_atom_site_label_1
_geom_bond_atom_site_label_2
_ccdc_geom_bond_type
C44   H26   S    
C27   C29   S    
Cu2   O6    S    
C19   C20   A    
Cu1   Cu2   S    
C35   H3    S    
C6    C9    A    
C46   H32   S    
Cu1   O3    S    
C39   C41   A    
C11   O9    S    
C15   C19   A    
C17   C23   A    
C18   C24   A    
C26   O7    A    
C16   C20   A    
C35   C37   A    
C8    C42   A    
C29   C32   S    
C30   C31   S    
N6    H22   S    
C29   C33   S    
C7    C9    A    
N3    H16   S    
C44   H28   S    
C11   C17   A    
C31   C33   S    
C8    H8    S    
C27   N3    S    
Cu1   N1    S    
C25   C34   S    
C40   C42   A    
C13   O11   S    
C28   N4    S    
C25   O8    A    
C11   N1    A    
C14   O12   S    
C46   H33   S    
O9    C43   S    
C27   C34   S    
C30   C34   S    
C27   C31   S    
C26   O6    A    
C24   H14   S    
C28   C32   S    
C25   O5    A    
N4    H18   S    
O11   C45   S    
C21   H11   S    
N6    H21   S    
C22   H12   S    
Cu2   O2    S    
C45   H31   S    
Cu2   O4    S    
C30   N6    S    
N5    H19   S    
C26   C33   S    
Cu1   O5    S    
O12   C46   S    
C45   H30   S    
N5    H20   S    
C1    C38   S    
C29   N5    S    
C4    C6    A    
C39   H5    S    
C28   C33   S    
C43   H24   S    
C13   C15   A    
C14   C16   A    
Cu2   O8    S    
C9    H9    S    
C3    C4    A    
C1    O4    A    
C46   H34   S    
C2    O3    A    
Cu1   O1    S    
C23   H13   S    
C3    C41   A    
C16   C22   A    
O10   C44   S    
C32   H2    S    
C8    C10   A    
N4    H17   S    
C3    C5    A    
C1    O1    A    
C13   N1    A    
C43   H25   S    
C14   N2    A    
C12   O10   S    
C28   C30   S    
C7    H7    S    
C5    C10   A    
C37   C39   A    
C38   C40   A    
C2    C37   S    
C4    C42   A    
Cu2   N2    S    
C40   H6    S    
C5    C35   A    
C36   C38   A    
C45   H29   S    
C17   C19   A    
C6    C36   A    
C36   H4    S    
C18   C20   A    
C7    C41   A    
N3    H15   S    
C10   H10   S    
C12   N2    A    
C15   C21   A    
Cu1   O7    S    
C43   H23   S    
C31   H1    S    
C21   C24   A    
C12   C18   A    
C44   H27   S    
C22   C23   A    
C2    O2    A    
C32   C34   S    
