data_mof_unit_13664.cif
_audit_creation_date              2012-12-10T20:36:38-0500
_audit_creation_method            fapswitch 2.2
_symmetry_space_group_name_H-M    P1
_symmetry_Int_Tables_number       1
_space_group_crystal_system       triclinic
_cell_length_a                    10.503419
_cell_length_b                    10.682148
_cell_length_c                    9.890317
_cell_angle_alpha                 89.324452
_cell_angle_beta                  90.781881
_cell_angle_gamma                 90.321656
_cell_volume                      1109.48748226

loop_
_atom_site_label
_atom_site_type_symbol
_atom_type_description
_atom_site_fract_x
_atom_site_fract_y
_atom_site_fract_z
_atom_type_partial_charge
C1    C     C_R   0.504734 0.259794 0.500456 0.871470
C2    C     C_3   0.956074 0.605004 0.439869 -0.214542
C3    C     C_3   0.037792 0.504936 0.370519 -0.155379
C4    C     C_3   0.122478 0.500158 0.497775 -0.021795
C5    C     C_R   0.545758 0.061854 0.620349 0.135374
C6    C     C_R   0.528056 0.128361 0.499689 -0.104740
C7    C     C_R   0.538984 0.066125 0.375959 -0.225263
C8    C     C_R   0.540071 0.936679 0.375138 -0.230208
C9    C     C_R   0.530551 0.870908 0.498068 -0.104056
C10   C     C_R   0.547500 0.933913 0.619445 0.146662
C11   C     C_3   0.476307 0.922561 0.748651 -0.454739
C12   C     C_R   0.257464 0.500126 0.499126 0.874115
C13   C     C_3   0.473135 0.064104 0.748991 -0.508385
C14   C     C_R   0.394855 0.461652 0.070156 0.219053
C15   C     C_R   0.595551 0.555625 0.073360 -0.180634
C16   C     C_R   0.594668 0.557928 0.929488 0.005356
C17   C     C_R   0.394707 0.461853 0.928136 0.210806
C18   C     C_3   0.330146 0.337724 0.923583 -0.519063
C19   C     C_3   0.330669 0.337298 0.077371 -0.501344
C20   C     C_R   0.505838 0.739893 0.499322 0.883486
C21   C     C_R   0.742561 0.499103 0.500882 0.871438
C22   C     C_3   0.043371 0.394016 0.559973 -0.206405
C23   C     C_3   0.956203 0.398732 0.432835 -0.160496
C24   C     C_3   0.877459 0.498675 0.502304 0.017945
C25   C     C_3   0.961676 0.493690 0.629854 -0.164953
C26   C     C_3   0.042365 0.598453 0.566219 0.041288
H1    H     H_    0.915841 0.316866 0.378611 0.137537
H2    H     H_    0.535753 0.881957 0.831864 0.205425
H3    H     H_    0.375347 0.101737 0.734328 0.207016
H4    H     H_    0.233111 0.343471 0.877696 0.203446
H5    H     H_    0.392296 0.265647 0.881435 0.213295
H6    H     H_    0.233787 0.343488 0.120561 0.199219
H7    H     H_    0.392428 0.263654 0.123391 0.212661
H8    H     H_    0.083551 0.308301 0.608261 0.139779
H9    H     H_    0.927833 0.488641 0.735608 0.154063
H10   H     H_    0.916007 0.691038 0.392124 0.138106
H11   H     H_    0.536436 0.115926 0.279937 0.169296
H12   H     H_    0.537648 0.889375 0.278833 0.173844
H13   H     H_    0.380653 0.879055 0.735553 0.224624
N1    N     N_R   0.499140 0.499140 0.142800 -0.112070
N2    N     N_R   0.499140 0.499180 0.857150 -0.129976
O1    O     O_R   0.500020 0.316790 0.614690 -0.618608
O2    O     O_R   0.500000 0.316760 0.385350 -0.624681
O3    O     O_R   0.313960 0.499990 0.614650 -0.618165
O4    O     O_R   0.313940 0.499950 0.385310 -0.621185
O5    O     O_R   0.500000 0.683240 0.614650 -0.614233
O6    O     O_R   0.499980 0.683210 0.385310 -0.624935
O7    O     O_R   0.686060 0.500050 0.614690 -0.619299
O8    O     O_R   0.686040 0.500010 0.385350 -0.628267
Zn1   Zn    Zn3+2 0.500010 0.500020 0.653130 0.954638
Zn2   Zn    Zn3+2 0.499990 0.499980 0.346870 0.939925
H14   H     H_    0.530382 0.104676 0.833228 0.203699
H15   H     H_    0.672940 0.599266 0.129190 0.155100
C27   C     C_1   0.692005 0.628780 0.861695 0.204377
N3    N     N_1   0.770110 0.687295 0.808405 -0.226251
C28   C     C_1   0.091854 0.707821 0.638756 0.157064
N4    N     N_1   0.130673 0.794101 0.696016 -0.227131
H16   H     H_    0.072622 0.509232 0.265059 0.146694

loop_
_geom_bond_atom_site_label_1
_geom_bond_atom_site_label_2
_ccdc_geom_bond_type
C4    C26   S    
C23   C24   S    
C6    C7    A    
C18   H4    S    
C23   H1    S    
C4    C12   S    
N1    Zn2   S    
C4    C22   S    
C9    C10   A    
N2    Zn1   S    
C9    C20   S    
C5    C13   S    
C21   O7    A    
C21   O8    A    
C17   C18   S    
C7    H11   S    
C7    C8    A    
C2    C26   S    
C24   C25   S    
C11   H13   S    
C11   C13   S    
C14   C17   A    
O2    Zn2   S    
C8    H12   S    
C11   H2    S    
O1    Zn1   S    
C19   H6    S    
C15   H15   S    
O7    Zn1   S    
C25   H9    S    
C2    C3    S    
C17   N2    A    
C2    C24   S    
C5    C6    A    
C22   H8    S    
C16   C27   S    
C15   N1    A    
C20   O6    A    
C10   C11   S    
O4    Zn2   S    
C14   N1    A    
C15   C16   A    
C13   H14   S    
C3    H16   S    
C20   O5    A    
C1    O1    A    
C5    C10   A    
C2    H10   S    
C28   N4    T    
C12   O3    A    
C18   C19   S    
C19   H7    S    
C21   C24   S    
C13   H3    S    
C12   O4    A    
O5    Zn1   S    
C22   C23   S    
C14   C19   S    
O3    Zn1   S    
C18   H5    S    
C25   C26   S    
C27   N3    T    
C3    C23   S    
C16   N2    A    
C1    O2    A    
O6    Zn2   S    
C3    C4    S    
C1    C6    S    
C8    C9    A    
O8    Zn2   S    
C22   C25   S    
C26   C28   S    
