data_mof_unit_29878.cif
_audit_creation_date              2012-10-26T19:52:45-0400
_audit_creation_method            fapswitch 2.2
_symmetry_space_group_name_H-M    P1
_symmetry_Int_Tables_number       1
_space_group_crystal_system       triclinic
_cell_length_a                    15.011459
_cell_length_b                    10.825322
_cell_length_c                    9.582736
_cell_angle_alpha                 89.819518
_cell_angle_beta                  90.648263
_cell_angle_gamma                 90.855422
_cell_volume                      1556.95162111

loop_
_atom_site_label
_atom_site_type_symbol
_atom_type_description
_atom_site_fract_x
_atom_site_fract_y
_atom_site_fract_z
_atom_type_partial_charge
C1    C     C_R   0.500766 0.262534 0.500220 0.537330
C2    C     C_R   0.185597 0.423857 0.590517 -0.136809
C3    C     C_R   0.232484 0.500412 0.498195 -0.004867
C4    C     C_R   0.328962 0.499756 0.499376 0.538952
C5    C     C_R   0.187416 0.578877 0.406239 -0.136984
C6    C     C_R   0.511274 0.062795 0.624506 -0.053830
C7    C     C_R   0.507535 0.129597 0.499977 -0.021139
C8    C     C_R   0.514591 0.065285 0.373201 -0.151722
C9    C     C_R   0.515105 0.936377 0.372439 -0.164646
C10   C     C_R   0.506430 0.870350 0.498291 -0.008791
C11   C     C_R   0.506261 0.936114 0.622550 -0.048319
C12   C     C_R   0.907749 0.592178 0.413757 0.054913
C13   C     C_3   0.453012 0.928353 0.754731 0.183298
C14   C     C_3   0.460378 0.069880 0.759689 0.167590
C15   C     C_R   0.528756 0.601838 0.074060 0.069083
C16   C     C_R   0.500727 0.737323 0.499578 0.541862
C17   C     C_R   0.459467 0.406835 0.071676 0.330651
C18   C     C_R   0.460798 0.407093 0.923852 0.065371
C19   C     C_R   0.530912 0.600162 0.927433 0.153220
C20   C     C_3   0.621256 0.661348 0.927346 0.142475
C21   C     C_3   0.616296 0.668011 0.087196 -0.251095
C22   C     C_R   0.671035 0.503248 0.500693 0.536112
C23   C     C_R   0.952106 0.345673 0.677886 -0.129215
C24   C     C_R   0.814535 0.597569 0.419034 0.215216
C25   C     C_R   0.767746 0.510605 0.502504 0.006026
C26   C     C_R   0.813611 0.426854 0.586943 -0.156105
C27   C     C_R   0.906185 0.426705 0.589319 -0.003030
C28   C     C_R   0.953532 0.507818 0.500606 0.012143
C29   C     C_3   0.316509 0.905792 0.621842 0.021581
C30   C     C_3   0.216659 0.894788 0.649347 -0.255791
C31   C     C_3   0.161970 0.923868 0.518398 -0.481160
C32   C     C_3   0.601473 0.102847 0.873154 0.013303
C33   C     C_3   0.642252 0.123809 0.017779 -0.252498
C34   C     C_R   0.044953 0.345085 0.679184 -0.131124
C35   C     C_3   0.742758 0.105429 0.016564 -0.493243
C36   C     C_3   0.719594 0.486548 0.941787 0.034735
C37   C     C_3   0.811256 0.516919 0.006425 -0.269225
C38   C     C_3   0.845321 0.411844 0.097804 -0.475671
C39   C     C_R   0.092739 0.424100 0.590288 0.017224
C40   C     C_R   0.046971 0.505020 0.499506 0.059624
C41   C     C_R   0.094681 0.583321 0.407963 0.010119
C42   C     C_R   0.049003 0.665210 0.320576 -0.165466
C43   C     C_R   0.956414 0.670714 0.324528 -0.113929
Cu1   Cu    Cu3+1 0.500000 0.499980 0.640670 0.981897
Cu2   Cu    Cu3+1 0.500000 0.500020 0.359330 0.937242
H1    H     H_    0.517701 0.889254 0.273219 0.138835
H2    H     H_    0.079366 0.282408 0.748988 0.109142
H3    H     H_    0.221525 0.362884 0.660611 0.110486
H4    H     H_    0.224784 0.638551 0.336224 0.117380
H5    H     H_    0.084961 0.725906 0.250074 0.112580
H6    H     H_    0.923144 0.735778 0.256322 0.167139
H7    H     H_    0.515917 0.113976 0.274491 0.181207
H8    H     H_    0.712727 0.704196 0.385566 0.332605
H9    H     H_    0.333127 0.835740 0.542322 0.150330
H10   H     H_    0.330920 0.999588 0.579608 0.113591
H11   H     H_    0.200272 0.799218 0.684559 0.184094
H12   H     H_    0.490773 0.882620 0.840164 0.133667
H13   H     H_    0.198543 0.960010 0.733422 0.170173
H14   H     H_    0.173495 0.021376 0.486012 0.150713
H15   H     H_    0.090004 0.910013 0.540139 0.159324
H16   H     H_    0.180557 0.861853 0.431745 0.149288
H17   H     H_    0.628569 0.174127 0.800512 0.149444
H18   H     H_    0.621092 0.009374 0.837860 0.113984
H19   H     H_    0.627743 0.219010 0.053253 0.175301
H20   H     H_    0.612303 0.056753 0.092253 0.169039
H21   H     H_    0.757860 0.007447 0.993690 0.158348
H22   H     H_    0.771595 0.129414 0.120347 0.155303
H23   H     H_    0.395826 0.117813 0.747399 0.133792
H24   H     H_    0.773967 0.165225 0.935863 0.129798
H25   H     H_    0.384084 0.343125 0.214998 0.363835
H26   H     H_    0.727437 0.409041 0.867983 0.144314
H27   H     H_    0.671652 0.450506 0.019883 0.121341
H28   H     H_    0.859665 0.534939 0.921522 0.174583
H29   H     H_    0.807989 0.602008 0.070310 0.195805
H30   H     H_    0.796320 0.388063 0.180027 0.163922
H31   H     H_    0.909037 0.440496 0.148902 0.162876
H32   H     H_    0.858043 0.329528 0.032958 0.137867
H33   H     H_    0.428834 0.332318 0.867026 0.168276
H34   H     H_    0.618444 0.754463 0.878641 0.105044
H35   H     H_    0.665421 0.616033 0.149361 0.189453
H36   H     H_    0.776846 0.359936 0.648890 0.103520
H37   H     H_    0.608019 0.764021 0.124809 0.095031
H38   H     H_    0.916185 0.283394 0.746741 0.102464
N1    N     N_R   0.500570 0.500930 0.147930 -0.249400
N2    N     N_R   0.500570 0.500890 0.852020 -0.263353
O1    O     O_R   0.500000 0.319640 0.618810 -0.516356
O2    O     O_3   0.363740 0.880668 0.747506 -0.566122
O3    O     O_3   0.507664 0.113348 0.880617 -0.567430
O4    O     O_3   0.415506 0.309774 0.134126 -0.696147
O5    O     O_3   0.689360 0.590104 0.864699 -0.534231
O6    O     O_R   0.500010 0.319680 0.381230 -0.491018
O7    O     O_R   0.370250 0.499950 0.618800 -0.498616
O8    O     O_R   0.370260 0.499990 0.381220 -0.525894
O9    O     O_R   0.499990 0.680320 0.618770 -0.480439
O10   O     O_R   0.500000 0.680360 0.381190 -0.514912
O11   O     O_R   0.629740 0.500010 0.618780 -0.452710
O12   O     O_R   0.629750 0.500050 0.381200 -0.514342
O13   O     O_3   0.771998 0.689849 0.344978 -0.748231

loop_
_geom_bond_atom_site_label_1
_geom_bond_atom_site_label_2
_ccdc_geom_bond_type
C37   H29   S    
C41   C42   A    
C31   H16   S    
C19   C20   S    
Cu2   O8    S    
C33   H20   S    
C7    C8    A    
C38   H31   S    
C15   C19   A    
C26   C27   A    
C29   C30   S    
C23   H38   S    
C12   C28   A    
C24   O13   S    
C36   C37   S    
C12   C43   A    
C30   C31   S    
C13   H12   S    
C29   H9    S    
C28   C40   A    
C32   O3    S    
C31   H14   S    
C37   H28   S    
C2    C39   A    
C8    C9    A    
C22   C25   S    
C23   C27   A    
C9    C10   A    
C8    H7    S    
Cu1   O7    S    
C36   H26   S    
C9    H1    S    
C1    O6    A    
C22   O12   A    
C13   C14   S    
C5    H4    S    
Cu1   O1    S    
C38   H30   S    
C18   N2    A    
C34   C39   A    
C17   O4    S    
C24   C25   A    
C6    C11   A    
C29   H10   S    
C35   H21   S    
C2    H3    S    
C25   C26   A    
C30   H11   S    
C19   N2    A    
C31   H15   S    
C37   C38   S    
Cu1   O11   S    
C6    C14   S    
C35   H22   S    
C18   H33   S    
C23   C34   A    
C13   O2    S    
C17   C18   A    
C21   H37   S    
C6    C7    A    
C42   H5    S    
C40   C41   A    
C26   H36   S    
Cu2   N1    S    
C42   C43   A    
C3    C4    S    
Cu2   O10   S    
C39   C40   A    
Cu1   Cu2   S    
C36   O5    S    
C1    O1    A    
C5    C41   A    
C16   O10   A    
C20   H34   S    
C1    C7    S    
C22   O11   A    
C32   H18   S    
C3    C5    A    
C15   N1    A    
C38   H32   S    
H8    O13   S    
C12   C24   A    
C16   O9    A    
C17   N1    A    
C32   C33   S    
C2    C3    A    
C32   H17   S    
Cu2   O12   S    
C11   C13   S    
C43   H6    S    
C20   O5    S    
C33   H19   S    
C30   H13   S    
C21   H35   S    
C33   C35   S    
Cu2   O6    S    
C29   O2    S    
Cu1   O9    S    
C10   C11   A    
C14   O3    S    
C4    O8    A    
H25   O4    S    
C36   H27   S    
C15   C21   S    
C20   C21   S    
C35   H24   S    
C27   C28   A    
C14   H23   S    
C10   C16   S    
C34   H2    S    
Cu1   N2    S    
C4    O7    A    
