data_mof_unit_49018.cif
_audit_creation_date              2012-12-11T15:06:52-0500
_audit_creation_method            fapswitch 2.2
_symmetry_space_group_name_H-M    P1
_symmetry_Int_Tables_number       1
_space_group_crystal_system       triclinic
_cell_length_a                    19.766905
_cell_length_b                    11.352782
_cell_length_c                    18.696614
_cell_angle_alpha                 89.846971
_cell_angle_beta                  90.797683
_cell_angle_gamma                 90.058569
_cell_volume                      4195.27162995

loop_
_atom_site_label
_atom_site_type_symbol
_atom_type_description
_atom_site_fract_x
_atom_site_fract_y
_atom_site_fract_z
_atom_type_partial_charge
C1    C     C_R   0.760902 0.524590 0.639531 0.535416
C2    C     C_R   0.238669 0.523981 0.360735 0.536392
C3    C     C_R   0.260994 0.025096 0.639619 0.535916
C4    C     C_R   0.739095 0.024787 0.360182 0.535214
C5    C     C_3   0.815109 0.117929 0.450083 -0.258881
C6    C     C_3   0.187294 0.121784 0.547724 -0.259974
C7    C     C_3   0.312068 0.619928 0.452340 -0.259554
C8    C     C_3   0.690222 0.632494 0.548944 -0.266565
C9    C     C_3   0.747531 0.058507 0.436104 0.061227
C10   C     C_3   0.253315 0.058801 0.563269 0.061260
C11   C     C_3   0.245873 0.557392 0.437134 0.062610
C12   C     C_3   0.752355 0.557547 0.563264 0.068364
C13   C     C_3   0.761144 0.090894 0.573858 0.065573
C14   C     C_3   0.241453 0.088556 0.424708 0.068317
C15   C     C_3   0.258092 0.588176 0.575564 0.067117
C16   C     C_3   0.741340 0.587917 0.424787 0.065850
C17   C     C_3   0.758115 0.959262 0.561333 -0.260260
C18   C     C_3   0.235421 0.958278 0.440135 -0.256381
C19   C     C_3   0.264317 0.457838 0.560710 -0.256102
C20   C     C_3   0.735116 0.457240 0.439692 -0.262279
C21   C     C_3   0.823927 0.131494 0.531025 -0.209637
C22   C     C_3   0.184842 0.147593 0.467152 -0.218067
C23   C     C_3   0.314235 0.647514 0.532510 -0.220333
C24   C     C_3   0.684984 0.649103 0.467180 -0.215494
C25   C     C_3   0.994721 0.205597 0.457535 -0.248015
C26   C     C_3   0.993816 0.206582 0.539880 -0.242311
C27   C     C_3   0.498855 0.703877 0.458619 -0.255232
C28   C     C_3   0.500648 0.704785 0.541608 -0.255482
C29   C     C_3   0.069948 0.381951 0.478178 -0.220031
C30   C     C_3   0.931660 0.404795 0.520562 -0.190623
C31   C     C_3   0.569646 0.886685 0.478801 -0.221741
C32   C     C_3   0.428099 0.884371 0.520354 -0.221851
C33   C     C_3   0.950009 0.411077 0.441119 -0.024143
C34   C     C_3   0.050940 0.402636 0.556348 -0.035807
C35   C     C_3   0.449695 0.908216 0.443218 -0.033506
C36   C     C_3   0.547082 0.912757 0.554941 -0.032604
C37   C     C_3   0.011397 0.332368 0.430617 0.057176
C38   C     C_3   0.984740 0.335425 0.567378 0.060883
C39   C     C_3   0.512470 0.832458 0.431192 0.058449
C40   C     C_3   0.485860 0.833344 0.568063 0.057539
C41   C     C_3   0.818378 0.025207 0.047108 -0.232714
C42   C     C_3   0.181670 0.025204 0.952951 -0.233027
C43   C     C_3   0.318377 0.525207 0.047108 -0.232744
C44   C     C_3   0.681670 0.525204 0.952952 -0.233021
C45   C     C_R   0.774351 0.121508 0.649370 0.537167
C46   C     C_R   0.227030 0.118684 0.349236 0.535832
C47   C     C_R   0.272899 0.618748 0.650845 0.533528
C48   C     C_R   0.727153 0.618290 0.349127 0.532180
C49   C     C_3   0.818087 0.021682 0.966333 -0.236987
C50   C     C_3   0.181903 0.022013 0.033774 -0.236615
C51   C     C_3   0.318087 0.521682 0.966333 -0.236940
C52   C     C_3   0.681903 0.522013 0.033774 -0.236605
C53   C     C_3   0.690697 0.014926 0.029921 -0.225092
C54   C     C_3   0.309306 0.015207 0.970531 -0.226010
C55   C     C_3   0.190697 0.514926 0.029920 -0.225125
C56   C     C_3   0.809306 0.515207 0.970531 -0.225972
C57   C     C_3   0.743979 0.201249 0.060543 -0.254832
C58   C     C_3   0.256219 0.201254 0.938764 -0.254045
C59   C     C_3   0.243978 0.701249 0.060542 -0.254864
C60   C     C_3   0.756219 0.701254 0.938765 -0.254061
C61   C     C_3   0.748302 0.070191 0.074937 0.062847
C62   C     C_3   0.251799 0.070097 0.925035 0.062592
C63   C     C_3   0.248301 0.570190 0.074936 0.062705
C64   C     C_3   0.751799 0.570097 0.925036 0.062532
C65   C     C_3   0.761017 0.103368 0.935825 0.061392
C66   C     C_3   0.238897 0.104131 0.064002 0.061587
C67   C     C_3   0.261017 0.603368 0.935825 0.061701
C68   C     C_3   0.738897 0.604131 0.064003 0.061638
C69   C     C_3   0.693915 0.042262 0.948774 -0.250702
C70   C     C_3   0.306092 0.043404 0.051457 -0.250186
C71   C     C_3   0.193915 0.542262 0.948773 -0.250731
C72   C     C_3   0.806092 0.543403 0.051457 -0.250201
C73   C     C_3   0.758949 0.218521 0.980168 -0.232245
C74   C     C_3   0.240923 0.219056 0.018981 -0.233160
C75   C     C_3   0.258949 0.718521 0.980168 -0.232154
C76   C     C_3   0.740924 0.719056 0.018981 -0.233123
C77   C     C_3   0.998735 0.480673 0.040430 -0.234840
C78   C     C_3   0.001374 0.480597 0.959239 -0.234469
C79   C     C_3   0.498735 0.980674 0.040430 -0.234870
C80   C     C_3   0.501374 0.980598 0.959239 -0.234453
C81   C     C_3   0.066443 0.291323 0.028075 -0.222524
C82   C     C_3   0.933318 0.291538 0.972178 -0.222791
C83   C     C_3   0.566442 0.791323 0.028075 -0.222568
C84   C     C_3   0.433318 0.791539 0.972177 -0.222775
C85   C     C_3   0.945801 0.283171 0.053691 -0.258646
C86   C     C_3   0.053964 0.282889 0.946613 -0.258951
C87   C     C_3   0.445800 0.783172 0.053691 -0.258663
C88   C     C_3   0.553964 0.782890 0.946613 -0.258963
C89   C     C_R   0.963859 0.343106 0.642666 0.541844
C90   C     C_R   0.033352 0.341989 0.355758 0.538955
C91   C     C_R   0.464978 0.842544 0.643282 0.545841
C92   C     C_R   0.533986 0.842171 0.356175 0.543877
C93   C     C_3   0.009542 0.352691 0.069724 0.064282
C94   C     C_3   0.990368 0.352553 0.930339 0.064045
C95   C     C_3   0.509542 0.852692 0.069724 0.064283
C96   C     C_3   0.490368 0.852553 0.930339 0.064280
C97   C     C_R   0.760597 0.533776 0.848663 0.535339
C98   C     C_R   0.239500 0.534098 0.151429 0.534977
C99   C     C_R   0.260597 0.033777 0.848663 0.535318
C100  C     C_R   0.739500 0.034099 0.151430 0.534574
C101  C     C_R   0.774699 0.132843 0.858857 0.535354
C102  C     C_R   0.225155 0.133429 0.140952 0.534863
C103  C     C_R   0.274699 0.632844 0.858857 0.534268
C104  C     C_R   0.725156 0.633429 0.140953 0.534575
C105  C     C_R   0.969207 0.353392 0.853545 0.536168
C106  C     C_R   0.030769 0.353478 0.146488 0.535079
C107  C     C_R   0.469207 0.853392 0.853545 0.535527
C108  C     C_R   0.530769 0.853478 0.146488 0.535199
C109  C     C_3   0.692192 0.144141 0.462669 -0.244842
C110  C     C_3   0.311111 0.140338 0.535384 -0.246707
C111  C     C_3   0.188200 0.639088 0.464797 -0.244260
C112  C     C_3   0.812352 0.631819 0.534570 -0.234072
C113  C     C_3   0.693750 0.145575 0.544510 -0.238952
C114  C     C_3   0.311860 0.134220 0.453126 -0.247918
C115  C     C_3   0.187546 0.632997 0.547217 -0.246849
C116  C     C_3   0.811775 0.630792 0.452788 -0.243900
C117  C     C_3   0.745885 0.942549 0.480697 -0.221586
C118  C     C_3   0.251578 0.942465 0.519873 -0.224861
C119  C     C_3   0.247012 0.441331 0.481259 -0.228016
C120  C     C_3   0.739519 0.440218 0.520908 -0.209184
Cr1   Cr    Cr6+3 0.885690 0.492860 0.745310 0.989987
Cr2   Cr    Cr6+3 0.114310 0.492860 0.254690 0.989732
Cr3   Cr    Cr6+3 0.385690 0.992860 0.745310 0.989518
Cr4   Cr    Cr6+3 0.614310 0.992860 0.254690 0.989465
Cr5   Cr    Cr6+3 0.729880 0.332270 0.748190 0.990240
Cr6   Cr    Cr6+3 0.270120 0.332270 0.251810 0.989987
Cr7   Cr    Cr6+3 0.229880 0.832270 0.748190 0.989774
Cr8   Cr    Cr6+3 0.770120 0.832270 0.251810 0.989041
Cr9   Cr    Cr6+3 0.888120 0.178590 0.753010 0.990670
Cr10  Cr    Cr6+3 0.111880 0.178590 0.246990 0.990405
Cr11  Cr    Cr6+3 0.388120 0.678590 0.753010 0.990908
Cr12  Cr    Cr6+3 0.611880 0.678590 0.246990 0.990671
H1    H     H_    0.640680 0.124560 0.442987 0.129246
H2    H     H_    0.361768 0.123166 0.558109 0.130043
H3    H     H_    0.137525 0.621451 0.442274 0.129499
H4    H     H_    0.861233 0.608477 0.557207 0.133435
H5    H     H_    0.865692 0.071649 0.546090 0.128776
H6    H     H_    0.134625 0.122178 0.446578 0.136003
H7    H     H_    0.364274 0.623375 0.553377 0.136112
H8    H     H_    0.635582 0.615430 0.449617 0.135690
H9    H     H_    0.782620 0.878705 0.460605 0.132492
H10   H     H_    0.215588 0.879346 0.542348 0.133468
H11   H     H_    0.282189 0.377521 0.458614 0.132256
H12   H     H_    0.688758 0.408699 0.536262 0.126069
H13   H     H_    0.806265 0.916293 0.578298 0.115087
H14   H     H_    0.183008 0.927288 0.428177 0.125116
H15   H     H_    0.316968 0.427537 0.572017 0.126526
H16   H     H_    0.685453 0.424446 0.419073 0.121599
H17   H     H_    0.030210 0.138522 0.438354 0.119512
H18   H     H_    0.956457 0.146437 0.561147 0.127046
H19   H     H_    0.533671 0.637881 0.437433 0.125622
H20   H     H_    0.466854 0.637320 0.563422 0.126066
H21   H     H_    0.945313 0.176142 0.437205 0.128121
H22   H     H_    0.042130 0.169037 0.559802 0.119483
H23   H     H_    0.448719 0.673205 0.440086 0.121211
H24   H     H_    0.550880 0.676911 0.560557 0.118170
H25   H     H_    0.607119 0.819451 0.484354 0.138517
H26   H     H_    0.390821 0.816864 0.517140 0.138437
H27   H     H_    0.106990 0.314320 0.479001 0.139250
H28   H     H_    0.879948 0.378109 0.528046 0.132789
H29   H     H_    0.964916 0.504296 0.429694 0.138552
H30   H     H_    0.042353 0.499132 0.562895 0.134729
H31   H     H_    0.463606 0.003389 0.439217 0.139565
H32   H     H_    0.531752 0.007394 0.556922 0.143249
H33   H     H_    0.934501 0.495692 0.539215 0.092111
H34   H     H_    0.090129 0.463066 0.455520 0.115444
H35   H     H_    0.407760 0.964537 0.543582 0.115942
H36   H     H_    0.590172 0.966901 0.454927 0.120834
H37   H     H_    0.833825 0.936577 0.065645 0.139900
H38   H     H_    0.166226 0.936504 0.934760 0.139303
H39   H     H_    0.333825 0.436576 0.065645 0.139883
H40   H     H_    0.666226 0.436504 0.934760 0.139295
H41   H     H_    0.702279 0.233004 0.441729 0.110340
H42   H     H_    0.301080 0.231651 0.552131 0.111336
H43   H     H_    0.198385 0.730458 0.447725 0.111818
H44   H     H_    0.807294 0.723974 0.552785 0.104792
H45   H     H_    0.858694 0.084948 0.066921 0.115562
H46   H     H_    0.141402 0.084856 0.932818 0.115927
H47   H     H_    0.358694 0.584948 0.066921 0.115648
H48   H     H_    0.641403 0.584856 0.932818 0.115940
H49   H     H_    0.869737 0.043388 0.949075 0.133673
H50   H     H_    0.130240 0.043619 0.050880 0.133433
H51   H     H_    0.369737 0.543389 0.949075 0.133728
H52   H     H_    0.630240 0.543619 0.050880 0.133448
H53   H     H_    0.809234 0.930535 0.947452 0.117744
H54   H     H_    0.190799 0.930961 0.053069 0.118007
H55   H     H_    0.309234 0.430535 0.947452 0.117691
H56   H     H_    0.690799 0.430961 0.053069 0.117962
H57   H     H_    0.699236 0.923309 0.037895 0.108098
H58   H     H_    0.300532 0.923526 0.963619 0.108150
H59   H     H_    0.199236 0.423308 0.037894 0.108068
H60   H     H_    0.800532 0.423526 0.963619 0.108142
H61   H     H_    0.689622 0.960117 0.916883 0.100954
H62   H     H_    0.310496 0.961621 0.083946 0.100809
H63   H     H_    0.189622 0.460117 0.916882 0.100749
H64   H     H_    0.810496 0.461620 0.083946 0.100630
H65   H     H_    0.692492 0.233952 0.073105 0.120703
H66   H     H_    0.307791 0.233903 0.926242 0.121099
H67   H     H_    0.192491 0.733951 0.073105 0.120738
H68   H     H_    0.807792 0.733903 0.926243 0.121126
H69   H     H_    0.781046 0.250165 0.094516 0.100278
H70   H     H_    0.219350 0.249949 0.904331 0.100479
H71   H     H_    0.281046 0.750165 0.094516 0.100520
H72   H     H_    0.719350 0.749949 0.904332 0.100579
H73   H     H_    0.809803 0.249209 0.978606 0.110915
H74   H     H_    0.190014 0.249589 0.019854 0.111067
H75   H     H_    0.309803 0.749210 0.978606 0.110925
H76   H     H_    0.690015 0.749589 0.019855 0.111075
H77   H     H_    0.722772 0.281181 0.956184 0.127663
H78   H     H_    0.276995 0.282002 0.042751 0.126921
H79   H     H_    0.222772 0.781181 0.956184 0.127728
H80   H     H_    0.776995 0.782001 0.042752 0.126955
H81   H     H_    0.641255 0.041352 0.050702 0.127837
H82   H     H_    0.358831 0.041153 0.949566 0.127581
H83   H     H_    0.141255 0.541353 0.050701 0.127815
H84   H     H_    0.858831 0.541153 0.949566 0.127544
H85   H     H_    0.684911 0.234591 0.564048 0.133722
H86   H     H_    0.327732 0.219679 0.430904 0.131157
H87   H     H_    0.171631 0.718432 0.569108 0.131585
H88   H     H_    0.826627 0.718177 0.432478 0.129419
H89   H     H_    0.651858 0.101857 0.932475 0.120054
H90   H     H_    0.348141 0.103372 0.067304 0.120240
H91   H     H_    0.151858 0.601857 0.932474 0.120062
H92   H     H_    0.848141 0.603371 0.067305 0.120217
H93   H     H_    0.035502 0.546403 0.060387 0.134710
H94   H     H_    0.964662 0.546355 0.939109 0.135057
H95   H     H_    0.535502 0.046404 0.060386 0.134734
H96   H     H_    0.464662 0.046355 0.939108 0.135115
H97   H     H_    0.948929 0.513425 0.057963 0.115212
H98   H     H_    0.051193 0.513282 0.941564 0.115301
H99   H     H_    0.448929 0.013426 0.057963 0.115216
H100  H     H_    0.551193 0.013283 0.941563 0.115262
H101  H     H_    0.608398 0.847801 0.038226 0.107874
H102  H     H_    0.391516 0.848316 0.961823 0.107881
H103  H     H_    0.108398 0.347800 0.038225 0.107864
H104  H     H_    0.891516 0.348316 0.961824 0.107835
H105  H     H_    0.597741 0.818297 0.916724 0.100311
H106  H     H_    0.402088 0.818704 0.083453 0.100281
H107  H     H_    0.097741 0.318296 0.916724 0.100299
H108  H     H_    0.902088 0.318702 0.083454 0.100136
H109  H     H_    0.953481 0.189898 0.069996 0.118427
H110  H     H_    0.046153 0.189587 0.930659 0.118400
H111  H     H_    0.453480 0.689899 0.069996 0.118506
H112  H     H_    0.546153 0.689588 0.930659 0.118431
H113  H     H_    0.923287 0.202956 0.950842 0.134599
H114  H     H_    0.076277 0.202688 0.049691 0.135190
H115  H     H_    0.423288 0.702956 0.950842 0.134651
H116  H     H_    0.576277 0.702688 0.049691 0.135195
H117  H     H_    0.650245 0.094276 0.564588 0.145945
H118  H     H_    0.351726 0.073421 0.436586 0.149844
H119  H     H_    0.148142 0.571205 0.564316 0.138844
H120  H     H_    0.851606 0.572221 0.434188 0.143283
H121  H     H_    0.695406 0.911310 0.474020 0.120442
H122  H     H_    0.302291 0.910891 0.523694 0.123089
H123  H     H_    0.195911 0.410408 0.478903 0.126523
H124  H     H_    0.775181 0.370782 0.535722 0.112905
H125  H     H_    0.718883 0.917567 0.593743 0.156695
H126  H     H_    0.270020 0.906141 0.406603 0.147071
H127  H     H_    0.230293 0.405710 0.595154 0.143211
H128  H     H_    0.774347 0.406482 0.412251 0.152796
H129  H     H_    0.856444 0.062485 0.428588 0.127725
H130  H     H_    0.143616 0.065672 0.563017 0.129251
H131  H     H_    0.355122 0.561840 0.438218 0.129699
H132  H     H_    0.644981 0.586256 0.569383 0.119878
H133  H     H_    0.816509 0.204932 0.423451 0.135958
H134  H     H_    0.185585 0.204601 0.578486 0.138013
H135  H     H_    0.315056 0.702115 0.420567 0.125466
H136  H     H_    0.694059 0.718538 0.576458 0.120494
H137  H     H_    0.838973 0.219467 0.546598 0.111991
H138  H     H_    0.194421 0.238882 0.456791 0.108622
H139  H     H_    0.304286 0.738731 0.541684 0.108510
H140  H     H_    0.690510 0.739760 0.451750 0.107860
O1    O     O_R   0.957210 0.449410 0.665480 -0.537146
O2    O     O_R   0.042790 0.449410 0.334520 -0.539152
O3    O     O_R   0.457210 0.949410 0.665480 -0.538255
O4    O     O_R   0.542790 0.949410 0.334520 -0.537832
O5    O     O_R   0.736260 0.212010 0.826560 -0.511223
O6    O     O_R   0.263740 0.212010 0.173440 -0.511824
O7    O     O_R   0.236260 0.712010 0.826560 -0.511984
O8    O     O_R   0.763740 0.712010 0.173440 -0.511876
O9    O     O_R   0.832520 0.095300 0.836000 -0.533479
O10   O     O_R   0.167480 0.095300 0.164000 -0.534095
O11   O     O_R   0.332520 0.595300 0.836000 -0.533935
O12   O     O_R   0.667480 0.595300 0.164000 -0.534213
O13   O     O_R   0.946380 0.253940 0.826940 -0.512936
O14   O     O_R   0.053620 0.253940 0.173060 -0.514040
O15   O     O_R   0.446380 0.753940 0.826940 -0.513124
O16   O     O_R   0.553620 0.753940 0.173060 -0.513838
O17   O     O_3   0.834560 0.334570 0.748840 -0.276248
O18   O     O_3   0.165440 0.334570 0.251160 -0.274118
O19   O     O_3   0.334560 0.834570 0.748840 -0.274581
O20   O     O_3   0.665440 0.834570 0.251160 -0.274012
O21   O     O_R   0.820730 0.541240 0.668250 -0.517584
O22   O     O_R   0.179270 0.541240 0.331750 -0.516128
O23   O     O_R   0.320730 0.041240 0.668250 -0.516463
O24   O     O_R   0.679270 0.041240 0.331750 -0.516783
O25   O     O_R   0.714240 0.455060 0.663710 -0.533440
O26   O     O_R   0.285760 0.455060 0.336290 -0.531893
O27   O     O_R   0.214240 0.955060 0.663710 -0.531797
O28   O     O_R   0.785760 0.955060 0.336290 -0.533241
O29   O     O_R   0.736780 0.204870 0.675910 -0.515327
O30   O     O_R   0.263220 0.204870 0.324090 -0.515615
O31   O     O_R   0.236780 0.704870 0.675910 -0.515791
O32   O     O_R   0.763220 0.704870 0.324090 -0.515344
O33   O     O_R   0.833070 0.087590 0.673490 -0.532303
O34   O     O_R   0.166930 0.087590 0.326510 -0.531774
O35   O     O_R   0.333070 0.587590 0.673490 -0.532161
O36   O     O_R   0.666930 0.587590 0.326510 -0.531967
O37   O     O_R   0.946890 0.246800 0.676300 -0.516456
O38   O     O_R   0.053110 0.246800 0.323700 -0.515467
O39   O     O_R   0.446890 0.746800 0.676300 -0.514665
O40   O     O_R   0.553110 0.746800 0.323700 -0.514568
O41   O     O_R   0.956650 0.457120 0.827980 -0.531897
O42   O     O_R   0.043350 0.457120 0.172020 -0.531993
O43   O     O_R   0.456650 0.957120 0.827980 -0.532629
O44   O     O_R   0.543350 0.957120 0.172020 -0.532240
O45   O     O_R   0.820220 0.548390 0.818890 -0.510179
O46   O     O_R   0.179780 0.548390 0.181110 -0.509939
O47   O     O_R   0.320220 0.048390 0.818890 -0.510256
O48   O     O_R   0.679780 0.048390 0.181110 -0.510113
O49   O     O_R   0.713680 0.462770 0.826210 -0.533569
O50   O     O_R   0.286320 0.462770 0.173790 -0.533626
O51   O     O_R   0.213680 0.962770 0.826210 -0.533627
O52   O     O_R   0.786320 0.962770 0.173790 -0.533897
N1    N     N_3   0.601697 0.894686 0.607800 -0.695116
H141  H     H_    0.601594 0.809249 0.628519 0.230069
H142  H     H_    0.594188 0.951134 0.651091 0.245060
N2    N     N_3   0.394817 0.884096 0.391227 -0.692108
H143  H     H_    0.399932 0.801522 0.367545 0.230591
H144  H     H_    0.398232 0.944755 0.349206 0.238096
N3    N     N_3   0.105297 0.368016 0.606760 -0.692040
H145  H     H_    0.094725 0.288682 0.632641 0.233086
H146  H     H_    0.108250 0.430515 0.647712 0.233426
N4    N     N_3   0.893028 0.380008 0.393157 -0.689626
H147  H     H_    0.901387 0.302604 0.364656 0.228566
H148  H     H_    0.888991 0.444257 0.353100 0.226594

loop_
_geom_bond_atom_site_label_1
_geom_bond_atom_site_label_2
_ccdc_geom_bond_type
C78   H94   S    
C5    H133  S    
C82   C94   S    
C119  H11   S    
C120  H12   S    
C21   H5    S    
C53   C69   S    
C104  O8    A    
C56   H60   S    
C43   C63   S    
C44   C64   S    
Cr6   O6    S    
C102  O10   A    
C84   H115  S    
C112  H4    S    
C35   N2    S    
C63   C98   S    
C51   H51   S    
Cr2   O2    S    
C19   H127  S    
C35   C39   S    
C109  H41   S    
C28   C40   S    
C72   H92   S    
C30   C38   S    
C113  H85   S    
C42   H38   S    
C75   H75   S    
C56   C72   S    
C45   O33   A    
C8    H132  S    
C18   C118  S    
C81   C86   S    
C83   C88   S    
C87   H106  S    
C48   O32   A    
C5    H129  S    
C41   C49   S    
Cr8   O28   S    
Cr1   O45   S    
Cr2   O42   S    
Cr3   O47   S    
Cr4   O48   S    
C26   C38   S    
Cr10  O34   S    
C14   C114  S    
Cr11  O39   S    
C60   C76   S    
C35   H31   S    
Cr8   O52   S    
C55   H59   S    
C29   H34   S    
C33   H29   S    
C44   H40   S    
C88   H112  S    
C54   C70   S    
C48   O36   A    
C68   C72   S    
C23   H139  S    
C69   H61   S    
C13   C21   S    
C99   O47   A    
C79   H99   S    
C31   H25   S    
C64   C97   S    
C17   H13   S    
C15   C115  S    
C20   C120  S    
C1    O25   A    
C54   H82   S    
C43   H39   S    
C57   H65   S    
C59   C63   S    
C52   H52   S    
Cr4   O20   S    
C72   H64   S    
C57   C61   S    
C82   C85   S    
Cr6   O50   S    
C77   H97   S    
Cr11  O19   S    
C60   C64   S    
Cr9   O13   S    
C13   C45   S    
C102  O6    A    
C42   H46   S    
C91   O3    A    
C69   H89   S    
C95   C108  S    
C60   H68   S    
C62   C99   S    
C107  O43   A    
C5    C21   S    
C58   H70   S    
C79   H95   S    
C31   C36   S    
C47   O35   A    
C4    O28   A    
C97   O45   A    
Cr5   O17   S    
C90   O38   A    
Cr1   O21   S    
C107  O15   A    
Cr2   O18   S    
C65   C101  S    
Cr10  O14   S    
Cr3   O23   S    
Cr11  O11   S    
C67   C103  S    
C66   C70   S    
Cr5   O5    S    
C37   C90   S    
C24   H140  S    
C41   H45   S    
C78   C94   S    
C55   H83   S    
C115  H119  S    
C66   C74   S    
C113  H117  S    
C36   N1    S    
C25   H17   S    
C57   C73   S    
N1    H142  S    
C53   C61   S    
C60   H72   S    
C83   H101  S    
C55   C63   S    
C6    H134  S    
C56   C64   S    
C7    H131  S    
Cr7   O51   S    
C116  H88   S    
C42   C62   S    
Cr5   O29   S    
C76   H80   S    
C50   H50   S    
C1    C12   S    
Cr9   O33   S    
C80   H100  S    
C2    C11   S    
Cr3   O3    S    
C110  H42   S    
C6    H130  S    
Cr9   O37   S    
N4    H147  S    
C25   C26   S    
C105  O13   A    
C84   H102  S    
C5    C9    S    
C108  O16   A    
C93   C106  S    
N3    H146  S    
C71   H63   S    
C8    C12   S    
C90   O2    A    
C51   C67   S    
C43   H47   S    
C7    H135  S    
C42   C50   S    
C49   H49   S    
C112  H44   S    
Cr2   O46   S    
Cr3   O43   S    
C33   N4    S    
C110  H2    S    
C61   C100  S    
C67   C75   S    
C17   H125  S    
C50   H54   S    
C112  C116  S    
C58   C74   S    
Cr10  O38   S    
Cr11  O35   S    
C53   H81   S    
C54   H58   S    
C81   H114  S    
C30   H33   S    
N2    H143  S    
C34   H30   S    
C68   C76   S    
C1    O21   A    
C34   N3    S    
C98   O46   A    
C85   H108  S    
C14   C22   S    
C3    O23   A    
C27   C39   S    
C7    C23   S    
C8    C24   S    
C40   C91   S    
C101  O9    A    
C56   H84   S    
Cr7   O27   S    
C99   O51   A    
Cr8   O20   S    
C114  H86   S    
C49   H53   S    
C57   H69   S    
C52   H56   S    
Cr7   O7    S    
C4    C9    S    
Cr4   O24   S    
C53   H57   S    
Cr8   O8    S    
C86   H110  S    
C58   C62   S    
C89   O1    A    
C88   C96   S    
C94   C105  S    
C77   H93   S    
C82   H104  S    
C12   C112  S    
C44   H48   S    
C21   H137  S    
C14   C46   S    
C77   C78   S    
C15   C19   S    
C75   H79   S    
C101  O5    A    
C92   O40   A    
C6    C22   S    
C2    O22   A    
C73   H73   S    
Cr6   O18   S    
Cr2   O22   S    
C15   C47   S    
Cr3   O19   S    
C46   O34   A    
C82   H113  S    
C17   C117  S    
C19   C119  S    
C27   H23   S    
C81   H103  S    
Cr12  O36   S    
C16   C116  S    
C76   H76   S    
C9    C109  S    
C25   H21   S    
C26   H18   S    
C105  O41   A    
C54   C62   S    
C18   H14   S    
C109  H1    S    
C29   C34   S    
C108  O44   A    
C33   C37   S    
C41   C61   S    
C30   H28   S    
N3    H145  S    
C79   C95   S    
Cr5   O25   S    
Cr6   O30   S    
C70   H62   S    
C85   H109  S    
C86   H107  S    
C80   H96   S    
Cr12  O12   S    
C96   C107  S    
C91   O39   A    
C100  O52   A    
C39   C92   S    
C73   H77   S    
C27   H19   S    
C106  O14   A    
C14   C18   S    
C68   C104  S    
C119  H123  S    
C6    C10   S    
C13   C17   S    
C78   H98   S    
C22   H6    S    
Cr5   O49   S    
C19   H15   S    
C104  O12   A    
C43   C51   S    
C41   H37   S    
C65   C69   S    
C77   C93   S    
C70   H90   S    
C10   C110  S    
C67   C71   S    
N1    H141  S    
C111  H3    S    
Cr1   O1    S    
C18   H126  S    
C51   H55   S    
C3    O27   A    
C59   H71   S    
C31   H36   S    
C32   H35   S    
C29   C37   S    
C36   H32   S    
C11   C111  S    
C9    C117  S    
C66   C102  S    
C117  H9    S    
C84   C87   S    
C103  O7    A    
C8    H136  S    
C11   C119  S    
C16   C48   S    
C29   H27   S    
C7    C11   S    
C38   C89   S    
C49   C65   S    
C74   H78   S    
C111  H43   S    
C23   H7    S    
Cr7   O31   S    
N4    H148  S    
Cr8   O32   S    
Cr1   O41   S    
C114  H118  S    
C65   C73   S    
C84   C96   S    
Cr4   O44   S    
C86   C94   S    
C25   C37   S    
C12   C120  S    
C59   H67   S    
C83   H116  S    
Cr12  O20   S    
C55   C71   S    
C80   C96   S    
C118  H122  S    
C52   C68   S    
C16   C20   S    
C22   H138  S    
C15   C23   S    
Cr9   O17   S    
C16   C24   S    
C115  H87   S    
C85   C93   S    
C2    O26   A    
C103  O11   A    
C32   H26   S    
C71   H91   S    
C117  H121  S    
C120  H124  S    
C32   C35   S    
C36   C40   S    
N2    H144  S    
C97   O49   A    
Cr7   O19   S    
C116  H120  S    
C87   C95   S    
C46   O30   A    
C10   C118  S    
C81   C93   S    
C87   H111  S    
C83   C95   S    
Cr10  O18   S    
C20   H16   S    
Cr12  O40   S    
Cr9   O9    S    
C50   C66   S    
C100  O48   A    
C20   H128  S    
C28   H20   S    
C45   O29   A    
C26   H22   S    
C92   O4    A    
C24   H8    S    
C59   C75   S    
C106  O42   A    
C74   H74   S    
C110  C114  S    
C58   H66   S    
C30   C33   S    
C34   C38   S    
C47   O31   A    
C4    O24   A    
C118  H10   S    
C89   O37   A    
Cr6   O26   S    
C109  C113  S    
Cr1   O17   S    
Cr10  O10   S    
C3    C10   S    
Cr11  O15   S    
Cr4   O4    S    
C44   C52   S    
Cr12  O16   S    
C88   H105  S    
C31   C39   S    
C32   C40   S    
C79   C80   S    
C98   O50   A    
C27   C28   S    
C28   H24   S    
C111  C115  S    
C13   C113  S    
