data_mof_unit_53904.cif
_audit_creation_date              2012-10-26T17:10:25-0400
_audit_creation_method            fapswitch 2.2
_symmetry_space_group_name_H-M    P1
_symmetry_Int_Tables_number       1
_space_group_crystal_system       triclinic
_cell_length_a                    16.853881
_cell_length_b                    16.850748
_cell_length_c                    16.846949
_cell_angle_alpha                 67.455306
_cell_angle_beta                  67.459487
_cell_angle_gamma                 67.468121
_cell_volume                      3921.7292948

loop_
_atom_site_label
_atom_site_type_symbol
_atom_type_description
_atom_site_fract_x
_atom_site_fract_y
_atom_site_fract_z
_atom_type_partial_charge
C1    C     C_R   0.598269 0.018215 0.598130 -0.015274
C2    C     C_R   0.170875 0.434413 0.973228 0.556930
C3    C     C_R   0.565570 0.026782 0.829105 0.558346
C4    C     C_R   0.434810 0.972235 0.171242 0.548144
C5    C     C_R   0.434431 0.170891 0.973207 0.558114
C6    C     C_R   0.565200 0.828775 0.027706 0.548531
C7    C     C_R   0.973121 0.434464 0.170904 0.552905
C8    C     C_R   0.027738 0.565195 0.828760 0.548683
C9    C     C_R   0.171034 0.973534 0.434262 0.550053
C10   C     C_R   0.829122 0.026760 0.565587 0.557664
C11   C     C_R   0.548050 0.008123 0.548368 0.034312
C12   C     C_R   0.402255 0.981622 0.402102 -0.015341
C13   C     C_R   0.452412 0.992247 0.451593 0.034096
C14   C     C_R   0.007079 0.547769 0.548627 0.033416
C15   C     C_R   0.991048 0.452222 0.451856 0.033633
C16   C     C_R   0.547752 0.548790 0.006830 0.033564
C17   C     C_R   0.452127 0.451839 0.991203 0.033672
C18   C     C_R   0.589555 0.950501 0.493022 -0.112582
C19   C     C_R   0.410920 0.049941 0.506889 -0.112420
C20   C     C_R   0.056608 0.457894 0.554950 -0.114997
C21   C     C_R   0.941463 0.542083 0.445537 -0.114643
C22   C     C_R   0.457895 0.555135 0.056454 -0.113233
C23   C     C_R   0.017875 0.597873 0.598058 -0.015584
C24   C     C_R   0.541964 0.445496 0.941529 -0.113542
C25   C     C_R   0.542285 0.942704 0.445199 -0.113797
C26   C     C_R   0.458191 0.057699 0.554763 -0.113811
C27   C     C_R   0.410638 0.507230 0.048780 -0.112070
C28   C     C_R   0.589229 0.493460 0.949161 -0.112199
C29   C     C_R   0.048745 0.410676 0.507122 -0.113855
C30   C     C_R   0.949304 0.589316 0.493410 -0.113444
C31   C     C_R   0.558456 0.021979 0.686723 -0.138597
C32   C     C_R   0.442460 0.976743 0.313804 -0.135480
C33   C     C_R   0.020625 0.686877 0.558665 -0.136771
C34   C     C_R   0.980974 0.402020 0.402064 -0.015314
C35   C     C_R   0.977749 0.313238 0.441655 -0.137233
C36   C     C_R   0.686960 0.558926 0.020081 -0.135397
C37   C     C_R   0.313158 0.441594 0.977952 -0.136068
C38   C     C_R   0.313222 0.979003 0.441445 -0.136666
C39   C     C_R   0.686967 0.021643 0.558480 -0.136842
C40   C     C_R   0.441653 0.313378 0.977639 -0.138521
C41   C     C_R   0.557663 0.686433 0.022649 -0.135294
C42   C     C_R   0.977236 0.441846 0.313459 -0.139600
C43   C     C_R   0.022879 0.557625 0.686317 -0.136564
C44   C     C_R   0.603102 0.037906 0.732285 -0.009339
C45   C     C_R   0.597924 0.598252 0.017486 -0.015364
C46   C     C_R   0.398503 0.958919 0.268989 -0.010593
C47   C     C_R   0.038770 0.731575 0.602524 0.004652
C48   C     C_R   0.962065 0.267679 0.396833 -0.008473
C49   C     C_R   0.731620 0.602672 0.038418 0.005745
C50   C     C_R   0.267618 0.396784 0.962238 -0.008088
C51   C     C_R   0.268442 0.961090 0.397497 0.004352
C52   C     C_R   0.732396 0.037642 0.603207 -0.008202
C53   C     C_R   0.396904 0.267713 0.961988 -0.009614
C54   C     C_R   0.601537 0.731097 0.040785 -0.010244
C55   C     C_R   0.961714 0.397028 0.267767 -0.010907
C56   C     C_R   0.401882 0.401992 0.981277 -0.015207
C57   C     C_R   0.040934 0.601512 0.731036 -0.010711
C58   C     C_R   0.686214 0.057183 0.686220 -0.004953
C59   C     C_R   0.316961 0.936462 0.316973 0.003805
C60   C     C_R   0.063477 0.683012 0.682996 0.003867
C61   C     C_R   0.942646 0.313799 0.313746 -0.005067
C62   C     C_R   0.683023 0.683039 0.063304 0.003993
C63   C     C_R   0.313709 0.313694 0.942864 -0.004674
C64   C     C_3   0.716031 0.113866 0.716012 -0.229941
C65   C     C_3   0.777716 0.059672 0.777739 -0.349238
C66   C     C_3   0.287943 0.878886 0.287692 -0.250561
C67   C     C_R   0.026433 0.828970 0.565744 0.550358
C68   C     C_3   0.272712 0.793707 0.361791 -0.444825
C69   C     C_3   0.121172 0.711957 0.712188 -0.250208
C70   C     C_3   0.206302 0.727152 0.638015 -0.444624
C71   C     C_3   0.886388 0.283719 0.283685 -0.227714
C72   C     C_3   0.941010 0.222070 0.221947 -0.350457
C73   C     C_3   0.711909 0.711979 0.121251 -0.250774
C74   C     C_3   0.726293 0.637812 0.206660 -0.444232
C75   C     C_3   0.283598 0.283623 0.886617 -0.228453
C76   C     C_3   0.221872 0.221970 0.941313 -0.351755
C77   C     C_R   0.973165 0.170894 0.434429 0.557331
C78   C     C_R   0.828985 0.565795 0.026296 0.555218
Cu1   Cu    Cu3+1 0.995180 0.995180 0.424630 0.870066
Cu2   Cu    Cu3+1 0.004820 0.004820 0.575370 0.871837
Cu3   Cu    Cu3+1 0.995180 0.424630 0.995180 0.859682
Cu4   Cu    Cu3+1 0.004820 0.575370 0.004820 0.887237
Cu5   Cu    Cu3+1 0.424630 0.995180 0.995180 0.873884
Cu6   Cu    Cu3+1 0.575370 0.004820 0.004820 0.875750
H1    H     H_    0.424836 0.103709 0.595757 0.099287
H2    H     H_    0.424535 0.596032 0.102557 0.101692
H3    H     H_    0.895410 0.575468 0.404590 0.099362
H4    H     H_    0.102770 0.424491 0.595777 0.099690
H5    H     H_    0.492931 0.010855 0.720575 0.132141
H6    H     H_    0.507532 0.988867 0.279506 0.132291
H7    H     H_    0.009593 0.721123 0.493163 0.128343
H8    H     H_    0.986539 0.279801 0.508115 0.128488
H9    H     H_    0.721232 0.493511 0.008898 0.128287
H10   H     H_    0.279758 0.508063 0.986665 0.129958
H11   H     H_    0.279013 0.989949 0.506981 0.128482
H12   H     H_    0.575653 0.896604 0.404301 0.100134
H13   H     H_    0.720422 0.012802 0.492045 0.129010
H14   H     H_    0.507220 0.279588 0.988654 0.132182
H15   H     H_    0.492599 0.720756 0.010529 0.132595
H16   H     H_    0.988165 0.507469 0.279667 0.132079
H17   H     H_    0.010677 0.492576 0.720660 0.130921
H18   H     H_    0.791106 0.986485 0.791102 0.180417
H19   H     H_    0.842418 0.076752 0.747240 0.134711
H20   H     H_    0.747205 0.076697 0.842489 0.134429
H21   H     H_    0.749931 0.159593 0.656149 0.130710
H22   H     H_    0.656222 0.159603 0.749913 0.129275
H23   H     H_    0.909166 0.657995 0.488122 0.101027
H24   H     H_    0.332411 0.756598 0.387462 0.143220
H25   H     H_    0.213396 0.808758 0.418058 0.165143
H26   H     H_    0.261228 0.749832 0.334517 0.132738
H27   H     H_    0.227667 0.917779 0.263540 0.174919
H28   H     H_    0.340944 0.854346 0.231753 0.157807
H29   H     H_    0.243295 0.667463 0.612303 0.142896
H30   H     H_    0.191229 0.786523 0.581788 0.164721
H31   H     H_    0.250277 0.738546 0.665230 0.135412
H32   H     H_    0.082376 0.772249 0.736345 0.176375
H33   H     H_    0.145729 0.658916 0.768108 0.158184
H34   H     H_    0.088917 0.342005 0.512371 0.101374
H35   H     H_    0.014122 0.208966 0.208708 0.175933
H36   H     H_    0.924213 0.157216 0.252353 0.135394
H37   H     H_    0.924115 0.252464 0.157131 0.134369
H38   H     H_    0.840674 0.249683 0.343421 0.131320
H39   H     H_    0.840638 0.343437 0.249688 0.130564
H40   H     H_    0.665306 0.614377 0.244463 0.143459
H41   H     H_    0.783897 0.580085 0.191912 0.164919
H42   H     H_    0.739951 0.664237 0.249774 0.128100
H43   H     H_    0.772507 0.735655 0.082740 0.175868
H44   H     H_    0.659161 0.768161 0.145543 0.157447
H45   H     H_    0.657884 0.488141 0.908946 0.103521
H46   H     H_    0.252248 0.157100 0.924565 0.134365
H47   H     H_    0.208629 0.208903 0.014453 0.176767
H48   H     H_    0.157097 0.252333 0.924393 0.132919
H49   H     H_    0.249629 0.343337 0.840839 0.130225
H50   H     H_    0.343268 0.249592 0.840865 0.128941
H51   H     H_    0.341981 0.512519 0.089004 0.104581
H52   H     H_    0.342255 0.090105 0.512226 0.100860
H53   H     H_    0.658232 0.910356 0.487695 0.101478
H54   H     H_    0.575307 0.404462 0.895555 0.100829
O1    O     O_R   0.124540 0.978640 0.385460 -0.508476
O2    O     O_R   0.124540 0.385460 0.978640 -0.508025
O3    O     O_R   0.021360 0.875460 0.614540 -0.507605
O4    O     O_R   0.978640 0.124540 0.385460 -0.506103
O5    O     O_R   0.013780 0.867370 0.487190 -0.519053
O6    O     O_R   0.986220 0.132630 0.512810 -0.519015
O7    O     O_R   0.867370 0.487190 0.013780 -0.518869
O8    O     O_R   0.132630 0.512810 0.986220 -0.517753
O9    O     O_R   0.487190 0.013780 0.867370 -0.517946
O10   O     O_R   0.512810 0.986220 0.132630 -0.515141
O11   O     O_R   0.512810 0.132630 0.986220 -0.517810
O12   O     O_R   0.875460 0.021360 0.614540 -0.505758
O13   O     O_R   0.487190 0.867370 0.013780 -0.515119
O14   O     O_R   0.986220 0.512810 0.132630 -0.517588
O15   O     O_R   0.013780 0.487190 0.867370 -0.516513
O16   O     O_R   0.132630 0.986220 0.512810 -0.518833
O17   O     O_R   0.867370 0.013780 0.487190 -0.518837
O18   O     O_R   0.978640 0.385460 0.124540 -0.507403
O19   O     O_R   0.021360 0.614540 0.875460 -0.511007
O20   O     O_R   0.385460 0.124540 0.978640 -0.505566
O21   O     O_R   0.614540 0.875460 0.021360 -0.513203
O22   O     O_R   0.614540 0.021360 0.875460 -0.505173
O23   O     O_R   0.385460 0.978640 0.124540 -0.514111
O24   O     O_R   0.875460 0.614540 0.021360 -0.505737

loop_
_geom_bond_atom_site_label_1
_geom_bond_atom_site_label_2
_ccdc_geom_bond_type
C16   C28   A    
Cu3   O2    S    
C74   H40   S    
C21   H3    S    
C11   C18   A    
C3    O9    A    
C46   C59   A    
C40   C56   A    
C73   C74   S    
C71   H38   S    
Cu1   O1    S    
C34   C42   A    
C7    C55   S    
C10   C52   S    
C6    O21   A    
Cu6   O22   S    
C75   H50   S    
Cu3   O15   S    
C64   H21   S    
C69   H32   S    
C4    C46   S    
C70   H30   S    
Cu2   O12   S    
Cu3   O18   S    
C71   H39   S    
C14   C30   A    
C28   H45   S    
C33   H7    S    
C59   C66   S    
C40   H14   S    
C72   H37   S    
C76   H47   S    
C39   H13   S    
C74   H41   S    
C66   C68   S    
C35   C48   A    
C4    O10   A    
C55   C61   A    
C1    C31   A    
C5    O11   A    
C49   C78   S    
C34   C35   A    
C19   C26   A    
C77   O4    A    
C53   C63   A    
C2    C50   S    
C78   O7    A    
C47   C60   A    
C37   C56   A    
C76   H46   S    
C36   H9    S    
Cu1   O5    S    
C7    O18   A    
C44   C58   A    
C31   H5    S    
C30   H23   S    
Cu2   O6    S    
C38   H11   S    
C41   H15   S    
C62   C73   S    
C66   H27   S    
C15   C34   S    
Cu6   O11   S    
C61   C71   S    
C39   C52   A    
Cu5   O23   S    
C67   O5    A    
C12   C32   A    
C50   C63   A    
C13   C25   A    
C18   C25   A    
C65   H18   S    
C6    C54   S    
C8    O19   A    
C47   C67   S    
Cu4   O8    S    
Cu6   O21   S    
C15   C29   A    
Cu5   O13   S    
C20   C29   A    
Cu6   O10   S    
C70   H29   S    
C58   C64   S    
C32   H6    S    
C3    C44   S    
C17   C24   A    
C31   C44   A    
C13   C19   A    
C17   C27   A    
C14   C20   A    
C23   C33   A    
C40   C53   A    
Cu4   O19   S    
C1    C39   A    
C57   C60   A    
C38   C51   A    
Cu4   O24   S    
C11   C26   A    
C24   H54   S    
C19   H52   S    
C73   H43   S    
Cu3   Cu4   S    
Cu1   Cu2   S    
C14   C23   S    
C16   C45   S    
C18   H53   S    
C75   C76   S    
C43   H17   S    
C42   H16   S    
C42   C55   A    
Cu5   Cu6   S    
C72   H36   S    
C48   C77   S    
C36   C45   A    
C68   H26   S    
Cu2   O16   S    
C8    O15   A    
C17   C56   S    
C52   C58   A    
Cu5   O9    S    
C6    O13   A    
C9    O16   A    
C78   O24   A    
Cu3   O7    S    
C22   C27   A    
C3    O22   A    
C33   C47   A    
C51   C59   A    
C65   H19   S    
C5    O20   A    
C67   O3    A    
C29   H34   S    
C5    C53   S    
C16   C22   A    
C49   C62   A    
C23   C43   A    
C32   C46   A    
C24   C28   A    
C10   O17   A    
C75   H49   S    
C64   H22   S    
C70   H31   S    
C2    O8    A    
C73   H44   S    
C54   C62   A    
C21   C30   A    
C2    O2    A    
C9    C51   S    
C35   H8    S    
C77   O6    A    
C27   H51   S    
C71   C72   S    
C76   H48   S    
C64   C65   S    
C37   C50   A    
C9    O1    A    
C48   C61   A    
C74   H42   S    
Cu5   O20   S    
C63   C75   S    
C60   C69   S    
C26   H1    S    
C20   H4    S    
C72   H35   S    
C69   H33   S    
C37   H10   S    
C68   H25   S    
C22   H2    S    
C12   C38   A    
C69   C70   S    
Cu4   O14   S    
C41   C54   A    
C43   C57   A    
Cu1   O17   S    
C7    O14   A    
Cu1   O4    S    
C15   C21   A    
C12   C13   S    
C25   H12   S    
Cu2   O3    S    
C41   C45   A    
C4    O23   A    
C1    C11   S    
C68   H24   S    
C65   H20   S    
C66   H28   S    
C8    C57   S    
C10   O12   A    
C36   C49   A    
