data_mof_unit_68085.cif
_audit_creation_date              2012-12-11T15:26:41-0500
_audit_creation_method            fapswitch 2.2
_symmetry_space_group_name_H-M    P1
_symmetry_Int_Tables_number       1
_space_group_crystal_system       triclinic
_cell_length_a                    7.386027
_cell_length_b                    11.748655
_cell_length_c                    28.872891
_cell_angle_alpha                 90.357414
_cell_angle_beta                  89.997743
_cell_angle_gamma                 89.97493
_cell_volume                      2505.42162261

loop_
_atom_site_label
_atom_site_type_symbol
_atom_type_description
_atom_site_fract_x
_atom_site_fract_y
_atom_site_fract_z
_atom_type_partial_charge
O1    O     O_R   0.647170 0.849180 0.201220 -0.537474
O2    O     O_R   0.352830 0.150820 0.798780 -0.540290
O3    O     O_R   0.352830 0.150820 0.701220 -0.540219
O4    O     O_R   0.647170 0.849180 0.298780 -0.536103
O5    O     O_R   0.147170 0.650820 0.298780 -0.539985
O6    O     O_R   0.852830 0.349180 0.701220 -0.537400
O7    O     O_R   0.852830 0.349180 0.798780 -0.536877
O8    O     O_R   0.147170 0.650820 0.201220 -0.538015
O9    O     O_R   0.317430 0.862210 0.298450 -0.530113
O10   O     O_R   0.682570 0.137790 0.701550 -0.527653
O11   O     O_R   0.682570 0.137790 0.798450 -0.529029
O12   O     O_R   0.317430 0.862210 0.201550 -0.532427
O13   O     O_R   0.817430 0.637790 0.201550 -0.531752
O14   O     O_R   0.182570 0.362210 0.798450 -0.529305
O15   O     O_R   0.182570 0.362210 0.701550 -0.530532
O16   O     O_R   0.817430 0.637790 0.298450 -0.529214
C1    C     C_R   0.485098 0.885717 0.314347 0.704036
C2    C     C_R   0.514599 0.109608 0.687622 0.709761
C3    C     C_R   0.514896 0.111871 0.813135 0.709482
C4    C     C_R   0.484998 0.886846 0.186193 0.706575
C5    C     C_R   0.985485 0.610203 0.187199 0.704000
C6    C     C_R   0.014681 0.387385 0.813773 0.703165
C7    C     C_R   0.014884 0.385898 0.685802 0.700533
C8    C     C_R   0.985255 0.611056 0.312763 0.712791
H1    H     H_    0.033784 0.610013 0.690120 0.082880
H2    H     H_    0.884614 0.395836 0.306293 0.102257
H3    H     H_    0.873665 0.393827 0.190551 0.095682
H4    H     H_    0.042230 0.611769 0.809788 0.083629
H5    H     H_    0.607550 0.895899 0.806911 0.099307
H6    H     H_    0.381066 0.102936 0.188376 0.093277
H7    H     H_    0.461534 0.109541 0.312035 0.083463
H8    H     H_    0.611253 0.892829 0.694344 0.100398
H9    H     H_    0.959013 0.336846 0.597507 0.158815
H10   H     H_    0.086720 0.643458 0.399539 0.149281
H11   H     H_    0.099046 0.641584 0.101172 0.149590
H12   H     H_    0.946186 0.341528 0.901195 0.157550
H13   H     H_    0.424838 0.148361 0.900468 0.155402
H14   H     H_    0.577781 0.844185 0.098813 0.160680
H15   H     H_    0.546234 0.834630 0.401906 0.161193
H16   H     H_    0.411984 0.138707 0.601252 0.141947
O17   O     O_3   0.480630 0.680630 0.250000 -0.381099
O18   O     O_3   0.519370 0.319370 0.750000 -0.382467
O19   O     O_3   0.980630 0.819370 0.250000 -0.382001
O20   O     O_3   0.019370 0.180630 0.750000 -0.380535
V1    V     V_3+5 0.205800 0.762860 0.250000 1.384907
V2    V     V_3+5 0.794200 0.237140 0.750000 1.398704
V3    V     V_3+5 0.705800 0.737140 0.250000 1.390036
V4    V     V_3+5 0.294200 0.262860 0.750000 1.389510
C9    C     C_R   0.988866 0.526516 0.349611 -0.129298
C10   C     C_R   0.009730 0.465357 0.646514 -0.113654
C11   C     C_R   0.009002 0.468183 0.852866 -0.114285
C12   C     C_R   0.990341 0.525518 0.149663 -0.119399
C13   C     C_R   0.487908 0.967307 0.147389 -0.122559
C14   C     C_R   0.511727 0.028370 0.850487 -0.128753
C15   C     C_R   0.510221 0.023256 0.651011 -0.126864
C16   C     C_R   0.490498 0.964131 0.354266 -0.116623
C17   C     C_R   0.929954 0.334149 0.376681 0.603528
C18   C     C_R   0.013325 0.659521 0.617954 0.631975
C19   C     C_R   0.017984 0.662730 0.882131 0.636388
C20   C     C_R   0.922050 0.335732 0.119966 0.616384
C21   C     C_R   0.422480 0.155878 0.117298 0.621162
C22   C     C_R   0.568214 0.835760 0.877728 0.607507
C23   C     C_R   0.566343 0.829594 0.623735 0.606243
C24   C     C_R   0.485090 0.157457 0.384573 0.640708
C25   C     C_R   0.928075 0.416481 0.341114 -0.289926
C26   C     C_R   0.025752 0.581034 0.654526 -0.260159
C27   C     C_R   0.030494 0.583587 0.845268 -0.270712
C28   C     C_R   0.923655 0.416071 0.156561 -0.290742
C29   C     C_R   0.426495 0.077975 0.154153 -0.276371
C30   C     C_R   0.568016 0.917448 0.841950 -0.286183
C31   C     C_R   0.568974 0.912888 0.659477 -0.285289
C32   C     C_R   0.472147 0.079823 0.347336 -0.260583
C33   C     C_R   0.029546 0.560170 0.394439 -0.144227
C34   C     C_R   0.990496 0.425283 0.601297 -0.143083
C35   C     C_R   0.984042 0.429146 0.897698 -0.133424
C36   C     C_R   0.037796 0.559198 0.105318 -0.122655
C37   C     C_R   0.525483 0.929038 0.102580 -0.139814
C38   C     C_R   0.476394 0.063526 0.895524 -0.145811
C39   C     C_R   0.469144 0.055517 0.606314 -0.137241
C40   C     C_R   0.512752 0.922925 0.399012 -0.140469
C41   C     C_R   0.995023 0.488308 0.432153 0.031807
C42   C     C_R   0.001867 0.498238 0.562493 0.030399
C43   C     C_R   0.000921 0.501862 0.936662 0.024522
C44   C     C_R   0.001571 0.489264 0.066668 0.022445
C45   C     C_R   0.496964 0.999184 0.063615 0.022661
C46   C     C_R   0.507394 0.990994 0.933380 0.034308
C47   C     C_R   0.505359 0.983144 0.568572 0.039791
C48   C     C_R   0.501389 0.994737 0.438475 0.022566
C49   C     C_R   0.973936 0.370446 0.422914 -0.019921
C50   C     C_R   0.998991 0.618640 0.571003 -0.012994
C51   C     C_R   0.001509 0.622124 0.928883 -0.008053
C52   C     C_R   0.971299 0.371850 0.074430 0.012521
C53   C     C_R   0.470253 0.117685 0.071775 0.008209
C54   C     C_R   0.527331 0.872697 0.924071 -0.013902
C55   C     C_R   0.525437 0.865401 0.577390 -0.018803
C56   C     C_R   0.503069 0.115409 0.431047 -0.016752
C57   C     C_R   0.989443 0.531354 0.478411 -0.078530
C58   C     C_R   0.007286 0.453917 0.515863 -0.057675
C59   C     C_R   0.007987 0.456994 0.982753 -0.073035
C60   C     C_R   0.996547 0.533892 0.020905 -0.081213
C61   C     C_R   0.498586 0.955084 0.017156 -0.062702
C62   C     C_R   0.509744 0.033599 0.979838 -0.074973
C63   C     C_R   0.513930 0.026153 0.522673 -0.081876
C64   C     C_R   0.496676 0.949252 0.484697 -0.063139
C65   C     C_R   0.036843 0.335160 0.505494 0.441485
C66   C     C_R   0.958707 0.649723 0.487115 0.404181
C67   C     C_R   0.968353 0.652750 0.013269 0.398871
C68   C     C_R   0.031590 0.337480 0.991646 0.413035
C69   C     C_R   0.532037 0.152678 0.989375 0.411588
C70   C     C_R   0.476434 0.835880 0.007156 0.432243
C71   C     C_R   0.468160 0.830165 0.494235 0.438904
C72   C     C_R   0.546672 0.144339 0.514981 0.399546
C73   C     C_R   0.009825 0.293417 0.459355 0.225688
C74   C     C_R   0.977715 0.693845 0.532689 0.251432
C75   C     C_R   0.982075 0.697144 0.967743 0.250707
C76   C     C_R   0.999136 0.294813 0.037090 0.256356
C77   C     C_R   0.500501 0.194753 0.034945 0.252006
C78   C     C_R   0.495901 0.795240 0.960703 0.222464
C79   C     C_R   0.492503 0.788360 0.540316 0.221835
C80   C     C_R   0.526671 0.189668 0.469929 0.259663
Br1   Br    Br    0.063246 0.135644 0.443893 -0.594820
Br2   Br    Br    0.972816 0.858161 0.540713 -0.577416
Br3   Br    Br    0.968024 0.861194 0.960345 -0.572611
Br4   Br    Br    0.027007 0.133902 0.050208 -0.584071
Br5   Br    Br    0.534007 0.355242 0.048726 -0.603273
Br6   Br    Br    0.437216 0.638027 0.945624 -0.604160
Br7   Br    Br    0.439226 0.630405 0.554564 -0.586259
Br8   Br    Br    0.533854 0.354066 0.463510 -0.568652
O21   O     O_3   0.872972 0.222119 0.369166 -0.515955
C81   C     C_3   0.881734 0.184518 0.322587 -0.179000
H17   H     H_    0.011595 0.206539 0.305568 0.081395
H18   H     H_    0.765485 0.218012 0.302475 0.119254
H19   H     H_    0.871133 0.090335 0.322112 0.172069
O22   O     O_3   0.987070 0.774278 0.628084 -0.517738
C82   C     C_3   0.104267 0.815846 0.662793 -0.197088
H20   H     H_    0.239889 0.776572 0.660582 0.122502
H21   H     H_    0.044092 0.803358 0.697626 0.099649
H22   H     H_    0.121618 0.908763 0.657830 0.179317
O23   O     O_3   0.996131 0.777975 0.872681 -0.517216
C83   C     C_3   0.109649 0.817661 0.837053 -0.198384
H23   H     H_    0.044959 0.804890 0.802712 0.099831
H24   H     H_    0.244472 0.777270 0.838198 0.123279
H25   H     H_    0.129599 0.910540 0.841955 0.178028
O24   O     O_3   0.842103 0.229644 0.126009 -0.535911
C84   C     C_3   0.903199 0.175317 0.166667 -0.202213
H26   H     H_    0.822963 0.203460 0.197161 0.084057
H27   H     H_    0.050222 0.188194 0.172885 0.150392
H28   H     H_    0.881163 0.082387 0.162576 0.181971
O25   O     O_3   0.342030 0.262174 0.123190 -0.536282
C85   C     C_3   0.402859 0.318666 0.163671 -0.200889
H29   H     H_    0.549375 0.305130 0.170337 0.154383
H30   H     H_    0.321276 0.292985 0.194143 0.086163
H31   H     H_    0.382500 0.411470 0.159048 0.181952
O26   O     O_3   0.625228 0.723567 0.870365 -0.516885
C86   C     C_3   0.618849 0.685545 0.823811 -0.177455
H32   H     H_    0.734061 0.720453 0.803747 0.120247
H33   H     H_    0.488674 0.705446 0.806604 0.081650
H34   H     H_    0.632860 0.591537 0.823467 0.171084
O27   O     O_3   0.620360 0.717147 0.631194 -0.516855
C87   C     C_3   0.610958 0.680900 0.677751 -0.179576
H35   H     H_    0.480856 0.703489 0.694618 0.081672
H36   H     H_    0.726912 0.714771 0.698022 0.119706
H37   H     H_    0.621491 0.586720 0.678196 0.172045
O28   O     O_3   0.505897 0.272932 0.375557 -0.516468
C88   C     C_3   0.387574 0.313420 0.341088 -0.197991
H38   H     H_    0.254321 0.270893 0.342415 0.126472
H39   H     H_    0.449746 0.303784 0.306278 0.102317
H40   H     H_    0.364672 0.405635 0.347159 0.176872
O29   O     O_3   0.137649 0.272123 0.537124 -0.581409
C89   C     C_3   0.065490 0.164043 0.548091 -0.159586
H41   H     H_    0.164877 0.097673 0.538386 0.195462
H42   H     H_    0.936821 0.143220 0.530867 0.232379
H43   H     H_    0.046157 0.157252 0.586054 0.143628
O30   O     O_3   0.857806 0.709145 0.454059 -0.579812
C90   C     C_3   0.934769 0.811892 0.438203 -0.177326
H44   H     H_    0.077333 0.824155 0.447954 0.226949
H45   H     H_    0.853258 0.884950 0.450737 0.207040
H46   H     H_    0.926331 0.813730 0.399847 0.136806
O31   O     O_3   0.874173 0.712917 0.047686 -0.582174
C91   C     C_3   0.955309 0.815367 0.062951 -0.176938
H47   H     H_    0.868525 0.888106 0.052962 0.212959
H48   H     H_    0.093388 0.829183 0.049963 0.227960
H49   H     H_    0.960044 0.816194 0.101354 0.132284
O32   O     O_3   0.132984 0.274832 0.959559 -0.584486
C92   C     C_3   0.061270 0.167724 0.946724 -0.173540
H50   H     H_    0.924324 0.150727 0.959730 0.236764
H51   H     H_    0.153175 0.099799 0.958910 0.202929
H52   H     H_    0.058105 0.160777 0.908403 0.138503
O33   O     O_3   0.632549 0.215482 0.957409 -0.580578
C93   C     C_3   0.559295 0.321945 0.944710 -0.168953
H53   H     H_    0.651949 0.390578 0.956195 0.196422
H54   H     H_    0.423847 0.339745 0.958588 0.232723
H55   H     H_    0.552564 0.326961 0.906397 0.142777
O34   O     O_3   0.388548 0.769984 0.040357 -0.585675
C94   C     C_3   0.470539 0.663957 0.049975 -0.144291
H56   H     H_    0.590822 0.643764 0.028925 0.220839
H57   H     H_    0.369407 0.595754 0.044159 0.199203
H58   H     H_    0.508815 0.660181 0.087060 0.147931
O35   O     O_3   0.371077 0.766462 0.461726 -0.584948
C95   C     C_3   0.446296 0.659032 0.450409 -0.151856
H59   H     H_    0.346713 0.591971 0.458840 0.198342
H60   H     H_    0.573608 0.638552 0.468316 0.230266
H61   H     H_    0.469833 0.653088 0.412547 0.140982
O36   O     O_3   0.649722 0.201949 0.548414 -0.577719
C96   C     C_3   0.575113 0.304641 0.565574 -0.180829
H62   H     H_    0.431418 0.317007 0.557119 0.227395
H63   H     H_    0.655301 0.377813 0.553025 0.206839
H64   H     H_    0.587858 0.305680 0.603866 0.135799

loop_
_geom_bond_atom_site_label_1
_geom_bond_atom_site_label_2
_ccdc_geom_bond_type
C82   H22   S    
C48   C56   A    
O9    V1    S    
C88   H38   S    
C86   H33   S    
O29   C89   S    
C13   C37   A    
C83   H25   S    
C23   O27   S    
C24   O28   S    
C24   C32   A    
C13   C29   A    
C36   C44   A    
C39   C47   A    
C57   C58   A    
C69   C77   A    
C82   H20   S    
C90   H45   S    
C96   H62   S    
C18   O22   S    
C59   C68   A    
O11   C3    A    
C61   C62   A    
C58   C65   A    
C9    C25   A    
C66   C74   A    
C65   C73   A    
O28   C88   S    
C83   H24   S    
C65   O29   S    
C10   C34   A    
C21   C53   A    
C92   H51   S    
C89   H41   S    
C23   C55   A    
O3    V4    S    
O32   C92   S    
C22   C30   A    
O3    C2    A    
C71   C79   A    
C17   O21   S    
O30   C90   S    
H3    C28   S    
C46   C54   A    
C93   H55   S    
C19   C27   A    
O8    V1    S    
C45   C53   A    
C18   C26   A    
C90   H44   S    
C69   O33   S    
C95   H59   S    
C16   C32   A    
C85   H31   S    
C47   C55   A    
O10   V2    S    
C77   Br5   S    
C90   H46   S    
C76   Br4   S    
C12   C28   A    
C91   H49   S    
C94   H58   S    
C41   C49   A    
C38   C46   A    
O15   C7    A    
O34   C94   S    
C37   C45   A    
O35   C95   S    
C88   H39   S    
C43   C59   A    
C40   C48   A    
C86   H34   S    
C42   C58   A    
C70   C78   A    
C53   C77   A    
O15   V4    S    
C34   C42   A    
O16   V3    S    
C33   C41   A    
C48   C64   A    
O20   V2    S    
C84   H26   S    
H8    C31   S    
C96   H63   S    
O17   V3    S    
C49   C73   A    
H11   C36   S    
C86   H32   S    
C75   Br3   S    
C84   H27   S    
C44   C60   A    
C87   H37   S    
C5    C12   S    
H4    C27   S    
C83   H23   S    
C24   C56   A    
C60   C67   A    
O13   V3    S    
C68   O32   S    
O1    V3    S    
C92   H52   S    
O14   V4    S    
C94   H56   S    
C55   C79   A    
C61   C70   A    
O5    V1    S    
C22   O26   S    
C63   C72   A    
C87   H36   S    
C81   H18   S    
O7    V2    S    
C93   H53   S    
C70   O34   S    
H12   C35   S    
C15   C39   A    
O27   C87   S    
C14   C30   A    
C19   O23   S    
O12   C4    A    
C80   Br8   S    
O8    C5    A    
C66   O30   S    
H16   C39   S    
O13   C5    A    
O18   V4    S    
C44   C52   A    
C52   C76   A    
C1    C16   S    
C67   C75   A    
O26   C86   S    
C17   C49   A    
C2    C15   S    
C18   C50   A    
C47   C63   A    
C57   C66   A    
C3    C14   S    
O9    C1    A    
H7    C32   S    
C23   C31   A    
C88   H40   S    
C22   C54   A    
C12   C36   A    
C9    C33   A    
C81   H19   S    
O4    C1    A    
C46   C62   A    
C11   C35   A    
H6    C29   S    
C45   C61   A    
C84   H28   S    
C72   C80   A    
H5    C30   S    
C19   C51   A    
C96   H64   S    
C21   C29   A    
C8    C9    S    
C82   H21   S    
O1    C4    A    
C93   H54   S    
O6    V2    S    
C67   O31   S    
O2    C3    A    
H2    C25   S    
C56   C80   A    
H1    C26   S    
C62   C69   A    
C17   C25   A    
C4    C13   S    
C7    C10   S    
C42   C50   A    
C64   C71   A    
O23   C83   S    
C10   C26   A    
O22   C82   S    
O12   V1    S    
H14   C37   S    
O7    C6    A    
C43   C51   A    
H13   C38   S    
C16   C40   A    
C59   C60   A    
O24   C84   S    
O2    V4    S    
H15   C40   S    
O14   C6    A    
C81   H17   S    
O21   C81   S    
O19   V1    S    
O25   C85   S    
C20   O24   S    
C91   H48   S    
C54   C78   A    
C68   C76   A    
C92   H50   S    
C11   C27   A    
O5    C8    A    
C89   H42   S    
O10   C2    A    
C95   H61   S    
O6    C7    A    
C71   O35   S    
C41   C57   A    
C51   C75   A    
C85   H30   S    
C35   C43   A    
C50   C74   A    
O33   C93   S    
C87   H35   S    
H10   C33   S    
O31   C91   S    
C74   Br2   S    
H9    C34   S    
C73   Br1   S    
O36   C96   S    
C20   C28   A    
O16   C8    A    
C63   C64   A    
C72   O36   S    
C85   H29   S    
O11   V2    S    
C78   Br6   S    
C14   C38   A    
C20   C52   A    
C21   O25   S    
C89   H43   S    
C95   H60   S    
C15   C31   A    
C91   H47   S    
C6    C11   S    
C94   H57   S    
O4    V3    S    
C79   Br7   S    
