data_mof_unit_48099.cif
_audit_creation_date              2013-03-05T15:46:31-0500
_audit_creation_method            fapswitch 2.2
_symmetry_space_group_name_H-M    P1
_symmetry_Int_Tables_number       1
_space_group_crystal_system       triclinic
_cell_length_a                    6.935028
_cell_length_b                    16.709145
_cell_length_c                    17.122706
_cell_angle_alpha                 100.359459
_cell_angle_beta                  92.033213
_cell_angle_gamma                 89.6019
_cell_volume                      1950.57870519

loop_
_atom_site_label
_atom_site_type_symbol
_atom_site_description
_atom_site_fract_x
_atom_site_fract_y
_atom_site_fract_z
_atom_type_partial_charge
O1    O     O_R   0.506180 0.438940 0.579430 -0.593625
O2    O     O_R   0.170520 0.406230 0.413590 -0.598703
O3    O     O_R   0.005180 0.561060 0.420570 -0.594991
C1    C     C_R   0.337715 0.383668 0.384610 0.925842
O4    O     O_R   0.176140 0.429310 0.578370 -0.607199
O5    O     O_R   0.010830 0.584300 0.586530 -0.573739
C2    C     C_R   0.348848 0.413900 0.605215 0.923248
O6    O     O_R   0.500520 0.415700 0.413470 -0.593503
O7    O     O_3   0.340830 0.550820 0.502480 -0.248429
V1    V     V_3+5 0.064040 0.490570 0.499540 1.191033
O8    O     O_R   0.681400 0.593770 0.586410 -0.593957
C3    C     C_R   0.852245 0.618525 0.613208 1.015461
O9    O     O_R   0.675790 0.570690 0.421630 -0.572411
C4    C     C_R   0.840666 0.583605 0.392569 1.037592
V2    V     V_3+5 0.564650 0.509430 0.500460 1.211201
O10   O     O_3   0.837730 0.449180 0.497520 -0.285612
C5    C     C_R   0.926585 0.854775 0.161558 -0.280519
C6    C     C_R   0.836820 0.633847 0.328907 -0.107671
C7    C     C_R   0.661694 0.679159 0.218469 -0.129152
C8    C     C_R   0.678120 0.628207 0.274874 -0.165702
C9    C     C_R   0.980774 0.691626 0.324958 -0.128426
C10   C     C_R   0.961058 0.745812 0.270697 0.123269
C11   C     C_R   0.800281 0.739917 0.216327 0.034452
C12   C     C_R   0.784463 0.793825 0.160583 0.312466
C13   C     C_R   0.080783 0.860422 0.217665 -0.069715
C14   C     C_R   0.099278 0.806399 0.270794 -0.155304
H1    H     H_    0.188653 0.907230 0.220192 0.193674
H2    H     H_    0.538105 0.671018 0.177541 0.158628
H3    H     H_    0.221992 0.812383 0.312425 0.161056
H4    H     H_    0.565541 0.583975 0.276302 0.116608
H5    H     H_    0.104197 0.696675 0.366189 0.167436
H6    H     H_    0.170668 0.630772 0.956985 0.129629
C15   C     C_R   0.729462 0.908212 0.739340 -0.282476
C16   C     C_R   0.640033 0.923796 0.670107 0.820453
C17   C     C_R   0.641353 0.865341 0.602015 -0.345211
C18   C     C_R   0.730557 0.789887 0.602251 0.286584
C19   C     C_R   0.802250 0.768222 0.675136 -0.038805
C20   C     C_R   0.808278 0.830591 0.744213 0.005379
C21   C     C_R   0.869192 0.688040 0.681400 -0.264114
C22   C     C_R   0.949623 0.673025 0.755118 0.118228
C23   C     C_R   0.966796 0.737284 0.821854 0.091809
C24   C     C_R   0.897019 0.815894 0.816190 -0.210008
C25   C     C_R   0.010727 0.593926 0.764507 -0.188009
C26   C     C_R   0.091013 0.579392 0.836354 -0.137661
C27   C     C_R   0.109704 0.642453 0.901026 -0.062802
C28   C     C_R   0.047155 0.720364 0.894415 -0.095466
H7    H     H_    0.735779 0.958596 0.788544 0.190036
H8    H     H_    0.584662 0.881191 0.547021 0.208583
H9    H     H_    0.995803 0.541893 0.717083 0.116025
H10   H     H_    0.137481 0.518628 0.841997 0.119557
H11   H     H_    0.060105 0.766580 0.947331 0.124511
H12   H     H_    0.384233 0.488991 0.136194 0.114925
C29   C     C_R   0.308454 0.215138 0.402770 -0.160078
C30   C     C_R   0.321486 0.136040 0.417193 -0.106037
C31   C     C_R   0.392704 0.074603 0.359898 -0.175978
C32   C     C_R   0.445232 0.090720 0.285986 0.299787
C33   C     C_R   0.407188 0.168682 0.265870 -0.024793
C34   C     C_R   0.352824 0.233325 0.327992 0.105544
C35   C     C_R   0.423063 0.183902 0.186792 -0.272177
C36   C     C_R   0.409184 0.265318 0.173561 0.121389
C37   C     C_R   0.376155 0.330646 0.237985 0.127357
C38   C     C_R   0.347521 0.314808 0.315383 -0.280073
C39   C     C_R   0.430097 0.283450 0.096692 -0.166579
C40   C     C_R   0.421368 0.363426 0.083755 -0.103760
C41   C     C_R   0.391043 0.426998 0.146624 -0.111113
C42   C     C_R   0.368053 0.411096 0.222898 -0.189091
H13   H     H_    0.261275 0.261707 0.450663 0.115423
H14   H     H_    0.285624 0.123159 0.474713 0.176892
H15   H     H_    0.418512 0.015136 0.375016 0.172710
H16   H     H_    0.455366 0.236247 0.045913 0.084001
H17   H     H_    0.438582 0.376121 0.024576 0.111503
H18   H     H_    0.341522 0.462387 0.269671 0.098011
C43   C     C_R   0.389382 0.135872 0.831324 -0.390135
C44   C     C_R   0.375854 0.362528 0.667267 -0.171290
C45   C     C_R   0.581190 0.323706 0.773384 -0.087618
C46   C     C_R   0.537979 0.375923 0.719922 -0.137860
C47   C     C_R   0.255528 0.295856 0.669910 -0.140567
C48   C     C_R   0.299876 0.241999 0.722968 -0.123006
C49   C     C_R   0.464463 0.256053 0.775099 0.157471
C50   C     C_R   0.508844 0.202778 0.828532 -0.307535
C51   C     C_R   0.228472 0.121362 0.777670 0.672712
C52   C     C_R   0.184338 0.173731 0.724306 0.601657
H19   H     H_    0.631945 0.214985 0.869710 0.167573
H20   H     H_    0.707498 0.335785 0.812773 0.102525
H21   H     H_    0.633501 0.426803 0.719149 0.121822
H22   H     H_    0.132221 0.284431 0.628791 0.177138
O11   O     O_R   0.265840 0.084300 0.086750 -0.602897
O12   O     O_R   0.589750 0.070740 0.921690 -0.608736
O13   O     O_R   0.755020 0.915730 0.913400 -0.596929
C53   C     C_R   0.416928 0.085510 0.894351 1.029796
O14   O     O_R   0.595830 0.093740 0.086480 -0.565030
O15   O     O_R   0.761150 0.938890 0.079360 -0.515435
C54   C     C_R   0.429465 0.115020 0.116987 0.974328
O16   O     O_R   0.259710 0.061140 0.920790 -0.568966
O17   O     O_3   0.425260 0.949200 0.997610 -0.242084
V3    V     V_3+5 0.702060 0.009430 0.000450 1.269156
O18   O     O_R   0.090530 0.929220 0.078150 -0.602095
C55   C     C_R   0.924569 0.910953 0.102878 1.063823
O19   O     O_R   0.084440 0.906220 0.913360 -0.589453
C56   C     C_R   0.913484 0.883027 0.885729 0.970793
V4    V     V_3+5 0.201450 0.990520 0.999290 1.262815
O20   O     O_3   0.928380 0.050800 0.002390 -0.281603
N1    N     N_R   0.631623 0.784088 0.100886 0.229843
O21   O     O_R   0.671523 0.767079 0.026026 -0.451837
O22   O     O_R   0.453034 0.795456 0.120949 -0.395427
N2    N     N_R   0.773479 0.743269 0.526641 0.221895
O23   O     O_R   0.645972 0.739227 0.468429 -0.411479
O24   O     O_R   0.953851 0.729908 0.510250 -0.440470
N3    N     N_R   0.568812 0.033251 0.239579 0.216634
O25   O     O_R   0.741445 0.056401 0.226204 -0.418193
O26   O     O_R   0.534072 0.955824 0.231888 -0.424735
F1    F     F_    0.112383 0.056035 0.776876 -0.656056
F2    F     F_    0.027096 0.157865 0.674421 -0.645812
F3    F     F_    0.562392 0.998111 0.667783 -0.662151

loop_
_geom_bond_atom_site_label_1
_geom_bond_atom_site_label_2
_geom_bond_distance
_ccdc_geom_bond_type
C34   C38   1.416378 A    
C31   C32   1.401272 A    
O12   V3    1.971304 S    
V4    O20   2.136587 S    
V3    O20   1.716247 S    
C6    C9    1.405325 A    
C23   C24   1.415102 A    
C4    C6    1.490109 S    
O2    C1    1.303941 A    
O17   V3    2.168578 S    
C1    O6    1.295808 A    
C51   C52   1.399380 A    
O15   C55   1.300896 A    
C8    H4    1.082709 S    
C27   C28   1.391901 A    
C9    H5    1.083906 S    
C44   C46   1.409300 A    
C36   C39   1.415200 A    
C18   C19   1.432370 A    
C43   C53   1.489645 S    
C20   C24   1.418049 A    
N3    O26   1.299994 A    
O5    C3    1.295449 A    
C45   H20   1.083734 S    
C33   C35   1.430036 A    
C30   H14   1.082840 S    
N2    O23   1.301559 A    
V2    O10   2.136498 S    
C1    C38   1.499222 S    
O15   V3    1.977255 S    
C32   C33   1.426669 A    
C16   C17   1.380037 A    
H6    C27   1.082725 S    
C40   H17   1.082729 S    
O14   V3    2.003369 S    
O11   V4    2.003949 S    
O8    V2    1.998206 S    
C37   C42   1.414122 A    
C22   C25   1.419877 A    
C42   H18   1.082202 S    
C17   C18   1.401096 A    
O16   V4    1.994475 S    
C44   C47   1.404700 A    
C23   C28   1.417458 A    
C51   F1    1.358649 S    
O1    V2    1.999606 S    
C5    C55   1.492961 S    
O18   C55   1.297326 A    
C35   C36   1.420814 A    
O9    C4    1.297695 A    
C50   H19   1.084224 S    
C17   H8    1.083242 S    
C43   C51   1.413846 A    
C53   O16   1.291136 A    
C2    C44   1.487421 S    
C5    C12   1.419695 A    
O13   C56   1.290841 A    
C18   N2    1.425799 S    
C21   C22   1.424544 A    
O4    C2    1.308196 A    
C48   C49   1.418025 A    
C25   H9    1.080448 S    
C13   C14   1.394395 A    
C47   C48   1.414267 A    
C28   H11   1.081153 S    
C3    C21   1.493575 S    
C49   C50   1.411856 A    
C36   C37   1.429081 A    
C7    C11   1.408975 A    
C45   C46   1.397555 A    
C19   C20   1.428486 A    
C24   C56   1.483533 S    
O14   C54   1.304109 A    
C48   C52   1.402555 A    
O19   C56   1.296259 A    
C39   H16   1.082146 S    
C11   C12   1.426479 A    
C15   C16   1.383613 A    
N1    O22   1.300570 A    
C7    H2    1.081172 S    
C31   H15   1.083108 S    
O3    C4    1.301397 A    
C22   C23   1.422563 A    
O19   V4    1.998312 S    
O12   C53   1.309245 A    
C47   H22   1.083792 S    
O6    V2    1.998233 S    
O9    V2    2.011326 S    
C25   C26   1.392618 A    
C15   H7    1.078557 S    
C16   F3    1.356613 S    
O2    V1    2.003477 S    
C32   N3    1.431938 S    
C26   C27   1.387583 A    
O7    V1    2.168514 S    
C26   H10   1.082848 S    
C30   C31   1.387568 A    
O1    C2    1.291297 A    
C52   F2    1.358504 S    
O5    V1    1.999901 S    
C29   C34   1.412694 A    
C29   C30   1.389268 A    
C13   H1    1.080218 S    
C15   C20   1.419047 A    
C12   N1    1.435449 S    
C5    C13   1.404021 A    
C40   C41   1.390366 A    
C7    C8    1.398978 A    
O7    V2    1.693843 S    
O4    V1    1.971152 S    
C19   C21   1.435798 A    
O3    V1    1.977176 S    
V1    O10   1.716202 S    
N3    O25   1.301207 A    
C33   C34   1.431728 A    
N2    O24   1.300697 A    
O13   V3    1.999850 S    
O11   C54   1.300005 A    
C43   C50   1.404756 A    
C6    C8    1.404994 A    
C37   C38   1.418216 A    
C29   H13   1.082149 S    
C39   C40   1.393878 A    
C14   H3    1.083914 S    
C41   C42   1.393495 A    
C10   C14   1.398737 A    
N1    O21   1.301312 A    
C10   C11   1.419325 A    
C35   C54   1.504517 S    
C9    C10   1.411918 A    
C45   C49   1.400132 A    
C46   H21   1.083644 S    
O18   V4    2.011522 S    
H12   C41   1.082756 S    
O17   V4    1.693442 S    
O8    C3    1.298230 A    
