data_mof_unit_46618.cif
_audit_creation_date              2012-12-10T16:50:55-0500
_audit_creation_method            fapswitch 2.2
_symmetry_space_group_name_H-M    P1
_symmetry_Int_Tables_number       1
_space_group_crystal_system       triclinic
_cell_length_a                    8.009917
_cell_length_b                    8.544382
_cell_length_c                    10.424267
_cell_angle_alpha                 90.560326
_cell_angle_beta                  88.235631
_cell_angle_gamma                 92.716345
_cell_volume                      712.270440101

loop_
_atom_site_label
_atom_site_type_symbol
_atom_type_description
_atom_site_fract_x
_atom_site_fract_y
_atom_site_fract_z
_atom_type_partial_charge
C1    C     C_R   0.544218 0.793258 0.496970 0.957199
C2    C     C_R   0.939837 0.515635 0.077762 -0.128944
C3    C     C_R   0.068257 0.604159 0.016634 -0.163393
C4    C     C_R   0.931743 0.395842 0.983366 -0.163393
C5    C     C_R   0.212680 0.631294 0.087248 0.143400
C6    C     C_R   0.787320 0.368707 0.912753 0.143399
C7    C     C_R   0.351337 0.543090 0.058221 0.039961
C8    C     C_R   0.648663 0.456912 0.941779 0.039961
C9    C     C_R   0.351584 0.451823 0.946084 0.052236
C10   C     C_R   0.648416 0.548178 0.053916 0.052235
C11   C     C_R   0.498785 0.562759 0.123451 -0.183412
C12   C     C_R   0.455782 0.206742 0.503030 0.957199
C13   C     C_R   0.501215 0.437242 0.876549 -0.183412
C14   C     C_2   0.567021 0.957024 0.494373 -0.328082
C15   C     C_2   0.432979 0.042975 0.505627 -0.328082
C16   C     C_R   0.501030 0.477275 0.739365 0.889733
C17   C     C_R   0.498970 0.522725 0.260635 0.889733
C18   C     C_R   0.201284 0.402287 0.893509 -0.156945
C19   C     C_R   0.798716 0.597714 0.106492 -0.156944
C20   C     C_R   0.060163 0.484366 0.922238 -0.128944
H1    H     H_    0.968337 0.282542 0.017629 0.184218
H2    H     H_    0.990903 0.618764 0.594844 0.194327
H3    H     H_    0.031663 0.717459 0.982371 0.184218
H4    H     H_    0.197579 0.316785 0.815653 0.182297
H5    H     H_    0.802422 0.683216 0.184347 0.182297
H6    H     H_    0.023627 0.529328 0.829867 0.177078
H7    H     H_    0.976373 0.470673 0.170133 0.177078
H8    H     H_    0.694282 0.006318 0.483038 0.197411
H9    H     H_    0.305718 0.993682 0.516962 0.197411
H10   H     H_    0.009097 0.381236 0.405156 0.194327
I1    I     I_    0.225782 0.835032 0.206635 -0.409380
I2    I     I_    0.774218 0.164969 0.793365 -0.409380
N1    N     N_2   0.950330 0.457950 0.466250 -0.171155
N2    N     N_2   0.049670 0.542050 0.533750 -0.171155
O1    O     O_R   0.389250 0.738570 0.508280 -0.592072
O2    O     O_R   0.610750 0.261430 0.491720 -0.592072
O3    O     O_R   0.678390 0.711630 0.486650 -0.627539
O4    O     O_R   0.321610 0.288370 0.513350 -0.627539
O5    O     O_R   0.355430 0.513480 0.694040 -0.621423
O6    O     O_R   0.644570 0.486520 0.305960 -0.621423
O7    O     O_R   0.644570 0.486540 0.672410 -0.598106
O8    O     O_R   0.355430 0.513460 0.327590 -0.598106
Zn1   Zn    Zn3+2 0.306940 0.517990 0.514440 0.962592
Zn2   Zn    Zn3+2 0.693060 0.482010 0.485560 0.962592

loop_
_geom_bond_atom_site_label_1
_geom_bond_atom_site_label_2
_ccdc_geom_bond_type
C6    I2    S    
C5    C7    A    
C2    H7    S    
C12   O2    A    
O1    Zn1   S    
O6    Zn2   S    
C2    C4    A    
C12   C15   S    
C1    O3    A    
C10   C19   A    
O3    Zn2   S    
C2    C3    A    
C3    C20   A    
H2    N2    S    
C7    C11   A    
C4    H1    S    
C8    C13   A    
C20   H6    S    
C18   H4    S    
C6    C8    A    
C8    C10   A    
N1    N2    D    
C15   H9    S    
C18   C20   A    
C12   O4    A    
C19   H5    S    
O7    Zn2   S    
O2    Zn2   S    
C10   C11   A    
C16   O5    A    
C4    C20   A    
C3    C5    A    
C9    C18   A    
O4    Zn1   S    
C1    O1    A    
C4    C6    A    
O8    Zn1   S    
C13   C16   S    
C7    C9    A    
C9    C13   A    
C17   O8    A    
C11   C17   S    
O5    Zn1   S    
C1    C14   S    
H10   N1    S    
C14   H8    S    
C2    C19   A    
C14   C15   D    
N1    Zn2   S    
C3    H3    S    
C16   O7    A    
N2    Zn1   S    
C5    I1    S    
C17   O6    A    
