data_mof_unit_67025.cif
_audit_creation_date              2013-03-05T15:58:14-0500
_audit_creation_method            fapswitch 2.2
_symmetry_space_group_name_H-M    P1
_symmetry_Int_Tables_number       1
_space_group_crystal_system       triclinic
_cell_length_a                    8.278157
_cell_length_b                    12.728925
_cell_length_c                    14.356721
_cell_angle_alpha                 94.352649
_cell_angle_beta                  90.721878
_cell_angle_gamma                 97.924037
_cell_volume                      1493.6234374

loop_
_atom_site_label
_atom_site_type_symbol
_atom_site_description
_atom_site_fract_x
_atom_site_fract_y
_atom_site_fract_z
_atom_type_partial_charge
P1    P     P_3+3 0.054400 0.427280 0.286870 0.527984
O1    O     O_2   0.887370 0.460630 0.272300 -0.386924
O2    O     O_3   0.129410 0.451380 0.388510 -0.276682
O3    O     O_3   0.670210 0.653170 0.329170 -0.314189
O4    O     O_2   0.779029 0.572727 0.166453 -0.397241
O5    O     O_3   0.027821 0.290730 0.254206 -0.615950
O6    O     O_3   0.716941 0.764366 0.156236 -0.540648
H1    H     H_    0.731541 0.887769 0.259760 0.109047
C1    C     C_3   0.657265 0.933953 0.124835 -0.878488
H2    H     H_    0.601330 0.004561 0.151164 0.239203
H3    H     H_    0.784891 0.959795 0.105065 0.245687
P2    P     P_3+3 0.668300 0.742890 0.573060 0.465124
P3    P     P_3+3 0.134735 0.842608 0.380175 0.453952
O7    O     O_2   0.845380 0.761330 0.544970 -0.378823
O8    O     O_3   0.088930 0.704860 0.376040 -0.405285
O9    O     O_2   0.996719 0.890372 0.433076 -0.357449
O10   O     O_3   0.684720 0.766619 0.694859 -0.576095
O11   O     O_3   0.122126 0.882525 0.266363 -0.546118
C2    C     C_3   0.104283 0.791553 0.202871 0.398909
H4    H     H_    0.985511 0.743170 0.212163 0.180538
H5    H     H_    0.199783 0.740045 0.213299 0.047036
C3    C     C_3   0.113769 0.824942 0.103354 -0.817832
H6    H     H_    0.079369 0.754307 0.053416 0.237982
H7    H     H_    0.029119 0.883429 0.092669 0.260492
C4    C     C_3   0.230347 0.760626 0.656791 0.419571
H8    H     H_    0.352525 0.737459 0.644161 0.087517
H9    H     H_    0.150260 0.739854 0.593484 0.112359
C5    C     C_3   0.246238 0.880250 0.680196 -0.850664
H10   H     H_    0.323739 0.902336 0.744478 0.297500
H11   H     H_    0.303606 0.924011 0.622598 0.202416
H12   H     H_    0.123224 0.904469 0.692416 0.268070
Ba1   Ba    Ba6+2 0.855630 0.555280 0.454520 1.617021
C6    C     C_3   0.915015 0.235932 0.309762 0.891786
H13   H     H_    0.806731 0.276894 0.320303 0.045896
C7    C     C_3   0.863710 0.125894 0.261712 -0.987393
H14   H     H_    0.819245 0.134146 0.189403 0.231653
H15   H     H_    0.765437 0.082601 0.301008 0.241735
H16   H     H_    0.968951 0.080057 0.257383 0.292474
C8    C     C_3   0.716901 0.675026 0.735485 0.432301
H17   H     H_    0.821007 0.642867 0.701520 0.083431
H18   H     H_    0.607398 0.613748 0.729601 0.134409
C9    C     C_3   0.759686 0.704551 0.838598 -0.898275
H19   H     H_    0.880188 0.755297 0.846043 0.268844
H20   H     H_    0.764427 0.632144 0.876140 0.218287
H21   H     H_    0.666232 0.749122 0.871495 0.300128
P4    P     P_3+3 0.135310 0.572810 0.713130 0.523769
O12   O     O_2   0.302330 0.539400 0.727760 -0.330721
O13   O     O_3   0.060300 0.548700 0.611500 -0.412757
O14   O     O_3   0.519500 0.346920 0.670840 -0.377715
O15   O     O_3   0.163351 0.711566 0.733824 -0.501185
P5    P     P_3+3 0.055216 0.157753 0.633303 0.505733
O16   O     O_3   0.614310 0.373510 0.452640 -0.341716
O17   O     O_3   0.100780 0.295230 0.623970 -0.342800
O18   O     O_2   0.181014 0.106963 0.572180 -0.350125
O19   O     O_3   0.102888 0.130089 0.747193 -0.514865
Ba2   Ba    Ba6+2 0.334200 0.444810 0.545490 1.621947
P6    P     P_3+3 0.656272 0.643805 0.206281 0.484299
C10   C     C_3   0.652729 0.853105 0.198610 0.466431
H22   H     H_    0.587176 0.897143 0.061250 0.301578
O20   O     O_3   0.575400 0.626570 0.547370 -0.374980
C11   C     C_3   0.468376 0.268561 0.256296 0.382441
H23   H     H_    0.349359 0.289504 0.280706 0.172805
H24   H     H_    0.563007 0.339427 0.257745 0.124398
C12   C     C_3   0.444608 0.222446 0.155404 -0.952133
H25   H     H_    0.353708 0.149386 0.150977 0.292246
H26   H     H_    0.400049 0.281658 0.112141 0.229135
H27   H     H_    0.562077 0.202602 0.127436 0.256492
P7    P     P_3+3 0.528091 0.238090 0.429545 0.466449
O21   O     O_2   0.344320 0.238700 0.455090 -0.286961
O22   O     O_3   0.521516 0.192855 0.310596 -0.607921
H28   H     H_    0.239837 0.861439 0.089129 0.274520
C13   C     C_3   0.044065 0.205606 0.809710 0.460724
H29   H     H_    0.115488 0.285526 0.804685 0.129711
H30   H     H_    0.912929 0.209426 0.795582 -0.025455
C14   C     C_3   0.062124 0.174192 0.909072 -0.873266
H31   H     H_    0.193041 0.178354 0.928571 0.314899
H32   H     H_    0.006390 0.229284 0.958530 0.197136
H33   H     H_    0.000029 0.092006 0.914965 0.257084
P8    P     P_3+3 0.541064 0.353068 0.793077 0.461900
C15   C     C_3   0.537092 0.147931 0.778082 0.377910
H34   H     H_    0.644450 0.178124 0.737363 -0.073035
O23   O     O_2   0.419160 0.424097 0.835203 -0.377041
O24   O     O_3   0.469769 0.228155 0.831446 -0.495533
H35   H     H_    0.442344 0.105646 0.727820 0.121729
H36   H     H_    0.694634 0.109247 0.888806 0.118578
C16   C     C_3   0.591873 0.069025 0.842775 -0.009028
H37   H     H_    0.634349 0.001624 0.800375 0.102791
C17   C     C_R   0.988933 0.446520 0.060799 -0.086054
C18   C     C_R   0.185874 0.493397 0.197465 0.150070
C19   C     C_R   0.347354 0.531181 0.225848 0.052276
C20   C     C_R   0.453723 0.583596 0.165192 0.176474
C21   C     C_R   0.404898 0.596683 0.075036 -0.274564
C22   C     C_R   0.247654 0.554811 0.040888 -0.058199
C23   C     C_R   0.138452 0.497563 0.100623 -0.104739
C24   C     C_R   0.055682 0.511850 0.905282 -0.136644
C25   C     C_R   0.947039 0.453055 0.965497 0.013381
C26   C     C_R   0.011114 0.507092 0.806530 0.287089
C27   C     C_R   0.860661 0.450920 0.775251 -0.547373
C28   C     C_R   0.748798 0.405444 0.836990 0.249832
C29   C     C_R   0.793047 0.403536 0.930949 -0.280372
C30   C     C_R   0.200950 0.570458 0.948055 0.480008
H38   H     H_    0.494817 0.637229 0.031324 0.222654
H39   H     H_    0.706146 0.364277 0.977394 0.154963
H40   H     H_    0.825555 0.447849 0.702105 0.165062
H41   H     H_    0.904549 0.398978 0.102915 0.160740
C31   C     C_R   0.748695 0.177624 0.556127 -0.383372
C32   C     C_R   0.426116 0.814218 0.469990 -0.532044
C33   C     C_R   0.399309 0.995080 0.442465 -0.185501
C34   C     C_R   0.335979 0.887954 0.435646 0.210247
C35   C     C_R   0.574025 0.847047 0.518580 0.290565
C36   C     C_R   0.636011 0.957734 0.531922 -0.048651
C37   C     C_R   0.547705 0.032128 0.491314 -0.080281
C38   C     C_R   0.608812 0.141885 0.501377 0.239566
C39   C     C_R   0.843609 0.105878 0.590473 0.230850
C40   C     C_R   0.784854 0.996634 0.581376 -0.212881
H42   H     H_    0.327789 0.048248 0.411113 0.212521
H43   H     H_    0.858868 0.943725 0.611097 0.179174
H44   H     H_    0.793804 0.261907 0.563273 0.171293
H45   H     H_    0.377233 0.730600 0.461955 0.195053
Cl1   Cl    Cl    0.011019 0.221782 0.416683 -0.594889
N1    N     N_3   0.484105 0.828031 0.227333 -0.210860
H46   H     H_    0.440712 0.899485 0.247766 0.118985
H47   H     H_    0.482939 0.788277 0.288187 0.086121
Cl2   Cl    Cl    0.429749 0.017995 0.914824 -0.606776
Cl3   Cl    Cl    0.426003 0.501997 0.334056 -0.556671
Cl4   Cl    Cl    0.314116 0.679767 0.898559 -0.627822

loop_
_geom_bond_atom_site_label_1
_geom_bond_atom_site_label_2
_geom_bond_distance
_ccdc_geom_bond_type
C11   O22   1.397199 S    
C17   C25   1.418635 A    
C22   C23   1.420012 A    
C32   C34   1.391008 A    
C36   C37   1.426507 A    
C15   H35   1.111743 S    
P2    C35   1.845514 S    
C39   C40   1.404148 A    
O8    Ba1   2.826864 S    
C8    H18   1.109219 S    
H36   C16   1.112153 S    
C4    C5    1.521445 S    
P3    O11   1.753630 S    
C31   C39   1.396765 A    
P8    C28   1.841716 S    
C5    H10   1.112792 S    
C7    H15   1.104047 S    
P1    O1    1.517846 D    
P1    O2    1.570253 S    
C15   O24   1.410400 S    
C33   C34   1.387506 A    
O1    Ba1   2.826771 S    
O11   C2    1.408150 S    
O10   C8    1.398347 S    
C18   C23   1.446761 A    
C11   H24   1.108919 S    
C35   C36   1.429085 A    
Ba1   O16   2.838943 S    
C15   C16   1.527634 S    
H1    C10   1.112860 S    
C4    O15   1.394793 S    
C24   C25   1.431265 A    
P7    O21   1.570272 D    
C40   H43   1.077881 S    
C30   Cl4   1.768039 S    
P2    O10   1.752134 S    
P3    C34   1.836948 S    
C1    H2    1.110243 S    
O6    C10   1.413482 S    
O19   C13   1.405640 S    
O16   P7    1.777282 S    
C21   H38   1.081333 S    
P7    C38   1.846518 S    
C31   H44   1.082968 S    
Ba1   O13   2.815749 S    
C11   H23   1.109738 S    
C9    H20   1.107406 S    
C13   C14   1.521471 S    
C32   H45   1.082296 S    
C37   C38   1.414666 A    
C26   C27   1.398474 A    
C8    C9    1.524403 S    
C17   C23   1.408930 A    
P4    O13   1.570131 S    
P5    C39   1.864112 S    
C31   C38   1.393998 A    
P1    O5    1.748616 S    
C12   H27   1.110321 S    
C7    H16   1.113243 S    
C13   H30   1.110157 S    
C22   C30   1.419152 A    
C20   C21   1.380051 A    
C16   H37   1.113345 S    
C13   H29   1.111775 S    
C4    H8    1.105230 S    
C29   H39   1.084152 S    
Ba2   O20   2.838265 S    
C1    H22   1.111887 S    
C9    H21   1.110406 S    
C12   H26   1.109897 S    
O3    P6    1.760502 S    
C11   C12   1.520940 S    
C14   H31   1.109039 S    
C14   H32   1.109368 S    
O2    Ba2   2.816319 S    
C28   C29   1.396205 A    
C2    C3    1.521143 S    
C6    H13   1.103895 S    
C1    H3    1.109459 S    
N1    H46   1.046225 S    
O3    Ba1   2.818750 S    
P4    C26   1.876887 S    
P2    O7    1.516897 D    
Ba2   O21   2.849734 S    
P3    O8    1.738390 S    
C16   Cl2   1.785972 S    
C32   C35   1.397707 A    
C3    H7    1.107829 S    
C9    H19   1.110365 S    
Ba1   O20   2.908014 S    
C3    H28   1.110293 S    
C8    H17   1.107074 S    
O14   P8    1.756468 S    
O17   Ba2   2.827456 S    
O13   Ba2   2.911796 S    
P4    O12   1.518212 D    
C1    C10   1.529090 S    
C10   N1    1.460166 S    
P1    C18   1.867344 S    
P6    C20   1.816293 S    
C2    H5    1.109996 S    
C5    H12   1.116093 S    
O7    Ba1   2.849507 S    
C15   H34   1.110097 S    
P8    O23   1.544509 D    
C24   C26   1.455143 A    
C4    H9    1.111533 S    
O14   Ba2   2.818156 S    
P4    O15   1.751353 S    
C24   C30   1.429781 A    
O5    C6    1.385042 S    
O4    P6    1.538760 D    
P5    O18   1.547593 D    
C12   H25   1.109958 S    
C33   H42   1.077566 S    
C2    H4    1.101186 S    
C5    H11   1.107456 S    
P8    O24   1.749942 S    
C17   H41   1.081393 S    
C19   C20   1.387210 A    
C27   H40   1.082460 S    
C25   C29   1.408340 A    
C21   C22   1.404204 A    
C6    C7    1.516593 S    
C19   Cl3   1.761840 S    
Ba1   Ba2   4.589364 S    
P5    O19   1.750046 S    
P1    Ba1   3.376246 S    
O2    Ba1   2.911024 S    
C14   H33   1.109981 S    
N1    H47   1.041831 S    
P2    O20   1.586104 S    
C33   C37   1.411255 A    
C6    Cl1   1.752456 S    
P7    O22   1.757994 S    
C27   C28   1.388895 A    
P3    O9    1.547610 D    
P4    Ba2   3.376708 S    
C3    H6    1.109012 S    
C36   C40   1.422618 A    
C7    H14   1.114358 S    
P5    O17   1.754246 S    
C18   C19   1.401265 A    
O6    P6    1.757108 S    
P2    Ba1   3.387430 S    
O16   Ba2   2.907222 S    
O12   Ba2   2.827305 S    
