data_mof_unit_67615.cif
_audit_creation_date              2013-03-05T16:07:32-0500
_audit_creation_method            fapswitch 2.2
_symmetry_space_group_name_H-M    P1
_symmetry_Int_Tables_number       1
_space_group_crystal_system       triclinic
_cell_length_a                    11.038781
_cell_length_b                    10.923645
_cell_length_c                    9.882298
_cell_angle_alpha                 91.901766
_cell_angle_beta                  93.843855
_cell_angle_gamma                 91.59616
_cell_volume                      1187.76803301

loop_
_atom_site_label
_atom_site_type_symbol
_atom_site_description
_atom_site_fract_x
_atom_site_fract_y
_atom_site_fract_z
_atom_type_partial_charge
O1    O     O_R   0.499990 0.319660 0.618740 -0.551622
O2    O     O_R   0.500010 0.680340 0.381260 -0.557615
O3    O     O_R   0.499990 0.319630 0.381170 -0.570649
O4    O     O_R   0.500010 0.680370 0.618830 -0.584622
C1    C     C_R   0.501414 0.263238 0.498783 0.884783
C2    C     C_R   0.494711 0.736793 0.501810 0.889210
O5    O     O_R   0.319650 0.500020 0.618780 -0.482568
O6    O     O_R   0.680350 0.499980 0.381220 -0.482376
O7    O     O_R   0.319640 0.500000 0.381210 -0.572874
O8    O     O_R   0.680360 0.500000 0.618790 -0.576517
C3    C     C_R   0.262832 0.504129 0.496528 0.781633
C4    C     C_R   0.737250 0.497343 0.503537 0.799442
Cu1   Cu    Cu3+1 0.500000 0.500020 0.640660 1.046310
Cu2   Cu    Cu3+1 0.500000 0.499980 0.359340 1.054416
C5    C     C_R   0.145491 0.568026 0.070198 -0.236008
C6    C     C_R   0.843843 0.446850 0.926692 -0.254962
H1    H     H_    0.161081 0.657707 0.030042 0.218302
H2    H     H_    0.817504 0.357993 0.962344 0.213275
C7    C     C_R   0.104765 0.561412 0.197757 -0.049854
C8    C     C_R   0.878325 0.452529 0.797490 -0.152634
H3    H     H_    0.088175 0.645308 0.254218 0.216253
H4    H     H_    0.878176 0.368775 0.735860 0.186162
C9    C     C_R   0.086401 0.447456 0.253457 0.050936
C10   C     C_R   0.910166 0.564672 0.745302 0.069854
C11   C     C_R   0.098427 0.339611 0.177621 -0.294419
C12   C     C_R   0.917801 0.671669 0.827198 -0.289734
H5    H     H_    0.076153 0.252090 0.218058 0.162324
H6    H     H_    0.951326 0.756462 0.788189 0.154030
C13   C     C_R   0.142746 0.344664 0.049774 0.418184
C14   C     C_R   0.883056 0.667268 0.960410 0.373057
C15   C     C_R   0.167868 0.460570 0.996397 0.261948
C16   C     C_R   0.843841 0.553190 0.008906 0.294538
C17   C     C_R   0.927919 0.431188 0.406091 -0.140766
C18   C     C_R   0.072956 0.571009 0.596310 -0.150445
H7    H     H_    0.874127 0.374479 0.332370 0.197287
H8    H     H_    0.127740 0.623836 0.672394 0.196744
C19   C     C_R   0.872569 0.494833 0.508238 -0.058071
C20   C     C_R   0.127710 0.509502 0.491988 -0.070915
C21   C     C_R   0.947940 0.559385 0.608553 0.001554
C22   C     C_R   0.051733 0.447281 0.391092 -0.024402
C23   C     C_R   0.425891 0.060732 0.400114 0.354953
C24   C     C_R   0.527725 0.942052 0.622203 0.346749
C25   C     C_R   0.427741 0.932194 0.395078 0.192642
C26   C     C_R   0.550742 0.067778 0.611937 0.234420
C27   C     C_R   0.484097 0.871362 0.505775 -0.373914
C28   C     C_R   0.500315 0.128397 0.498587 -0.386456
C29   C     C_R   0.475142 0.395705 0.067626 0.021074
C30   C     C_R   0.531357 0.602156 0.933450 -0.051625
H9    H     H_    0.453701 0.310725 0.115071 0.168183
H10   H     H_    0.563554 0.683676 0.887492 0.119754
C31   C     C_R   0.475758 0.395690 0.921656 0.153542
C32   C     C_R   0.524945 0.603760 0.078755 0.075376
H11   H     H_    0.453089 0.310910 0.865384 0.181150
H12   H     H_    0.543079 0.688985 0.135582 0.135416
N1    N     N_R   0.500030 0.500030 0.852070 -0.143051
N2    N     N_R   0.499970 0.499970 0.147930 -0.155284
N3    N     N_R   0.220220 0.472503 0.870682 0.099905
O9    O     O_R   0.270824 0.577329 0.845066 -0.437921
O10   O     O_R   0.229122 0.378059 0.788880 -0.403341
N4    N     N_R   0.801048 0.540919 0.139424 0.094075
O11   O     O_R   0.740394 0.440803 0.161935 -0.411664
O12   O     O_R   0.824147 0.624396 0.235331 -0.383286
O13   O     O_3   0.175287 0.236687 0.987190 -0.576043
C33   C     C_3   0.083050 0.197165 0.888377 0.120296
H13   H     H_    0.126719 0.145511 0.807717 0.180934
H14   H     H_    0.037660 0.273682 0.836570 0.144323
C34   C     C_3   0.987951 0.115781 0.949266 -0.442734
H15   H     H_    0.032963 0.042601 0.007649 0.248454
H16   H     H_    0.936781 0.172262 0.020143 0.213377
C35   C     C_3   0.899372 0.058445 0.838356 -0.804145
H17   H     H_    0.807236 0.056137 0.875262 0.307496
H18   H     H_    0.924427 0.963694 0.812468 0.234527
H19   H     H_    0.897508 0.111235 0.744370 0.272778
O14   O     O_3   0.900641 0.770266 0.045343 -0.591313
C36   C     C_3   0.789712 0.830514 0.052103 0.124653
H20   H     H_    0.714526 0.766046 0.070925 0.130788
H21   H     H_    0.765518 0.874361 0.954964 0.159708
C37   C     C_3   0.801133 0.925423 0.169944 -0.341066
H22   H     H_    0.819340 0.877763 0.266502 0.246622
H23   H     H_    0.878568 0.989963 0.157800 0.221140
C38   C     C_3   0.685519 0.997538 0.179110 -0.857017
H24   H     H_    0.669012 0.051581 0.087027 0.299662
H25   H     H_    0.695127 0.061570 0.269118 0.252626
H26   H     H_    0.606617 0.934210 0.189546 0.270053
O15   O     O_3   0.334338 0.118142 0.326320 -0.540722
C39   C     C_3   0.238628 0.141754 0.412487 0.071785
H27   H     H_    0.208838 0.236050 0.395822 0.160246
H28   H     H_    0.265319 0.141179 0.523636 0.100646
C40   C     C_3   0.132582 0.049462 0.381135 -0.309035
H29   H     H_    0.106738 0.044736 0.270462 0.240752
H30   H     H_    0.160966 0.957328 0.412094 0.245954
C41   C     C_3   0.022646 0.083533 0.458635 -0.960841
H31   H     H_    0.047604 0.088346 0.569362 0.255386
H32   H     H_    0.948994 0.012878 0.437812 0.266416
H33   H     H_    0.988251 0.173296 0.426779 0.258988
O16   O     O_3   0.543632 0.892093 0.748672 -0.592823
C42   C     C_3   0.430971 0.872436 0.810061 0.128206
H34   H     H_    0.449661 0.887624 0.921225 0.201076
H35   H     H_    0.401332 0.775410 0.794653 0.200222
C43   C     C_3   0.321196 0.950287 0.765460 -0.419245
H36   H     H_    0.340779 0.048665 0.793169 0.253126
H37   H     H_    0.299817 0.940370 0.654224 0.197119
C44   C     C_3   0.207923 0.905697 0.832155 -0.834147
H38   H     H_    0.197551 0.804342 0.824972 0.263783
H39   H     H_    0.126489 0.941704 0.777732 0.234982
H40   H     H_    0.212275 0.936611 0.940515 0.311376
N5    N     N_R   0.358231 0.865773 0.286872 0.144661
O17   O     O_R   0.283938 0.776754 0.313741 -0.420809
O18   O     O_R   0.355139 0.905728 0.164230 -0.378007
N6    N     N_R   0.617753 0.134418 0.721549 0.144715
O19   O     O_R   0.702908 0.213283 0.696109 -0.430306
O20   O     O_R   0.589284 0.122313 0.846101 -0.408513

loop_
_geom_bond_atom_site_label_1
_geom_bond_atom_site_label_2
_geom_bond_distance
_ccdc_geom_bond_type
C30   N1    1.375708 A    
Cu2   N2    2.089191 S    
C13   O13   1.381213 S    
C2    C27   1.477327 S    
N5    O18   1.300364 A    
C36   H20   1.102818 S    
C42   C43   1.548087 S    
C42   H34   1.110195 S    
C29   H9    1.081255 S    
O15   C39   1.424456 S    
C5    C7    1.369887 A    
O1    C1    1.319069 A    
C7    H3    1.083446 S    
C10   C12   1.396696 A    
C14   O14   1.382525 S    
C37   H23   1.108104 S    
N3    O10   1.299399 A    
C9    C22   1.437495 S    
O4    Cu1   1.988957 S    
C10   C21   1.440545 S    
N4    O12   1.300803 A    
C4    C19   1.492409 S    
N6    O19   1.299971 A    
C41   H31   1.109492 S    
C38   H25   1.110676 S    
C8    C10   1.390125 A    
C32   H12   1.077965 S    
C23   C28   1.406955 A    
C35   H17   1.103174 S    
C40   H30   1.108990 S    
C18   H8    1.074638 S    
C6    C8    1.359443 A    
C30   H10   1.075376 S    
C20   C22   1.403811 A    
Cu1   Cu2   2.780075 S    
C23   C25   1.404108 A    
O2    C2    1.328732 A    
C24   C26   1.397963 A    
C43   H37   1.109822 S    
C42   H35   1.103108 S    
C26   C28   1.410416 A    
C38   H24   1.108709 S    
C11   C13   1.387310 A    
C19   C21   1.408038 A    
C17   C22   1.391547 A    
O14   C36   1.410669 S    
C39   H28   1.118271 S    
C34   H15   1.110446 S    
C33   C34   1.524026 S    
O4    C2    1.326978 A    
C39   H27   1.104145 S    
C29   C31   1.442978 A    
C39   C40   1.532197 S    
C41   H33   1.109014 S    
C17   C19   1.391186 A    
C18   C21   1.396014 A    
N4    O11   1.299668 A    
C31   H11   1.078788 S    
C24   C27   1.413521 A    
C33   H14   1.108668 S    
C3    C20   1.492099 S    
C7    C9    1.392850 A    
O7    Cu2   2.017010 S    
C25   C27   1.416099 A    
O5    C3    1.326099 A    
O5    Cu1   1.988089 S    
O6    C4    1.325898 A    
O16   C42   1.433775 S    
C35   H19   1.108725 S    
C41   H32   1.109550 S    
C44   H39   1.104975 S    
C25   N5    1.437401 S    
C40   C41   1.526008 S    
C36   H21   1.107027 S    
O3    Cu2   1.988956 S    
O8    C4    1.336858 A    
C8    H4    1.082025 S    
C12   C14   1.397604 A    
O7    C3    1.337147 A    
C24   O16   1.382697 S    
C6    C16   1.395291 A    
C16   N4    1.412225 S    
N5    O17   1.300218 A    
C38   H26   1.109499 S    
C5    H1    1.082762 S    
O6    Cu2   1.988088 S    
C18   C20   1.392768 A    
O3    C1    1.332752 A    
O8    Cu1   2.017009 S    
C5    C15   1.397943 A    
C11   H5    1.076846 S    
C23   O15   1.383230 S    
C1    C28   1.472606 S    
C12   H6    1.080391 S    
C34   C35   1.525226 S    
C33   H13   1.105866 S    
C15   N3    1.413223 S    
C13   C15   1.415127 A    
C14   C16   1.416809 A    
C37   H22   1.111329 S    
C37   C38   1.524577 S    
N3    O9    1.299967 A    
C43   H36   1.111832 S    
C17   H7    1.076415 S    
C44   H40   1.109623 S    
C31   N1    1.379665 A    
C43   C44   1.527422 S    
O2    Cu2   1.974899 S    
C36   C37   1.529642 S    
N6    O20   1.300623 A    
O13   C33   1.410983 S    
C30   C32   1.441965 A    
C9    C11   1.389443 A    
O1    Cu1   1.974899 S    
C6    H2    1.082378 S    
C44   H38   1.109316 S    
C35   H18   1.105024 S    
C34   H16   1.110905 S    
C40   H29   1.110777 S    
C32   N2    1.374061 A    
C29   N2    1.376799 A    
Cu1   N1    2.089191 S    
C26   N6    1.435512 S    
