data_mof_unit_55002.cif
_audit_creation_date              2013-03-05T16:12:51-0500
_audit_creation_method            fapswitch 2.2
_symmetry_space_group_name_H-M    P1
_symmetry_Int_Tables_number       1
_space_group_crystal_system       triclinic
_cell_length_a                    10.738479
_cell_length_b                    9.825492
_cell_length_c                    27.163366
_cell_angle_alpha                 89.851859
_cell_angle_beta                  89.622407
_cell_angle_gamma                 88.855997
_cell_volume                      2865.38741885

loop_
_atom_site_label
_atom_site_type_symbol
_atom_site_description
_atom_site_fract_x
_atom_site_fract_y
_atom_site_fract_z
_atom_type_partial_charge
O1    O     O_R   0.316770 0.614620 0.500000 -0.602656
O2    O     O_R   0.683230 0.385380 0.500000 -0.614631
O3    O     O_R   0.683230 0.614620 0.500000 -0.591028
O4    O     O_R   0.316770 0.385380 0.500000 -0.612362
C1    C     C_R   0.258754 0.501920 0.502916 0.883302
C2    C     C_R   0.739202 0.498008 0.493723 0.912741
O5    O     O_R   0.500030 0.614650 0.428760 -0.634377
O6    O     O_R   0.499970 0.385350 0.571240 -0.623622
O7    O     O_R   0.499970 0.614650 0.571240 -0.625099
O8    O     O_R   0.500030 0.385350 0.428760 -0.624945
C3    C     C_R   0.494635 0.499947 0.405403 0.872250
C4    C     C_R   0.501160 0.499818 0.594530 0.894014
Zn1   Zn    Zn3+2 0.500000 0.653120 0.500000 0.922149
Zn2   Zn    Zn3+2 0.500000 0.346880 0.500000 0.919666
C5    C     C_R   0.327983 0.391970 0.174875 0.529874
C6    C     C_R   0.625799 0.414772 0.829070 0.521165
O9    O     O_2   0.224294 0.452244 0.193667 -0.503291
O10   O     O_2   0.730255 0.465575 0.809004 -0.503607
N1    N     N_R   0.431332 0.377569 0.203797 -0.350640
N2    N     N_R   0.524240 0.396798 0.799776 -0.349450
C7    C     C_R   0.541135 0.325348 0.185563 0.508321
C8    C     C_R   0.416074 0.344879 0.817884 0.506388
C9    C     C_R   0.499524 0.542432 0.265749 0.168460
C10   C     C_R   0.456966 0.549669 0.732306 0.164749
C11   C     C_R   0.527797 0.566220 0.315908 0.097444
C12   C     C_R   0.440731 0.568939 0.680947 0.092881
C13   C     C_R   0.363556 0.407007 0.338685 0.095555
C14   C     C_R   0.614317 0.406666 0.666629 0.097732
C15   C     C_R   0.361860 0.357312 0.290088 0.171673
C16   C     C_R   0.604825 0.361013 0.715643 0.176806
C17   C     C_R   0.428534 0.427526 0.253458 0.160475
C18   C     C_R   0.529701 0.436759 0.748903 0.162401
C19   C     C_R   0.449188 0.315152 0.104664 -0.093687
C20   C     C_R   0.506204 0.336690 0.899296 -0.088395
C21   C     C_R   0.331635 0.348259 0.125476 -0.145000
C22   C     C_R   0.621218 0.379210 0.879414 -0.153650
C23   C     C_R   0.224578 0.345151 0.095449 0.361609
C24   C     C_R   0.726033 0.385245 0.910625 0.362111
C25   C     C_R   0.554384 0.301576 0.135147 -0.026402
C26   C     C_R   0.402985 0.320136 0.868262 -0.023418
C27   C     C_R   0.460334 0.495546 0.352730 -0.182648
C28   C     C_R   0.520332 0.495760 0.648076 -0.184747
C29   C     C_R   0.372698 0.295281 0.971020 0.065562
C30   C     C_R   0.584182 0.293744 0.032228 0.066138
C31   C     C_R   0.598859 0.315909 0.981074 -0.011610
C32   C     C_R   0.356676 0.304789 0.022716 -0.009835
C33   C     C_R   0.492912 0.314403 0.950507 0.082828
C34   C     C_R   0.463043 0.302216 0.053128 0.082563
C35   C     C_R   0.272422 0.273110 0.938916 -0.179221
C36   C     C_R   0.686564 0.269973 0.063606 -0.180603
C37   C     C_R   0.288215 0.282682 0.888255 -0.095848
C38   C     C_R   0.671244 0.271300 0.114411 -0.097666
O11   O     O_2   0.320275 0.321780 0.787268 -0.565487
O12   O     O_2   0.638826 0.303966 0.215844 -0.560688
C39   C     C_R   0.238286 0.323271 0.044832 -0.273256
C40   C     C_R   0.714726 0.349269 0.960141 -0.265790
H1    H     H_    0.208437 0.266348 0.864944 0.220571
H2    H     H_    0.752738 0.256416 0.137259 0.223385
H3    H     H_    0.181131 0.246039 0.952047 0.175960
H4    H     H_    0.779406 0.249561 0.049606 0.174901
H5    H     H_    0.154387 0.326600 0.023228 0.186100
H6    H     H_    0.796885 0.359169 0.982452 0.184041
C41   C     C_R   0.061336 0.381147 0.510494 0.091309
C42   C     C_R   0.933003 0.613793 0.473641 0.110598
C43   C     C_R   0.939267 0.371068 0.494579 0.101484
C44   C     C_R   0.057320 0.625585 0.487230 0.117884
C45   C     C_R   0.872142 0.492412 0.484679 -0.230791
C46   C     C_R   0.123345 0.505515 0.502871 -0.203490
C47   C     C_R   0.529111 0.070970 0.541633 -0.112699
C48   C     C_R   0.467595 0.929115 0.458754 -0.117970
C49   C     C_R   0.468587 0.072919 0.458650 -0.084865
C50   C     C_R   0.530211 0.927121 0.541505 -0.095608
H7    H     H_    0.553734 0.124422 0.574794 0.138294
H8    H     H_    0.441643 0.875735 0.425733 0.135586
H9    H     H_    0.443092 0.128011 0.425640 0.130535
H10   H     H_    0.555434 0.872201 0.574619 0.141438
N3    N     N_R   0.500000 0.857200 0.500000 -0.078179
N4    N     N_R   0.500000 0.142800 0.500000 -0.072205
C51   C     C_3   0.259235 0.369862 0.374377 -0.402032
C52   C     C_3   0.136694 0.441969 0.360695 -0.880760
H11   H     H_    0.146780 0.554007 0.363545 0.257666
H12   H     H_    0.107948 0.416882 0.322701 0.283467
H13   H     H_    0.062017 0.410496 0.386574 0.247114
H14   H     H_    0.246896 0.258223 0.376385 0.201459
H15   H     H_    0.278810 0.402380 0.412016 0.229964
C53   C     C_3   0.727345 0.365416 0.635296 -0.420990
C54   C     C_3   0.844592 0.435595 0.653057 -0.848406
H16   H     H_    0.832663 0.547785 0.649564 0.264688
H17   H     H_    0.865076 0.410226 0.692014 0.282469
H18   H     H_    0.925509 0.402668 0.630012 0.242403
H19   H     H_    0.741991 0.253456 0.635333 0.204324
H20   H     H_    0.716899 0.395963 0.596391 0.225668
C55   C     C_3   0.298514 0.223474 0.278543 -0.333157
C56   C     C_3   0.376912 0.102481 0.296819 -0.916121
H21   H     H_    0.468226 0.099067 0.277345 0.287072
H22   H     H_    0.393257 0.109286 0.336994 0.247453
H23   H     H_    0.327533 0.006607 0.289305 0.257719
H24   H     H_    0.203979 0.219906 0.294971 0.219505
H25   H     H_    0.284155 0.208309 0.238709 0.233755
C57   C     C_3   0.665753 0.225936 0.731026 -0.342490
C58   C     C_3   0.593978 0.106379 0.710379 -0.906302
H26   H     H_    0.497471 0.107631 0.725403 0.284623
H27   H     H_    0.589865 0.110800 0.669604 0.247673
H28   H     H_    0.640837 0.009225 0.721248 0.261306
H29   H     H_    0.764301 0.218828 0.718849 0.219734
H30   H     H_    0.668415 0.212224 0.771419 0.221249
N5    N     N_R   0.100863 0.356609 0.115705 0.241696
O13   O     O_R   0.015087 0.426134 0.092469 -0.390712
O14   O     O_R   0.068139 0.277277 0.151784 -0.362448
N6    N     N_R   0.845017 0.429233 0.893402 0.247069
O15   O     O_R   0.941068 0.346931 0.896468 -0.407808
O16   O     O_R   0.862845 0.558435 0.886355 -0.324311
C59   C     C_3   0.329874 0.652798 0.661868 -0.419522
C60   C     C_3   0.216068 0.563272 0.656684 -0.860855
H31   H     H_    0.233478 0.484538 0.628071 0.240009
H32   H     H_    0.194457 0.512546 0.692247 0.291424
H33   H     H_    0.133872 0.626483 0.645823 0.248066
H34   H     H_    0.305143 0.739427 0.686180 0.219803
H35   H     H_    0.349934 0.702326 0.626224 0.222053
C61   C     C_3   0.639739 0.651332 0.328885 -0.435538
C62   C     C_3   0.759519 0.565220 0.324887 -0.843327
H36   H     H_    0.768436 0.518160 0.287877 0.296907
H37   H     H_    0.841483 0.630217 0.330666 0.245762
H38   H     H_    0.759721 0.483269 0.353155 0.245929
H39   H     H_    0.647632 0.741685 0.304772 0.223203
H40   H     H_    0.631825 0.695392 0.366079 0.216724
C63   C     C_3   0.396262 0.647047 0.769413 -0.356762
C64   C     C_3   0.460961 0.784274 0.768990 -0.868862
H41   H     H_    0.559340 0.770543 0.780761 0.283198
H42   H     H_    0.459961 0.831202 0.731819 0.251345
H43   H     H_    0.412851 0.854963 0.795031 0.267415
H44   H     H_    0.295118 0.660187 0.762263 0.226005
H45   H     H_    0.402164 0.608815 0.807709 0.218117
C65   C     C_3   0.546415 0.636562 0.225173 -0.366959
C66   C     C_3   0.473851 0.771922 0.225607 -0.861362
H46   H     H_    0.374057 0.754419 0.217716 0.282163
H47   H     H_    0.480643 0.823224 0.261750 0.250358
H48   H     H_    0.511644 0.840400 0.196814 0.266210
H49   H     H_    0.647740 0.653633 0.228596 0.227560
H50   H     H_    0.534654 0.593406 0.187921 0.214587
C67   C     C_3   0.117745 0.266576 0.541768 -0.318014
C68   C     C_3   0.174651 0.150220 0.511048 -0.798185
H51   H     H_    0.107423 0.067978 0.506510 0.233306
H52   H     H_    0.203242 0.184246 0.473720 0.259492
H53   H     H_    0.257236 0.107412 0.530312 0.252193
H54   H     H_    0.189400 0.306975 0.566815 0.192369
H55   H     H_    0.047130 0.226649 0.567711 0.195495
C69   C     C_3   0.872999 0.715103 0.437944 -0.392654
C70   C     C_3   0.817388 0.842986 0.462265 -0.804463
H56   H     H_    0.718104 0.855200 0.452149 0.264808
H57   H     H_    0.824753 0.838647 0.503028 0.270597
H58   H     H_    0.865334 0.934468 0.448307 0.226398
H59   H     H_    0.941929 0.743948 0.409208 0.184432
H60   H     H_    0.798215 0.664191 0.417683 0.211282
C71   C     C_3   0.890172 0.233424 0.478607 -0.315030
C72   C     C_3   0.838711 0.148196 0.521106 -0.840813
H61   H     H_    0.909371 0.074914 0.535354 0.232100
H62   H     H_    0.805093 0.212799 0.551832 0.262335
H63   H     H_    0.759918 0.088479 0.507592 0.258157
H64   H     H_    0.817160 0.247846 0.450154 0.204677
H65   H     H_    0.963542 0.174972 0.458474 0.185876
C73   C     C_3   0.113678 0.767344 0.488949 -0.346400
C74   C     C_3   0.144662 0.806926 0.542068 -0.818887
H66   H     H_    0.172039 0.717615 0.564767 0.264357
H67   H     H_    0.223797 0.877463 0.542233 0.249022
H68   H     H_    0.062290 0.856720 0.559904 0.234959
H69   H     H_    0.194694 0.775206 0.463691 0.213002
H70   H     H_    0.051475 0.848350 0.474857 0.201922

loop_
_geom_bond_atom_site_label_1
_geom_bond_atom_site_label_2
_geom_bond_distance
_ccdc_geom_bond_type
C66   H48   1.110451 S    
C44   C46   1.429335 A    
C54   H16   1.111087 S    
C41   C43   1.388466 A    
C55   C56   1.526757 S    
C13   C15   1.409032 A    
C74   H66   1.107224 S    
C50   H10   1.080969 S    
O3    C2    1.294330 A    
N1    C17   1.436604 S    
C64   H41   1.111321 S    
C60   H31   1.110351 S    
C66   H46   1.111078 S    
C71   H65   1.107943 S    
O5    C3    1.297241 A    
C57   H29   1.107582 S    
C58   H26   1.111138 S    
O1    C1    1.283375 A    
C72   H61   1.106607 S    
N1    C7    1.366882 A    
C10   C12   1.418799 A    
C23   N5    1.437033 S    
C13   C51   1.525865 S    
C53   H19   1.108135 S    
C70   H57   1.111251 S    
C65   H50   1.107127 S    
C51   H14   1.108663 S    
C61   H40   1.102288 S    
C16   C57   1.526493 S    
C73   H69   1.108199 S    
C44   C73   1.530631 S    
C5    O9    1.348633 S    
C14   C28   1.417044 A    
O7    Zn1   1.970726 S    
C63   H44   1.109559 S    
C62   H38   1.111184 S    
C4    C28   1.470658 S    
C59   H35   1.104384 S    
C31   C40   1.408857 A    
C14   C16   1.407541 A    
C43   C45   1.407119 A    
C32   C39   1.411173 A    
C48   H8    1.081126 S    
C10   C63   1.525704 S    
C36   C38   1.388793 A    
N5    O13   1.301432 A    
C47   H7    1.080850 S    
C48   C49   1.413188 A    
C37   H1    1.083421 S    
C24   N6    1.432249 S    
C55   H25   1.104872 S    
O3    Zn1   1.996214 S    
C6    N2    1.368804 A    
C9    C11   1.418830 A    
C25   C38   1.398982 A    
C58   H27   1.109453 S    
C42   C69   1.524448 S    
C48   N3    1.366326 A    
C15   C17   1.409019 A    
N5    O14   1.301540 A    
C68   H53   1.107839 S    
C47   N4    1.366194 A    
O2    C2    1.280308 A    
C69   H60   1.105128 S    
C52   H13   1.110940 S    
C5    C21   1.410020 A    
C29   C32   1.416701 A    
C1    C46   1.453809 S    
C8    O11   1.350186 S    
C32   C34   1.413825 A    
C31   C33   1.413217 A    
Zn1   N3    2.005186 S    
C49   H9    1.080160 S    
C16   C18   1.410962 A    
C42   C45   1.402167 A    
C74   H68   1.111230 S    
C69   C70   1.530044 S    
C52   H12   1.108922 S    
O8    Zn2   1.970731 S    
C70   H58   1.109475 S    
C11   C27   1.419290 A    
C65   H49   1.108783 S    
C53   C54   1.528998 S    
C29   C35   1.410744 A    
C56   H23   1.110213 S    
C35   C37   1.388590 A    
N6    O15   1.300859 A    
C9    C17   1.416665 A    
C47   C50   1.413212 A    
C5    N1    1.368777 A    
C10   C18   1.418279 A    
C50   N3    1.366031 A    
C13   C27   1.423166 A    
C7    C25   1.395710 A    
O5    Zn1   1.972647 S    
O6    C4    1.292171 A    
C8    C26   1.395905 A    
C41   C67   1.526582 S    
C19   C25   1.408994 A    
C56   H22   1.108837 S    
C62   H36   1.110408 S    
C38   H2    1.083510 S    
C67   H54   1.110415 S    
C73   H70   1.098529 S    
C2    C45   1.446946 S    
N2    C8    1.366088 A    
C58   H28   1.110376 S    
C54   H17   1.108969 S    
C14   C53   1.526556 S    
C40   H6    1.079779 S    
C51   C52   1.529561 S    
O1    Zn1   2.011048 S    
C69   H59   1.112251 S    
C63   C64   1.529060 S    
C11   C61   1.521794 S    
C51   H15   1.094889 S    
C68   H52   1.110128 S    
C30   C31   1.414197 A    
C12   C28   1.419037 A    
C59   C60   1.527402 S    
N2    C18   1.436744 S    
C30   C36   1.410975 A    
C66   H47   1.108265 S    
C41   C46   1.417344 A    
O6    Zn2   1.972642 S    
C9    C65   1.526347 S    
C74   H67   1.107286 S    
C71   H64   1.111359 S    
C61   H39   1.106150 S    
C72   H63   1.104535 S    
C63   H45   1.106858 S    
C52   H11   1.111242 S    
C64   H42   1.108938 S    
C60   H32   1.111145 S    
C65   C66   1.527981 S    
C73   C74   1.535667 S    
C26   C37   1.399137 A    
C57   H30   1.105590 S    
C35   H3    1.079036 S    
C36   H4    1.079929 S    
C55   H24   1.107375 S    
C22   C24   1.415853 A    
C12   C59   1.526889 S    
C21   C23   1.414823 A    
C43   C71   1.526350 S    
C53   H20   1.103638 S    
C67   C68   1.532020 S    
C6    C22   1.411349 A    
C15   C55   1.526762 S    
C7    O12   1.350130 S    
C39   H5    1.078347 S    
C72   H62   1.104290 S    
C57   C58   1.527688 S    
C19   C21   1.412107 A    
C3    C27   1.480737 S    
C20   C22   1.415010 A    
Zn2   N4    2.005186 S    
O4    Zn2   1.996214 S    
C56   H21   1.111049 S    
O2    Zn2   2.011048 S    
O7    C4    1.291989 A    
N6    O16   1.301079 A    
C62   H37   1.109945 S    
C60   H33   1.110160 S    
O8    C3    1.291468 A    
C67   H55   1.108562 S    
C59   H34   1.105768 S    
C23   C39   1.398563 A    
O4    C1    1.294954 A    
C24   C40   1.394945 A    
C6    O10   1.348098 S    
C54   H18   1.110950 S    
C71   C72   1.531149 S    
C68   H51   1.101966 S    
C19   C34   1.412599 A    
C61   C62   1.528825 S    
C20   C26   1.409236 A    
C20   C33   1.414351 A    
C70   H56   1.106883 S    
C29   C33   1.418422 A    
C64   H43   1.110425 S    
C49   N4    1.365672 A    
C30   C34   1.416907 A    
C42   C44   1.394543 A    
