data_mof_unit_64801.cif
_audit_creation_date              2012-10-26T21:03:16-0400
_audit_creation_method            fapswitch 2.2
_symmetry_space_group_name_H-M    P1
_symmetry_Int_Tables_number       1
_space_group_crystal_system       triclinic
_cell_length_a                    14.335259
_cell_length_b                    8.744688
_cell_length_c                    7.441665
_cell_angle_alpha                 102.185234
_cell_angle_beta                  94.554795
_cell_angle_gamma                 91.182781
_cell_volume                      908.300599643

loop_
_atom_site_label
_atom_site_type_symbol
_atom_type_description
_atom_site_fract_x
_atom_site_fract_y
_atom_site_fract_z
_atom_type_partial_charge
C1    C     C_R   0.499197 0.200577 0.455565 0.578163
C2    C     C_1   0.957245 0.499929 0.498905 0.020322
C3    C     C_2   0.515816 0.038135 0.438395 0.048212
C4    C     C_2   0.484184 0.961865 0.561605 0.048212
C5    C     C_R   0.500803 0.799423 0.544435 0.578163
C6    C     C_R   0.331139 0.499890 0.501406 0.548831
C7    C     C_R   0.668861 0.500110 0.498594 0.548830
C8    C     C_1   0.228928 0.500177 0.503747 -0.005615
C9    C     C_1   0.771072 0.499823 0.496253 -0.005615
C10   C     C_1   0.143485 0.500195 0.503245 -0.015047
C11   C     C_1   0.856515 0.499804 0.496755 -0.015047
C12   C     C_1   0.042755 0.500071 0.501095 0.020322
Cu1   Cu    Cu3+1 0.509570 0.517380 0.684380 1.030253
Cu2   Cu    Cu3+1 0.490430 0.482620 0.315620 1.030253
H1    H     H_    0.425205 0.387086 0.952041 0.263197
H2    H     H_    0.574795 0.612914 0.047959 0.263197
I1    I     I_    0.613387 0.949761 0.242154 -0.310862
I2    I     I_    0.386613 0.050239 0.757846 -0.310861
N1    N     N_2   0.476020 0.456430 0.038520 -0.235862
N2    N     N_2   0.523980 0.543570 0.961480 -0.235862
O1    O     O_R   0.506220 0.286130 0.619770 -0.492292
O2    O     O_R   0.493780 0.713870 0.380230 -0.492292
O3    O     O_R   0.490060 0.256780 0.308370 -0.461545
O4    O     O_R   0.509940 0.743220 0.691630 -0.461545
O5    O     O_R   0.384130 0.514680 0.655740 -0.484485
O6    O     O_R   0.615870 0.485320 0.344260 -0.484486
O7    O     O_R   0.367980 0.485330 0.344330 -0.483269
O8    O     O_R   0.632020 0.514670 0.655670 -0.483269

loop_
_geom_bond_atom_site_label_1
_geom_bond_atom_site_label_2
_ccdc_geom_bond_type
Cu2   O3    S    
Cu1   O8    S    
C1    O1    A    
Cu2   O7    S    
N1    N2    D    
H2    N2    S    
C4    I2    S    
Cu2   O2    S    
C7    O6    A    
C2    C12   T    
Cu1   Cu2   S    
Cu2   O6    S    
H1    N1    S    
C9    C11   T    
Cu1   O5    S    
C5    O4    A    
C10   C12   S    
C2    C11   S    
C1    O3    A    
C6    O5    A    
C7    O8    A    
Cu1   O1    S    
C3    C4    D    
C8    C10   T    
C7    C9    S    
C6    C8    S    
Cu1   N2    S    
Cu2   N1    S    
C3    I1    S    
C5    O2    A    
C6    O7    A    
Cu1   O4    S    
C4    C5    S    
C1    C3    S    
