data_mof_unit_47546.cif
_audit_creation_date              2012-12-10T16:57:53-0500
_audit_creation_method            fapswitch 2.2
_symmetry_space_group_name_H-M    P1
_symmetry_Int_Tables_number       1
_space_group_crystal_system       triclinic
_cell_length_a                    10.645483
_cell_length_b                    10.952024
_cell_length_c                    9.694691
_cell_angle_alpha                 91.576131
_cell_angle_beta                  89.822859
_cell_angle_gamma                 90.32894
_cell_volume                      1129.84887945

loop_
_atom_site_label
_atom_site_type_symbol
_atom_type_description
_atom_site_fract_x
_atom_site_fract_y
_atom_site_fract_z
_atom_type_partial_charge
C1    C     C_R   0.501229 0.265684 0.497600 0.918258
C2    C     C_3   0.959629 0.469273 0.370946 -0.204996
C3    C     C_3   0.041473 0.388554 0.461729 0.437304
C4    C     C_3   0.122932 0.499216 0.501006 -0.147732
C5    C     C_2   0.524512 0.930761 0.395123 -0.184302
C6    C     C_2   0.520408 0.866969 0.511568 0.068534
C7    C     C_2   0.547887 0.062578 0.395206 0.449883
C8    C     C_2   0.490595 0.134560 0.490996 -0.340639
C9    C     C_2   0.426300 0.430503 0.920262 -0.046949
C10   C     C_2   0.428011 0.428814 0.075904 0.016673
C11   C     C_R   0.259495 0.500132 0.500285 0.866514
C12   C     C_R   0.503766 0.734830 0.502481 0.846917
C13   C     C_R   0.740575 0.498487 0.499679 0.897567
C14   C     C_3   0.040747 0.526628 0.628821 -0.262310
C15   C     C_3   0.957578 0.414291 0.588789 -0.260920
C16   C     C_3   0.877285 0.497120 0.498889 -0.135347
C17   C     C_3   0.959140 0.607434 0.538188 0.429865
C18   C     C_3   0.042708 0.581750 0.411075 -0.268539
Cu1   Cu    Cu3+1 0.500030 0.500020 0.638630 0.999772
Cu2   Cu    Cu3+1 0.499970 0.499980 0.361370 1.044310
H1    H     H_    0.920577 0.344870 0.659916 0.181897
H2    H     H_    0.426621 0.096308 0.565446 0.183057
H3    H     H_    0.360329 0.369859 0.867242 0.173246
H4    H     H_    0.562959 0.554923 0.895405 0.209426
H5    H     H_    0.365384 0.364986 0.125511 0.197953
H6    H     H_    0.556740 0.560915 0.107782 0.201642
H7    H     H_    0.075601 0.551534 0.733739 0.179672
H8    H     H_    0.079613 0.651255 0.339985 0.196805
H9    H     H_    0.924765 0.444210 0.266082 0.205048
H10   H     H_    0.515274 0.884610 0.294987 0.177288
N1    N     N_2   0.498620 0.498660 0.846910 -0.289272
N2    N     N_2   0.498590 0.498630 0.153040 -0.282427
O1    O     O_R   0.500020 0.321960 0.617040 -0.582611
O2    O     O_R   0.499980 0.321920 0.382900 -0.508045
O3    O     O_R   0.316870 0.499990 0.617050 -0.590960
O4    O     O_R   0.316830 0.499950 0.382910 -0.573531
O5    O     O_R   0.500020 0.678080 0.617100 -0.571486
O6    O     O_R   0.499980 0.678040 0.382960 -0.600336
O7    O     O_R   0.683170 0.500050 0.617090 -0.564936
O8    O     O_R   0.683130 0.500010 0.382950 -0.558266
S1    S     S_3+6 0.903829 0.755172 0.588881 0.013378
O9    O     O_2   0.821382 0.802821 0.477234 -0.256416
O10   O     O_2   0.829689 0.747224 0.720484 -0.309785
O11   O     O_3   0.026443 0.850708 0.613077 -0.474044
H11   H     H_    0.081290 0.809681 0.679699 0.332691
S2    S     S_3+6 0.101591 0.241625 0.414106 0.034719
O12   O     O_2   0.174955 0.250081 0.282089 -0.271852
O13   O     O_2   0.186577 0.198386 0.525929 -0.326816
O14   O     O_3   0.983021 0.141300 0.391117 -0.413571
H12   H     H_    0.943709 0.134572 0.483373 0.375100
N3    N     N_2   0.551924 0.923473 0.641814 -0.428495
H13   H     H_    0.640670 0.902729 0.675798 0.330149
C19   C     C_3   0.457058 0.918666 0.749164 -0.613453
H14   H     H_    0.468967 0.998862 0.820523 0.252902
H15   H     H_    0.467636 0.834707 0.809618 0.242589
H16   H     H_    0.360884 0.921399 0.704905 0.230323
S3    S     S_3+6 0.649655 0.117286 0.265236 0.043375
O15   O     O_2   0.572299 0.165310 0.149419 -0.291147
O16   O     O_2   0.732687 0.217651 0.322770 -0.294972
O17   O     O_3   0.739528 0.002042 0.204097 -0.478808
H17   H     H_    0.794726 0.039340 0.134210 0.396106

loop_
_geom_bond_atom_site_label_1
_geom_bond_atom_site_label_2
_ccdc_geom_bond_type
C8    H2    S    
H6    N2    S    
C14   H7    S    
C2    C18   S    
C1    C8    S    
Cu2   O6    S    
C9    C10   S    
C3    S2    S    
Cu1   Cu2   S    
S2    O14   S    
C4    C18   S    
Cu1   N1    S    
C19   H16   S    
C11   O3    A    
C17   C18   S    
H4    N1    S    
C18   H8    S    
C7    C8    D    
Cu1   O3    S    
C19   H14   S    
C4    C11   S    
C6    C12   S    
S1    O10   D    
C14   C17   S    
C13   O8    A    
S3    O15   D    
C16   C17   S    
Cu1   O7    S    
C2    H9    S    
C10   H5    S    
C11   O4    A    
Cu2   N2    S    
C1    O2    A    
C2    C3    S    
S2    O13   D    
C19   H15   S    
C4    C14   S    
C5    C6    D    
Cu2   O8    S    
S1    O11   S    
C17   S1    S    
S3    O16   D    
C13   O7    A    
C15   C16   S    
C9    N1    D    
C1    O1    A    
Cu2   O2    S    
Cu2   O4    S    
C12   O6    A    
C10   N2    D    
C15   H1    S    
C2    C16   S    
O11   H11   S    
O14   H12   S    
S1    O9    D    
C13   C16   S    
C12   O5    A    
C5    C7    S    
C14   C15   S    
C9    H3    S    
C3    C15   S    
Cu1   O5    S    
N3    C19   S    
S2    O12   D    
C7    S3    S    
C3    C4    S    
N3    H13   S    
C5    H10   S    
Cu1   O1    S    
O17   H17   S    
S3    O17   S    
C6    N3    S    
