data_mof_unit_46996.cif
_audit_creation_date              2013-03-05T16:31:06-0500
_audit_creation_method            fapswitch 2.2
_symmetry_space_group_name_H-M    P1
_symmetry_Int_Tables_number       1
_space_group_crystal_system       triclinic
_cell_length_a                    10.793518
_cell_length_b                    10.806139
_cell_length_c                    9.53774
_cell_angle_alpha                 89.946113
_cell_angle_beta                  89.986073
_cell_angle_gamma                 90.591644
_cell_volume                      1112.3864459

loop_
_atom_site_label
_atom_site_type_symbol
_atom_site_description
_atom_site_fract_x
_atom_site_fract_y
_atom_site_fract_z
_atom_type_partial_charge
O1    O     O_R   0.500000 0.319640 0.618810 -0.594527
O2    O     O_R   0.500010 0.319680 0.381230 -0.588085
C1    C     C_R   0.503652 0.262309 0.500100 0.768268
O3    O     O_R   0.319640 0.499980 0.618820 -0.584207
O4    O     O_R   0.319650 0.500020 0.381230 -0.579397
C2    C     C_R   0.262680 0.495507 0.500101 0.809528
Cu1   Cu    Cu3+1 0.499990 0.499980 0.640670 0.952901
Cu2   Cu    Cu3+1 0.500010 0.500020 0.359330 0.964592
O5    O     O_R   0.499990 0.680320 0.618770 -0.577476
O6    O     O_R   0.500000 0.680360 0.381190 -0.579276
O7    O     O_R   0.680350 0.499980 0.618770 -0.586472
O8    O     O_R   0.680360 0.500020 0.381180 -0.569333
C3    C     C_R   0.502461 0.737784 0.499879 0.858756
C4    C     C_R   0.737455 0.499690 0.499937 0.878050
H1    H     H_    0.120636 0.659915 0.384130 0.183508
C5    C     C_R   0.123886 0.291098 0.628808 -0.262382
H2    H     H_    0.223843 0.285443 0.630359 0.138394
C6    C     C_R   0.056087 0.194200 0.690283 0.554846
C7    C     C_R   0.927103 0.193759 0.682657 -0.198183
H3    H     H_    0.874404 0.116514 0.724938 0.151309
C8    C     C_R   0.865650 0.291974 0.619953 -0.250016
H4    H     H_    0.765847 0.285941 0.614518 0.155575
C9    C     C_R   0.932223 0.393732 0.563084 0.051109
C10   C     C_R   0.063020 0.392116 0.565450 0.037126
C11   C     C_R   0.129048 0.489787 0.500105 -0.132781
C12   C     C_R   0.067608 0.585700 0.432895 -0.248442
C13   C     C_R   0.939323 0.591374 0.434525 0.323778
C14   C     C_R   0.871391 0.495294 0.500202 -0.214211
C15   C     C_R   0.526431 0.063917 0.626080 0.013528
C16   C     C_R   0.519208 0.129512 0.500033 -0.134175
C17   C     C_R   0.531719 0.064978 0.372900 -0.182232
H5    H     H_    0.534972 0.113279 0.273364 0.172890
C18   C     C_R   0.531109 0.936040 0.372665 -0.144758
H6    H     H_    0.534543 0.888097 0.273068 0.160717
C19   C     C_R   0.517137 0.870954 0.499462 -0.046225
C20   C     C_R   0.523307 0.936227 0.625444 0.037732
C21   C     C_3   0.441774 0.927270 0.751804 -0.486393
C22   C     C_3   0.443632 0.067958 0.753548 0.335120
H7    H     H_    0.348866 0.887260 0.727671 0.187785
H8    H     H_    0.489765 0.883954 0.842244 0.206270
H9    H     H_    0.352399 0.108393 0.728252 0.143084
C23   C     C_R   0.554281 0.595190 0.073447 0.220098
N1    N     N_R   0.500790 0.500930 0.147930 -0.192534
C24   C     C_R   0.434965 0.413457 0.074531 -0.053018
H10   H     H_    0.384316 0.341973 0.130392 0.146463
C25   C     C_R   0.434553 0.413787 0.925550 -0.028732
H11   H     H_    0.383034 0.343117 0.869653 0.158807
N2    N     N_R   0.500790 0.500890 0.852020 -0.193145
C26   C     C_R   0.554438 0.595049 0.926141 0.238579
C27   C     C_3   0.686859 0.635148 0.919928 -0.490856
C28   C     C_3   0.686693 0.635485 0.079184 -0.419331
H12   H     H_    0.748232 0.563444 0.874790 0.227070
H13   H     H_    0.697965 0.729066 0.873620 0.203504
H14   H     H_    0.748173 0.564180 0.125025 0.229392
H15   H     H_    0.697412 0.729673 0.124588 0.231163
O9    O     O_3   0.491758 0.117434 0.881361 -0.582999
C29   C     C_3   0.622398 0.123574 0.887173 -0.276878
H16   H     H_    0.658230 0.195688 0.814440 0.175584
H17   H     H_    0.664977 0.032383 0.865209 0.161162
H18   H     H_    0.650212 0.151135 0.994746 0.177719
O10   O     O_3   0.116571 0.094932 0.748813 -0.598930
C30   C     C_3   0.127302 0.115692 0.894224 -0.329568
H19   H     H_    0.034619 0.119529 0.945231 0.171085
H20   H     H_    0.181503 0.201720 0.916616 0.153158
H21   H     H_    0.178141 0.037276 0.941423 0.212869
N3    N     N_R   0.880101 0.697314 0.373424 0.111138
O11   O     O_R   0.929915 0.752863 0.265827 -0.381753
O12   O     O_R   0.788349 0.750133 0.437472 -0.396338

loop_
_geom_bond_atom_site_label_1
_geom_bond_atom_site_label_2
_geom_bond_distance
_ccdc_geom_bond_type
C15   C22   1.509649 S    
C1    C16   1.446538 S    
N3    O12   1.300663 A    
C9    C10   1.412226 A    
C17   C18   1.393277 A    
C6    O10   1.379147 S    
C3    C19   1.446120 S    
C21   C22   1.520316 S    
O2    C1    1.292468 A    
O4    Cu2   1.957842 S    
C27   H12   1.111585 S    
C19   C20   1.395144 A    
Cu2   N1    2.016307 S    
Cu2   O8    1.957786 S    
C23   C28   1.490771 S    
N1    C24   1.369661 A    
C28   H14   1.111439 S    
C4    C14   1.446920 S    
Cu1   N2    2.015856 S    
C30   H19   1.113472 S    
C18   H6    1.083264 S    
C29   H16   1.109370 S    
Cu1   Cu2   2.683347 S    
C5    C10   1.414976 A    
C13   N3    1.439733 S    
O1    Cu1   1.960097 S    
C9    C14   1.417444 A    
C24   H10   1.081562 S    
Cu1   O7    1.957842 S    
C15   C20   1.379923 A    
C12   C13   1.386710 A    
C15   C16   1.397640 A    
O3    Cu1   1.957784 S    
N2    C26   1.363726 A    
O4    C2    1.290284 A    
O3    C2    1.289291 A    
C20   C21   1.494584 S    
C18   C19   1.405734 A    
C24   C25   1.420956 A    
N3    O11   1.301715 A    
C21   H8    1.111733 S    
C28   H15   1.111432 S    
C8    C9    1.414933 A    
O10   C30   1.409725 S    
Cu2   O6    1.960097 S    
O7    C4    1.290044 A    
C25   N2    1.368767 A    
C29   H17   1.111693 S    
C27   H13   1.111789 S    
C7    C8    1.391962 A    
C23   N1    1.364487 A    
C23   C26   1.404971 A    
C2    C11   1.443047 S    
Cu1   O5    1.959746 S    
C29   H18   1.109223 S    
C22   O9    1.427428 S    
C10   C11   1.411847 A    
C17   H5    1.083319 S    
C22   H9    1.107975 S    
C21   H7    1.112156 S    
C26   C27   1.490391 S    
C25   H11   1.081093 S    
C13   C14   1.410963 A    
O9    C29   1.412041 S    
O5    C3    1.292466 A    
C16   C17   1.406525 A    
C6    C7    1.394071 A    
H1    C12   1.084794 S    
C30   H20   1.114121 S    
C30   H21   1.109421 S    
C27   C28   1.518945 S    
C11   C12   1.392151 A    
C8    H4    1.079785 S    
C5    C6    1.399470 A    
O2    Cu2   1.959747 S    
C7    H3    1.082758 S    
O8    C4    1.289614 A    
C5    H2    1.081348 S    
O1    C1    1.291937 A    
O6    C3    1.291601 A    
