data_mof_unit_55032.cif
_audit_creation_date              2012-12-10T17:23:41-0500
_audit_creation_method            fapswitch 2.2
_symmetry_space_group_name_H-M    P1
_symmetry_Int_Tables_number       1
_space_group_crystal_system       triclinic
_cell_length_a                    9.582052
_cell_length_b                    10.85536
_cell_length_c                    17.372598
_cell_angle_alpha                 92.70556
_cell_angle_beta                  85.581893
_cell_angle_gamma                 89.420446
_cell_volume                      1799.48941709

loop_
_atom_site_label
_atom_site_type_symbol
_atom_type_description
_atom_site_fract_x
_atom_site_fract_y
_atom_site_fract_z
_atom_type_partial_charge
C1    C     C_R   0.498463 0.737697 0.496259 0.819016
C2    C     C_R   0.342283 0.473342 0.778437 -0.028092
C3    C     C_R   0.420651 0.446977 0.146639 -0.129185
C4    C     C_R   0.411317 0.457520 0.226682 -0.190888
C5    C     C_R   0.659697 0.500479 0.223902 -0.181283
C6    C     C_R   0.668721 0.490944 0.143477 -0.152102
C7    C     C_R   0.548636 0.467321 0.104460 0.185106
C8    C     C_2   0.450838 0.502076 0.981090 -0.209230
C9    C     C_2   0.558815 0.466462 0.019808 -0.218039
C10   C     C_R   0.530198 0.486105 0.265865 -0.025666
C11   C     C_R   0.229406 0.890187 0.493102 -0.173501
C12   C     C_R   0.480875 0.499142 0.649964 0.802182
C13   C     C_R   0.106665 0.955180 0.518126 -0.199205
C14   C     C_R   0.114076 0.071473 0.554560 0.038236
C15   C     C_R   0.244031 0.126798 0.559248 -0.184847
C16   C     C_R   0.368139 0.067084 0.526034 0.076423
C17   C     C_R   0.363151 0.940836 0.503909 0.104440
C18   C     C_R   0.492175 0.872494 0.493427 -0.114908
C19   C     C_R   0.619345 0.935200 0.488828 -0.180562
C20   C     C_R   0.620911 0.062412 0.494733 -0.178195
C21   C     C_R   0.496417 0.129583 0.512552 -0.099910
C22   C     C_R   0.871211 0.332445 0.399586 -0.218005
C23   C     C_R   0.499258 0.263188 0.505859 0.785480
C24   C     C_R   0.950009 0.246518 0.352089 -0.076420
C25   C     C_R   0.095158 0.246081 0.352093 -0.070838
C26   C     C_R   0.159435 0.331720 0.399490 -0.215439
C27   C     C_R   0.082313 0.417169 0.450654 0.197586
C28   C     C_R   0.932861 0.417329 0.450670 0.188644
C29   C     C_R   0.919646 0.579039 0.547073 0.056190
C30   C     C_R   0.067529 0.578575 0.546854 -0.087282
C31   C     C_R   0.518861 0.496844 0.350215 0.775764
C32   C     C_R   0.469252 0.499098 0.734914 -0.088247
C33   C     C_R   0.589171 0.526516 0.773832 -0.176271
C34   C     C_R   0.584234 0.528523 0.853829 -0.138632
C35   C     C_R   0.459238 0.502162 0.896645 0.168445
C36   C     C_R   0.338565 0.476501 0.858905 -0.195518
Cu1   Cu    Cu3+1 0.359340 0.500010 0.500010 0.939687
Cu2   Cu    Cu3+1 0.640660 0.499990 0.499990 0.963045
H1    H     H_    0.687477 0.547520 0.742525 0.178968
H2    H     H_    0.768601 0.505016 0.111674 0.128266
H3    H     H_    0.718504 0.885939 0.478979 0.162769
H4    H     H_    0.215625 0.803684 0.461829 0.177285
H5    H     H_    0.006073 0.913737 0.509985 0.136465
H6    H     H_    0.246789 0.215859 0.589749 0.173622
H7    H     H_    0.720223 0.108106 0.484954 0.175050
H8    H     H_    0.761942 0.329218 0.393996 0.209383
H9    H     H_    0.311006 0.442587 0.257744 0.153667
H10   H     H_    0.270305 0.327765 0.393471 0.209480
H11   H     H_    0.118369 0.642657 0.584989 0.147721
H12   H     H_    0.753346 0.520667 0.253058 0.156672
H13   H     H_    0.658460 0.439923 0.989189 0.150326
H14   H     H_    0.241874 0.456346 0.892402 0.130620
H15   H     H_    0.327571 0.422563 0.118167 0.128755
H16   H     H_    0.351448 0.529389 0.011661 0.147957
H17   H     H_    0.677843 0.552608 0.881934 0.134915
N1    N     N_R   0.852190 0.498790 0.499250 -0.213524
N2    N     N_R   0.148060 0.498710 0.499220 -0.200907
O1    O     O_R   0.381190 0.680360 0.500010 -0.597626
O2    O     O_R   0.618760 0.680340 0.500000 -0.575182
O3    O     O_R   0.367440 0.500030 0.613600 -0.577109
O4    O     O_R   0.605010 0.500010 0.613590 -0.567194
O5    O     O_R   0.381240 0.319660 0.500000 -0.610457
O6    O     O_R   0.618810 0.319640 0.499990 -0.590948
O7    O     O_R   0.394990 0.499990 0.386410 -0.604680
O8    O     O_R   0.632560 0.499970 0.386400 -0.607329
C37   C     C_1   0.988170 0.136794 0.584123 0.231894
N3    N     N_1   0.887244 0.189616 0.607884 -0.259457
C38   C     C_1   0.841702 0.666751 0.598609 0.280853
N4    N     N_1   0.779934 0.737886 0.640158 -0.299449
C39   C     C_1   0.879020 0.160102 0.303166 0.239151
N5    N     N_1   0.822011 0.090978 0.264111 -0.267099
C40   C     C_1   0.181128 0.159087 0.303226 0.246568
N6    N     N_1   0.250111 0.089512 0.264219 -0.267076
C41   C     C_1   0.215185 0.440077 0.743234 0.250648
N7    N     N_1   0.113274 0.413323 0.715235 -0.280979

loop_
_geom_bond_atom_site_label_1
_geom_bond_atom_site_label_2
_ccdc_geom_bond_type
C16   C21   A    
C3    H15   S    
C19   C20   A    
C9    H13   S    
Cu1   O5    S    
C28   N1    A    
C24   C39   S    
C26   C27   A    
C33   H1    S    
Cu1   Cu2   S    
C15   H6    S    
C18   C19   A    
C3    C7    A    
C1    O2    A    
C5    C6    A    
C15   C16   A    
C30   N2    A    
C11   H4    S    
C2    C32   A    
C34   C35   A    
C38   N4    T    
C10   C31   S    
C23   O5    A    
C35   C36   A    
C16   C17   A    
C39   N5    T    
Cu1   O1    S    
C2    C41   S    
C26   H10   S    
Cu2   O4    S    
C23   O6    A    
C37   N3    T    
C34   H17   S    
C22   C28   A    
C13   C14   A    
C12   C32   S    
C33   C34   A    
C14   C37   S    
C41   N7    T    
C24   C25   A    
C27   N2    A    
C8    H16   S    
C31   O8    A    
C8    C9    D    
C25   C26   A    
C8    C35   S    
C29   C30   A    
C29   C38   S    
Cu2   O8    S    
C17   C18   A    
C1    C18   S    
C25   C40   S    
C22   H8    S    
C30   H11   S    
C21   C23   S    
C22   C24   A    
C5    H12   S    
C4    C10   A    
C3    C4    A    
C13   H5    S    
Cu1   O7    S    
Cu2   O6    S    
C2    C36   A    
C7    C9    S    
C11   C17   A    
C31   O7    A    
C20   H7    S    
C40   N6    T    
C36   H14   S    
C6    C7    A    
C29   N1    A    
C32   C33   A    
C5    C10   A    
C1    O1    A    
C12   O4    A    
C11   C13   A    
C6    H2    S    
Cu1   O3    S    
Cu2   O2    S    
C12   O3    A    
Cu2   N1    S    
C20   C21   A    
C27   C28   A    
C14   C15   A    
Cu1   N2    S    
C19   H3    S    
C4    H9    S    
