data_mof_unit_21666.cif
_audit_creation_date              2012-12-10T20:48:45-0500
_audit_creation_method            fapswitch 2.2
_symmetry_space_group_name_H-M    P1
_symmetry_Int_Tables_number       1
_space_group_crystal_system       triclinic
_cell_length_a                    15.743456
_cell_length_b                    8.927214
_cell_length_c                    8.101599
_cell_angle_alpha                 90.042146
_cell_angle_beta                  89.93177
_cell_angle_gamma                 89.880169
_cell_volume                      1138.63725057

loop_
_atom_site_label
_atom_site_type_symbol
_atom_type_description
_atom_site_fract_x
_atom_site_fract_y
_atom_site_fract_z
_atom_type_partial_charge
C1    C     C_R   0.500006 0.217961 0.499961 0.932793
C2    C     C_1   0.825891 0.523672 0.495678 -0.127785
C3    C     C_1   0.174109 0.524796 0.496946 -0.095563
C4    C     C_R   0.337720 0.500423 0.500057 0.903353
C5    C     C_R   0.662291 0.499822 0.499847 0.903601
C6    C     C_1   0.499971 0.934786 0.500052 -0.197150
C7    C     C_1   0.499984 0.065179 0.499942 -0.196446
C8    C     C_R   0.499969 0.782010 0.500038 0.932765
C9    C     C_3   0.047689 0.483443 0.661684 -0.466985
C10   C     C_3   0.048151 0.425354 0.362367 -0.443786
C11   C     C_3   0.951337 0.508335 0.667433 -0.447977
C12   C     C_3   0.951721 0.409522 0.380891 -0.449003
C13   C     C_1   0.750949 0.510834 0.498853 -0.188420
C14   C     C_1   0.249074 0.512096 0.499653 -0.188375
C15   C     C_3   0.082698 0.539231 0.491971 0.270186
C16   C     C_3   0.917455 0.539475 0.490204 0.217927
C17   C     C_3   0.948385 0.700902 0.420150 0.273142
C18   C     C_3   0.051972 0.709108 0.455741 0.294415
H1    H     H_    0.921381 0.405710 0.719655 0.193944
H2    H     H_    0.937581 0.300329 0.440783 0.203467
H3    H     H_    0.061157 0.361475 0.675912 0.198582
H4    H     H_    0.077695 0.313086 0.381003 0.178311
H5    H     H_    0.063125 0.456192 0.234114 0.188812
H6    H     H_    0.077986 0.536141 0.770735 0.167210
H7    H     H_    0.920504 0.403501 0.258100 0.165929
H8    H     H_    0.935382 0.599579 0.754785 0.158868
N1    N     N_1   0.500000 0.500030 0.073640 -0.032898
N2    N     N_1   0.500000 0.500030 0.926360 -0.032876
O1    O     O_R   0.500000 0.285340 0.636850 -0.615551
O2    O     O_R   0.500000 0.285340 0.363150 -0.615949
O3    O     O_R   0.377140 0.500000 0.636930 -0.615889
O4    O     O_R   0.377140 0.500000 0.363070 -0.615831
O5    O     O_R   0.622860 0.500000 0.636930 -0.614819
O6    O     O_R   0.622860 0.500000 0.363070 -0.617502
O7    O     O_R   0.500000 0.714650 0.636900 -0.615461
O8    O     O_R   0.500000 0.714650 0.363100 -0.615389
Zn1   Zn    Zn3+2 0.500000 0.499990 0.682780 0.987490
Zn2   Zn    Zn3+2 0.500000 0.499990 0.317220 0.986235
C19   C     C_3   0.073572 0.803243 0.620565 -0.384601
C20   C     C_3   0.107814 0.965419 0.609848 -0.939015
H9    H     H_    0.177692 0.965007 0.590325 0.250691
H10   H     H_    0.079601 0.033923 0.511248 0.257413
H11   H     H_    0.096032 0.023550 0.728995 0.254360
H12   H     H_    0.020455 0.801979 0.709501 0.206373
H13   H     H_    0.125896 0.747521 0.688441 0.203842
C21   C     C_3   0.107912 0.784861 0.314139 -0.306838
C22   C     C_3   0.132667 0.704994 0.152795 -0.955445
H14   H     H_    0.170107 0.602010 0.175612 0.269346
H15   H     H_    0.079285 0.683373 0.068768 0.257589
H16   H     H_    0.175561 0.780367 0.082505 0.254200
H17   H     H_    0.081805 0.895586 0.282195 0.201836
H18   H     H_    0.171196 0.809766 0.367926 0.218986
C23   C     C_3   0.891474 0.824285 0.509432 -0.317155
C24   C     C_3   0.913603 0.990224 0.488513 -0.888563
H19   H     H_    0.939857 0.035912 0.605078 0.259901
H20   H     H_    0.958243 0.010590 0.386289 0.268688
H21   H     H_    0.854979 0.055641 0.462647 0.235857
H22   H     H_    0.825238 0.812645 0.463556 0.202361
H23   H     H_    0.885014 0.802628 0.643279 0.167000
C25   C     C_3   0.921973 0.701860 0.229857 -0.340111
C26   C     C_3   0.915267 0.848704 0.132153 -0.892772
H24   H     H_    0.864092 0.921467 0.181632 0.273410
H25   H     H_    0.975507 0.910580 0.123927 0.258087
H26   H     H_    0.897100 0.821466 0.003099 0.231762
H27   H     H_    0.960782 0.623676 0.157519 0.193606
H28   H     H_    0.857109 0.654101 0.219055 0.195824

loop_
_geom_bond_atom_site_label_1
_geom_bond_atom_site_label_2
_ccdc_geom_bond_type
C26   H26   S    
C23   H22   S    
C9    H6    S    
C19   H12   S    
O4    Zn2   S    
C10   H5    S    
C15   C18   S    
C2    C16   S    
C11   C16   S    
C5    C13   S    
C22   H14   S    
C12   H7    S    
C19   H13   S    
C11   H1    S    
C5    O6    A    
C12   H2    S    
O8    Zn2   S    
C17   C18   S    
C23   H23   S    
C25   H28   S    
C22   H15   S    
C4    O4    A    
C23   C24   S    
C10   H4    S    
C21   H18   S    
C9    C11   S    
C9    H3    S    
C1    O1    A    
C6    C7    T    
C3    C14   T    
C10   C12   S    
N2    Zn1   S    
C18   C21   S    
C21   C22   S    
C20   H10   S    
C1    O2    A    
O7    Zn1   S    
C25   H27   S    
C22   H16   S    
C10   C15   S    
C4    C14   S    
C26   H24   S    
C24   H20   S    
C4    O3    A    
C16   C17   S    
N1    Zn2   S    
C17   C23   S    
C19   C20   S    
C2    C13   T    
C3    C15   S    
O2    Zn2   S    
C8    O8    A    
O1    Zn1   S    
N1    N2    T    
C26   H25   S    
C18   C19   S    
C24   H19   S    
C20   H9    S    
C6    C8    S    
C17   C25   S    
C11   H8    S    
C1    C7    S    
O6    Zn2   S    
C21   H17   S    
C8    O7    A    
C20   H11   S    
O5    Zn1   S    
C12   C16   S    
C9    C15   S    
O3    Zn1   S    
C25   C26   S    
C24   H21   S    
C5    O5    A    
