data_mof_unit_63860.cif
_audit_creation_date              2012-12-10T20:10:41-0500
_audit_creation_method            fapswitch 2.2
_symmetry_space_group_name_H-M    P1
_symmetry_Int_Tables_number       1
_space_group_crystal_system       triclinic
_cell_length_a                    15.909968
_cell_length_b                    15.910036
_cell_length_c                    43.034849
_cell_angle_alpha                 90.000346
_cell_angle_beta                  90.000242
_cell_angle_gamma                 90.030254
_cell_volume                      10893.3307809

loop_
_atom_site_label
_atom_site_type_symbol
_atom_type_description
_atom_site_fract_x
_atom_site_fract_y
_atom_site_fract_z
_atom_type_partial_charge
C1    C     C_R   0.499999 0.999991 0.131558 0.064345
C2    C     C_R   0.500001 1.000000 0.665756 0.490230
C3    C     C_3   0.681375 0.122625 0.867687 -0.412191
C4    C     C_3   0.863213 0.413335 0.131039 -0.268654
C5    C     C_3   0.877454 0.318564 0.132310 -0.412170
C6    C     C_3   0.136718 0.586809 0.868957 -0.268637
C7    C     C_3   0.122347 0.681562 0.867681 -0.412104
C8    C     C_3   0.586628 0.136806 0.131039 -0.268659
C9    C     C_3   0.681403 0.122590 0.132310 -0.412184
C10   C     C_3   0.413401 0.863153 0.868954 -0.268654
C11   C     C_3   0.318622 0.877344 0.867691 -0.412200
C12   C     C_3   0.136803 0.586663 0.131045 -0.268655
C13   C     C_R   1.000000 0.499999 0.334246 0.490205
C14   C     C_3   0.122558 0.681434 0.132311 -0.412175
C15   C     C_3   0.863274 0.413226 0.868962 -0.268625
C16   C     C_3   0.877579 0.318461 0.867690 -0.412128
C17   C     C_3   0.911827 0.364133 0.631011 -0.268526
C18   C     C_3   0.817223 0.379455 0.632309 -0.411754
C19   C     C_3   0.087130 0.636506 0.368963 -0.268598
C20   C     C_3   0.181856 0.621978 0.367693 -0.412084
C21   C     C_3   0.362873 0.913883 0.631053 -0.268662
C22   C     C_3   0.376712 0.819053 0.632312 -0.412386
C23   C     C_3   0.636378 0.087348 0.368972 -0.268585
C24   C     C_R   1.000000 0.500001 0.665751 0.490191
C25   C     C_3   0.621610 0.182037 0.367680 -0.412014
C26   C     C_3   0.088153 0.635892 0.631016 -0.268510
C27   C     C_3   0.182763 0.620593 0.632316 -0.411729
C28   C     C_3   0.912845 0.363513 0.368966 -0.268593
C29   C     C_3   0.818123 0.378070 0.367696 -0.412077
C30   C     C_3   0.637136 0.086114 0.631055 -0.268650
C31   C     C_3   0.623308 0.180947 0.632315 -0.412379
C32   C     C_3   0.363618 0.912687 0.368974 -0.268589
C33   C     C_3   0.378333 0.817991 0.367686 -0.412028
C34   C     C_R   0.000002 0.500000 0.834246 0.490209
C35   C     C_R   0.000002 0.500000 0.165755 0.490214
C36   C     C_R   0.500000 0.999997 0.834245 0.490217
C37   C     C_R   0.500000 1.000000 0.165755 0.490212
C38   C     C_R   0.339895 0.160106 0.250000 0.509308
C39   C     C_R   0.660106 0.839895 0.750000 0.509286
C40   C     C_R   0.839901 0.339901 0.250000 0.504885
C41   C     C_R   0.500001 0.999990 0.868442 0.064361
C42   C     C_R   0.160099 0.660099 0.750000 0.504872
C43   C     C_R   0.660105 0.839895 0.250000 0.509306
C44   C     C_R   0.339895 0.160105 0.750000 0.509285
C45   C     C_R   0.160099 0.660099 0.250000 0.504883
C46   C     C_R   0.839901 0.339901 0.750000 0.504876
C47   C     C_R   0.339901 0.839901 0.750000 0.504892
C48   C     C_R   0.660099 0.160099 0.250000 0.504885
C49   C     C_R   0.839894 0.660105 0.750000 0.509323
C50   C     C_R   0.160106 0.339895 0.250000 0.509305
C51   C     C_R   0.660099 0.160099 0.750000 0.504894
C52   C     C_R   0.000009 0.499998 0.131558 0.064351
C53   C     C_R   0.339901 0.839901 0.250000 0.504882
C54   C     C_R   0.160105 0.339895 0.750000 0.509322
C55   C     C_R   0.839894 0.660105 0.250000 0.509303
C56   C     C_1   0.276643 0.776643 0.250000 -0.031378
C57   C     C_1   0.723357 0.223357 0.750000 -0.031367
C58   C     C_1   0.223362 0.276639 0.250000 -0.023462
C59   C     C_1   0.776639 0.723361 0.750000 -0.023466
C60   C     C_1   0.723356 0.223357 0.250000 -0.031376
C61   C     C_1   0.276643 0.776643 0.750000 -0.031370
C62   C     C_1   0.776638 0.723361 0.250000 -0.023460
C63   C     C_R   0.000008 0.500001 0.868443 0.064306
C64   C     C_1   0.223361 0.276639 0.750000 -0.023463
C65   C     C_1   0.276639 0.223361 0.750000 -0.023456
C66   C     C_1   0.723361 0.776639 0.250000 -0.023461
C67   C     C_1   0.223357 0.723356 0.750000 -0.031386
C68   C     C_1   0.776643 0.276643 0.250000 -0.031373
C69   C     C_1   0.723361 0.776639 0.750000 -0.023459
C70   C     C_1   0.276639 0.223361 0.250000 -0.023463
C71   C     C_1   0.776643 0.276644 0.750000 -0.031380
C72   C     C_1   0.223357 0.723356 0.250000 -0.031374
C73   C     C_R   0.457308 0.935767 0.114998 -0.005023
C74   C     C_R   0.999999 0.500006 0.631549 0.064038
C75   C     C_R   0.542681 0.064212 0.885005 -0.005013
C76   C     C_R   0.935806 0.457285 0.114995 -0.005013
C77   C     C_R   0.064183 0.542767 0.885004 -0.005033
C78   C     C_R   0.542695 0.064203 0.114995 -0.005013
C79   C     C_R   0.457323 0.935758 0.885002 -0.005010
C80   C     C_R   0.064219 0.542706 0.114998 -0.005012
C81   C     C_R   0.935842 0.457230 0.885006 -0.005012
C82   C     C_R   0.956577 0.436269 0.614982 -0.005050
C83   C     C_R   0.042955 0.564047 0.385004 -0.005015
C84   C     C_R   0.435631 0.957541 0.615003 -0.005001
C85   C     C_R   1.000000 0.500002 0.368442 0.064263
C86   C     C_R   0.564003 0.043025 0.385012 -0.005050
C87   C     C_R   0.043420 0.563748 0.614984 -0.005047
C88   C     C_R   0.957043 0.435963 0.385005 -0.005023
C89   C     C_R   0.564374 0.042461 0.615004 -0.005001
C90   C     C_R   0.436010 0.956980 0.385012 -0.005027
C91   C     C_R   0.457466 0.937041 0.082441 -0.112344
C92   C     C_R   0.542533 0.062919 0.917562 -0.112352
C93   C     C_R   0.937100 0.457432 0.082438 -0.112353
C94   C     C_R   0.062911 0.542603 0.917560 -0.112346
C95   C     C_R   0.542546 0.062909 0.082438 -0.112353
C96   C     C_R   0.500002 0.999999 0.631563 0.064458
C97   C     C_R   0.457481 0.937033 0.917558 -0.112356
C98   C     C_R   0.062943 0.542547 0.082441 -0.112359
C99   C     C_R   0.937140 0.457376 0.917562 -0.112354
C100  C     C_R   0.956737 0.437571 0.582426 -0.112394
C101  C     C_R   0.042820 0.562750 0.417560 -0.112376
C102  C     C_R   0.436915 0.957686 0.582447 -0.112355
C103  C     C_R   0.562717 0.042864 0.417569 -0.112383
C104  C     C_R   0.043266 0.562452 0.582429 -0.112388
C105  C     C_R   0.957186 0.437264 0.417561 -0.112379
C106  C     C_R   0.563087 0.042319 0.582448 -0.112354
C107  C     C_R   0.500006 0.000002 0.368448 0.064212
C108  C     C_R   0.437299 0.957135 0.417569 -0.112384
C109  C     C_R   0.500009 0.999970 0.065954 0.000699
C110  C     C_R   0.500009 0.999972 0.934046 0.000700
C111  C     C_R   0.000026 0.499986 0.065954 0.000701
C112  C     C_R   0.000031 0.499984 0.934047 0.000700
C113  C     C_R   0.000003 0.500012 0.565944 0.000714
C114  C     C_R   0.000006 0.500008 0.434044 0.000706
C115  C     C_R   0.500000 0.000003 0.565962 0.000694
C116  C     C_R   0.500009 0.999997 0.434054 0.000697
C117  C     C_R   0.000007 0.500011 0.468419 0.346318
C118  C     C_R   0.500003 0.000001 0.334247 0.490210
C119  C     C_R   0.000005 0.500013 0.531569 0.346318
C120  C     C_R   0.500007 0.999997 0.468432 0.346326
C121  C     C_R   0.500001 0.000002 0.531584 0.346328
C122  C     C_R   0.500013 0.999965 0.968423 0.346332
C123  C     C_R   0.500013 0.999963 0.031577 0.346332
C124  C     C_R   0.000037 0.499980 0.968424 0.346332
C125  C     C_R   0.000034 0.499981 0.031577 0.346333
C126  C     C_3   0.413367 0.863175 0.131047 -0.268650
C127  C     C_3   0.318593 0.877408 0.132319 -0.412158
C128  C     C_3   0.586598 0.136825 0.868961 -0.268654
H1    H     H_    0.424693 0.887737 0.069984 0.139197
H2    H     H_    0.075778 0.611928 0.430018 0.139180
H3    H     H_    0.387489 0.925099 0.569988 0.139194
H4    H     H_    0.611837 0.075906 0.430028 0.139190
H5    H     H_    0.076590 0.611385 0.569970 0.139179
H6    H     H_    0.924226 0.388091 0.430021 0.139182
H7    H     H_    0.612513 0.074906 0.569990 0.139197
H8    H     H_    0.388176 0.924099 0.430028 0.139193
H9    H     H_    0.288297 0.824504 0.144864 0.133112
H10   H     H_    0.304063 0.936741 0.144796 0.188452
H11   H     H_    0.292115 0.880630 0.108467 0.147397
H12   H     H_    0.575298 0.112225 0.930021 0.139198
H13   H     H_    0.426282 0.803847 0.118253 0.134314
H14   H     H_    0.437492 0.853029 0.154945 0.153855
H15   H     H_    0.695930 0.063365 0.855167 0.188466
H16   H     H_    0.711665 0.175603 0.855183 0.133068
H17   H     H_    0.707842 0.119280 0.891539 0.147437
H18   H     H_    0.562471 0.146979 0.845064 0.153844
H19   H     H_    0.573667 0.196138 0.881761 0.134331
H20   H     H_    0.936722 0.304032 0.144829 0.188466
H21   H     H_    0.824490 0.288248 0.144814 0.133074
H22   H     H_    0.880807 0.292103 0.108457 0.147437
H23   H     H_    0.887809 0.424644 0.069979 0.139198
H24   H     H_    0.853048 0.437453 0.154936 0.153864
H25   H     H_    0.803893 0.426242 0.118239 0.134320
H26   H     H_    0.175200 0.711926 0.855129 0.133134
H27   H     H_    0.062984 0.696003 0.855209 0.188467
H28   H     H_    0.119104 0.708045 0.891532 0.147378
H29   H     H_    0.196059 0.573988 0.881756 0.134287
H30   H     H_    0.146912 0.562689 0.845062 0.153894
H31   H     H_    0.711706 0.175564 0.144812 0.133070
H32   H     H_    0.695950 0.063330 0.144830 0.188465
H33   H     H_    0.707861 0.119238 0.108456 0.147441
H34   H     H_    0.112175 0.575436 0.930018 0.139195
H35   H     H_    0.573704 0.196122 0.118240 0.134327
H36   H     H_    0.562510 0.146964 0.154937 0.153854
H37   H     H_    0.304052 0.936604 0.855173 0.188448
H38   H     H_    0.288324 0.824363 0.855191 0.133071
H39   H     H_    0.292174 0.880685 0.891547 0.147443
H40   H     H_    0.437510 0.853018 0.845054 0.153852
H41   H     H_    0.426349 0.803832 0.881747 0.134330
H42   H     H_    0.063297 0.695967 0.144832 0.188464
H43   H     H_    0.175528 0.711760 0.144808 0.133073
H44   H     H_    0.119190 0.707882 0.108456 0.147445
H45   H     H_    0.575323 0.112206 0.069979 0.139200
H46   H     H_    0.146959 0.562554 0.154943 0.153866
H47   H     H_    0.196129 0.573753 0.118249 0.134320
H48   H     H_    0.824639 0.288109 0.855183 0.133079
H49   H     H_    0.936863 0.303970 0.855175 0.188460
H50   H     H_    0.880941 0.291998 0.891542 0.147417
H51   H     H_    0.803944 0.426093 0.881762 0.134297
H52   H     H_    0.853087 0.437341 0.845066 0.153884
H53   H     H_    0.786309 0.326809 0.644797 0.133175
H54   H     H_    0.803385 0.438848 0.644853 0.188567
H55   H     H_    0.790773 0.383184 0.608463 0.147384
H56   H     H_    0.424721 0.887720 0.930015 0.139194
H57   H     H_    0.924021 0.304703 0.618184 0.134070
H58   H     H_    0.935893 0.353603 0.654893 0.154221
H59   H     H_    0.196209 0.562679 0.355168 0.188461
H60   H     H_    0.212335 0.674862 0.355198 0.133097
H61   H     H_    0.208298 0.618524 0.391548 0.147438
H62   H     H_    0.063044 0.646764 0.345067 0.153996
H63   H     H_    0.074404 0.695857 0.381767 0.134234
H64   H     H_    0.435904 0.804263 0.644838 0.188398
H65   H     H_    0.323603 0.788953 0.644803 0.133027
H66   H     H_    0.379976 0.792600 0.608456 0.147477
H67   H     H_    0.112239 0.575332 0.069984 0.139195
H68   H     H_    0.352845 0.938016 0.654956 0.153743
H69   H     H_    0.303595 0.927056 0.618264 0.134401
H70   H     H_    0.674399 0.212642 0.355171 0.133141
H71   H     H_    0.562261 0.196217 0.355159 0.188518
H72   H     H_    0.618104 0.208502 0.391528 0.147379
H73   H     H_    0.695748 0.074797 0.381789 0.134229
H74   H     H_    0.646722 0.063233 0.345085 0.154015
H75   H     H_    0.213653 0.673214 0.644827 0.133193
H76   H     H_    0.196613 0.561165 0.644836 0.188552
H77   H     H_    0.209235 0.616943 0.608471 0.147345
H78   H     H_    0.887878 0.424544 0.930021 0.139202
H79   H     H_    0.075947 0.695325 0.618192 0.134063
H80   H     H_    0.064081 0.646411 0.654898 0.154210
H81   H     H_    0.803786 0.437355 0.355158 0.188465
H82   H     H_    0.787619 0.325179 0.355212 0.133089
H83   H     H_    0.791688 0.381572 0.391550 0.147451
H84   H     H_    0.936928 0.353240 0.345071 0.153997
H85   H     H_    0.925552 0.304162 0.381773 0.134232
H86   H     H_    0.564114 0.195745 0.644839 0.188390
H87   H     H_    0.676417 0.211044 0.644808 0.133023
H88   H     H_    0.620050 0.207401 0.608458 0.147473
H89   H     H_    0.923410 0.388641 0.569965 0.139180
H90   H     H_    0.647160 0.061980 0.654959 0.153738
H91   H     H_    0.696416 0.072933 0.618268 0.134398
H92   H     H_    0.325495 0.787418 0.355194 0.133119
H93   H     H_    0.437646 0.803767 0.355149 0.188511
H94   H     H_    0.381870 0.791528 0.391535 0.147388
H95   H     H_    0.304254 0.925275 0.381789 0.134234
H96   H     H_    0.353286 0.936791 0.345085 0.154019
N1    N     N_R   0.541835 0.060264 0.015461 -0.232131
N2    N     N_R   0.956942 0.440589 0.484533 -0.232138
N3    N     N_R   0.560248 0.041902 0.515469 -0.232132
N4    N     N_R   0.439761 0.958094 0.484547 -0.232142
N5    N     N_R   0.956939 0.440592 0.515454 -0.232148
N6    N     N_R   0.043071 0.559434 0.484533 -0.232134
N7    N     N_R   0.439757 0.958098 0.515468 -0.232130
N8    N     N_R   0.560250 0.041902 0.484548 -0.232139
N9    N     N_R   0.458191 0.939662 0.984539 -0.232124
N10   N     N_R   0.060303 0.541852 0.015462 -0.232126
N11   N     N_R   0.939770 0.458108 0.984539 -0.232132
N12   N     N_R   0.458191 0.939661 0.015461 -0.232123
N13   N     N_R   0.541835 0.060265 0.984540 -0.232129
N14   N     N_R   0.939768 0.458108 0.015461 -0.232130
N15   N     N_R   0.060304 0.541852 0.984540 -0.232125
N16   N     N_R   0.043072 0.559434 0.515454 -0.232143
O1    O     O_3   0.500000 0.000000 0.250000 -0.434294
O2    O     O_R   0.500000 0.930740 0.680620 -0.546597
O3    O     O_R   0.930740 0.500000 0.319380 -0.546676
O4    O     O_R   0.069260 0.500000 0.680620 -0.546743
O5    O     O_R   0.000000 0.430740 0.819380 -0.546631
O6    O     O_R   1.000000 0.569260 0.180620 -0.546634
O7    O     O_R   0.569260 0.000000 0.819380 -0.546631
O8    O     O_R   0.430740 0.000000 0.180620 -0.546626
O9    O     O_R   1.000000 0.569260 0.819380 -0.546645
O10   O     O_R   0.000000 0.430740 0.180620 -0.546634
O11   O     O_R   0.430740 0.000000 0.819380 -0.546624
O12   O     O_3   0.500000 0.000000 0.750000 -0.434340
O13   O     O_R   0.569260 0.000000 0.180620 -0.546630
O14   O     O_R   0.402540 0.166630 0.268230 -0.534290
O15   O     O_R   0.597460 0.833370 0.731770 -0.534266
O16   O     O_R   0.833370 0.402540 0.268230 -0.538422
O17   O     O_R   0.166630 0.597460 0.731770 -0.538443
O18   O     O_R   0.597460 0.833370 0.268230 -0.534289
O19   O     O_R   0.402540 0.166630 0.731770 -0.534265
O20   O     O_R   0.166630 0.597460 0.268230 -0.538420
O21   O     O_R   0.833370 0.402540 0.731770 -0.538448
O22   O     O_R   0.402540 0.833370 0.731770 -0.538391
O23   O     O_3   0.000000 0.500000 0.250000 -0.434304
O24   O     O_R   0.597460 0.166630 0.268230 -0.538426
O25   O     O_R   0.833370 0.597460 0.731770 -0.534299
O26   O     O_R   0.166630 0.402540 0.268230 -0.534282
O27   O     O_R   0.597460 0.166630 0.731770 -0.538389
O28   O     O_R   0.402540 0.833370 0.268230 -0.538426
O29   O     O_R   0.166630 0.402540 0.731770 -0.534297
O30   O     O_R   0.833370 0.597460 0.268230 -0.534284
O31   O     O_R   0.902540 0.666630 0.768230 -0.534248
O32   O     O_R   0.097460 0.333370 0.231770 -0.534252
O33   O     O_R   0.333370 0.902540 0.768230 -0.538392
O34   O     O_3   0.000000 0.500000 0.750000 -0.434263
O35   O     O_R   0.666630 0.097460 0.231770 -0.538379
O36   O     O_R   0.097460 0.333370 0.768230 -0.534247
O37   O     O_R   0.902540 0.666630 0.231770 -0.534251
O38   O     O_R   0.666630 0.097460 0.768230 -0.538392
O39   O     O_R   0.333370 0.902540 0.231770 -0.538375
O40   O     O_R   0.902540 0.333370 0.231770 -0.538381
O41   O     O_R   0.097460 0.666630 0.768230 -0.538374
O42   O     O_R   0.333370 0.097460 0.231770 -0.534248
O43   O     O_R   0.666630 0.902540 0.768230 -0.534262
O44   O     O_R   0.097460 0.666630 0.231770 -0.538383
O45   O     O_R   0.500000 0.930740 0.319380 -0.546687
O46   O     O_R   0.902540 0.333370 0.768230 -0.538376
O47   O     O_R   0.666630 0.902540 0.231770 -0.534250
O48   O     O_R   0.333370 0.097460 0.768230 -0.534259
O49   O     O_R   0.500000 0.069260 0.680620 -0.546590
O50   O     O_R   0.069260 0.500000 0.319380 -0.546666
O51   O     O_R   0.930740 0.500000 0.680620 -0.546760
O52   O     O_R   0.500000 0.069260 0.319380 -0.546700
Zn1   Zn    Zn3+2 0.401050 0.000000 0.224090 0.931373
Zn2   Zn    Zn3+2 0.098950 0.500000 0.275910 0.931290
Zn3   Zn    Zn3+2 0.500000 0.901050 0.724090 0.931367
Zn4   Zn    Zn3+2 0.500000 0.098950 0.275910 0.931263
Zn5   Zn    Zn3+2 0.098950 0.500000 0.724090 0.931213
Zn6   Zn    Zn3+2 0.901050 0.500000 0.275910 0.931283
Zn7   Zn    Zn3+2 0.500000 0.098950 0.724090 0.931372
Zn8   Zn    Zn3+2 0.500000 0.901050 0.275910 0.931269
Zn9   Zn    Zn3+2 0.598950 1.000000 0.775910 0.931341
Zn10  Zn    Zn3+2 1.000000 0.401050 0.224090 0.931358
Zn11  Zn    Zn3+2 1.000000 0.598950 0.775910 0.931366
Zn12  Zn    Zn3+2 0.598950 0.000000 0.224090 0.931367
Zn13  Zn    Zn3+2 0.401050 1.000000 0.775910 0.931346
Zn14  Zn    Zn3+2 0.000000 0.598950 0.224090 0.931356
Zn15  Zn    Zn3+2 1.000000 0.401050 0.775910 0.931373
Zn16  Zn    Zn3+2 0.901050 0.500000 0.724090 0.931203

loop_
_geom_bond_atom_site_label_1
_geom_bond_atom_site_label_2
_ccdc_geom_bond_type
C126  C127  S    
N1    N13   A    
C19   C20   S    
O31   Zn11  S    
C14   H42   S    
O34   Zn16  S    
C29   H82   S    
C31   H86   S    
C23   H73   S    
C121  N7    A    
C2    O49   A    
C90   C107  A    
C112  C124  S    
C42   O17   A    
C119  N16   A    
C122  N13   A    
C39   O15   A    
C73   C126  S    
C55   C62   S    
C117  N6    A    
C54   O29   A    
C5    H21   S    
C75   C128  S    
C32   C90   S    
C56   C72   T    
C51   O27   A    
C89   C106  A    
C111  C125  S    
O21   Zn16  S    
C51   C57   S    
C103  H4    S    
O41   Zn11  S    
C1    C37   S    
O30   Zn6   S    
C101  H2    S    
O43   Zn9   S    
C4    H25   S    
C5    H20   S    
C21   C22   S    
C11   H39   S    
C30   C89   S    
O37   Zn14  S    
C32   H96   S    
C46   O46   A    
C3    H15   S    
C95   C109  A    
O32   Zn10  S    
C20   H61   S    
C124  N15   A    
C58   C70   T    
C81   C99   A    
C27   H77   S    
C25   H71   S    
C17   H58   S    
O42   Zn1   S    
C57   C71   T    
C59   C69   T    
C123  N1    A    
C49   O31   A    
C38   O14   A    
C55   O37   A    
C12   H46   S    
O35   Zn12  S    
C79   C97   A    
C21   H69   S    
C4    C5    S    
C121  N3    A    
C128  H19   S    
C6    C7    S    
C91   H1    S    
C126  H13   S    
C9    H32   S    
C106  C115  A    
C89   C96   A    
C2    C96   S    
C103  C116  A    
C95   H45   S    
C1    C73   A    
O10   Zn10  S    
C64   C65   T    
O9    Zn11  S    
C18   H55   S    
O3    Zn6   S    
O23   Zn2   S    
O8    Zn1   S    
C24   O4    A    
C21   H68   S    
C24   O51   A    
C119  N5    A    
C123  N12   A    
C40   O16   A    
C54   O36   A    
C13   C85   S    
O51   Zn16  S    
C11   H37   S    
N4    N7    A    
C125  N14   A    
C19   H63   S    
O46   Zn15  S    
C115  C121  S    
C15   H51   S    
C84   C102  A    
C120  N8    A    
O1    Zn4   S    
O2    Zn3   S    
C10   H41   S    
O19   Zn7   S    
O12   Zn13  S    
C27   H75   S    
C43   C66   S    
C31   H87   S    
C77   C94   A    
C17   C82   S    
O23   Zn6   S    
C118  O45   A    
O44   Zn14  S    
C7    H28   S    
C26   C87   S    
O27   Zn7   S    
C25   H70   S    
C74   C87   A    
C107  C118  S    
C30   H90   S    
C13   O50   A    
O7    Zn9   S    
C44   C65   S    
C19   C83   S    
C6    H30   S    
C16   H50   S    
O1    Zn8   S    
C4    H24   S    
C117  N2    A    
C62   C66   T    
O49   Zn7   S    
O52   Zn4   S    
C8    H36   S    
O34   Zn5   S    
C3    C128  S    
C109  C123  S    
C18   H53   S    
O39   Zn1   S    
C35   O10   A    
C116  C120  S    
O16   Zn6   S    
C20   H60   S    
C61   C67   T    
O11   Zn13  S    
C17   C18   S    
C39   C69   S    
C9    H33   S    
C2    O2    A    
C40   O40   A    
C10   H40   S    
O20   Zn2   S    
C3    H17   S    
O47   Zn12  S    
O45   Zn8   S    
C42   C67   S    
N11   N14   A    
C42   O41   A    
C45   O20   A    
C53   C56   S    
C28   H85   S    
C83   C101  A    
O50   Zn2   S    
C12   C14   S    
C14   H43   S    
C52   C76   A    
C29   H81   S    
C49   C59   S    
C90   C108  A    
O28   Zn8   S    
C33   H94   S    
C88   C105  A    
C128  H18   S    
C7    H26   S    
C54   C64   S    
C94   C112  A    
N9    N12   A    
C114  C117  S    
C10   C11   S    
C104  C113  A    
O38   Zn9   S    
C36   O7    A    
C30   H91   S    
C43   O18   A    
O5    Zn15  S    
C33   H93   S    
C38   C70   S    
C1    C78   A    
O12   Zn3   S    
C26   H79   S    
O34   Zn11  S    
C46   O21   A    
O12   Zn7   S    
C26   C27   S    
C28   C29   S    
O1    Zn1   S    
C30   C31   S    
C85   C88   A    
C102  C115  A    
C113  C119  S    
C17   H57   S    
C23   C86   S    
C22   H65   S    
C127  H10   S    
C120  N4    A    
C16   H48   S    
C45   O44   A    
C101  C114  A    
C118  O52   A    
C36   C41   S    
O25   Zn16  S    
C74   C82   A    
O34   Zn15  S    
C29   H83   S    
C47   O22   A    
C23   H74   S    
C50   C58   S    
O23   Zn10  S    
C102  H3    S    
O15   Zn3   S    
C53   O28   A    
C126  H14   S    
C5    H22   S    
C76   C93   A    
C41   C75   A    
C21   C84   S    
C78   C95   A    
C34   O5    A    
C46   C71   S    
C93   C111  A    
O1    Zn12  S    
O6    Zn14  S    
O17   Zn5   S    
C83   C85   A    
C37   O13   A    
C93   H23   S    
C92   H12   S    
C32   H95   S    
C97   H56   S    
C53   O39   A    
C35   O6    A    
C80   C98   A    
C3    H16   S    
O23   Zn14  S    
C47   C61   S    
C10   C79   S    
C49   O25   A    
C28   H84   S    
O26   Zn2   S    
O40   Zn10  S    
C32   C33   S    
C108  C116  A    
C25   H72   S    
C110  C122  S    
C34   O9    A    
O48   Zn13  S    
C38   O42   A    
C87   C104  A    
C122  N9    A    
C7    H27   S    
C60   C68   T    
C40   C68   S    
C35   C52   S    
C9    H31   S    
O12   Zn9   S    
O24   Zn4   S    
C52   C80   A    
O13   Zn12  S    
C105  H6    S    
C20   H59   S    
C50   O26   A    
N6    N16   A    
C86   C107  A    
C92   C110  A    
O29   Zn5   S    
C15   C81   S    
C37   O8    A    
C63   C81   A    
C108  H8    S    
O36   Zn15  S    
O14   Zn4   S    
C18   H54   S    
C15   C16   S    
C36   O11   A    
C84   C96   A    
C124  N11   A    
O18   Zn8   S    
C8    C9    S    
C28   C88   S    
C11   H38   S    
C94   H34   S    
N3    N8    A    
C15   H52   S    
C45   C72   S    
C8    C78   S    
C127  H11   S    
C86   C103  A    
O4    Zn5   S    
C48   C60   S    
C43   O47   A    
C44   O48   A    
C104  H5    S    
C99   H78   S    
C27   H76   S    
C105  C114  A    
C73   C91   A    
C14   H44   S    
O33   Zn13  S    
C6    C77   S    
C31   H88   S    
C48   O24   A    
C51   O38   A    
C55   O30   A    
C75   C92   A    
C12   H47   S    
C106  H7    S    
C50   O32   A    
C100  H89   S    
C22   H64   S    
C6    H29   S    
C16   H49   S    
C63   C77   A    
C33   H92   S    
C98   C111  A    
C82   C100  A    
C26   H80   S    
C100  C113  A    
C8    H35   S    
C41   C79   A    
C47   O33   A    
N2    N5    A    
C125  N10   A    
C91   C109  A    
C39   O43   A    
C44   O19   A    
C97   C110  A    
C24   C74   S    
C13   O3    A    
C99   C112  A    
C12   C80   S    
C34   C63   S    
C98   H67   S    
N10   N15   A    
C23   C25   S    
C4    C76   S    
C19   H62   S    
C48   O35   A    
O22   Zn3   S    
C22   H66   S    
C127  H9    S    
