data_mof_unit_12740.cif
_audit_creation_date              2012-12-10T19:41:59-0500
_audit_creation_method            fapswitch 2.2
_symmetry_space_group_name_H-M    P1
_symmetry_Int_Tables_number       1
_space_group_crystal_system       triclinic
_cell_length_a                    18.334175
_cell_length_b                    18.359439
_cell_length_c                    18.287218
_cell_angle_alpha                 119.849194
_cell_angle_beta                  90.133009
_cell_angle_gamma                 120.043332
_cell_volume                      4354.64147083

loop_
_atom_site_label
_atom_site_type_symbol
_atom_type_description
_atom_site_fract_x
_atom_site_fract_y
_atom_site_fract_z
_atom_type_partial_charge
C1    C     C_R   0.140434 0.780204 0.139941 0.840160
C2    C     C_R   0.817341 0.108776 0.805140 -0.301275
C3    C     C_R   0.807564 0.054697 0.843316 0.434165
C4    C     C_R   0.861807 0.219836 0.860058 0.855419
C5    C     C_R   0.749219 0.946307 0.789887 0.399404
C6    C     C_R   0.705954 0.891906 0.697105 -0.292382
C7    C     C_R   0.730921 0.947258 0.659457 -0.095909
C8    C     C_3   0.677922 0.942573 0.592376 0.947705
C9    C     C_3   0.739024 0.062365 0.652863 0.250247
C10   C     C_R   0.785356 0.572925 0.231863 -0.054704
C11   C     C_R   0.813986 0.508870 0.205934 -0.167111
C12   C     C_R   0.838195 0.671619 0.730194 0.310346
C13   C     C_R   0.800186 0.457471 0.247588 0.513818
C14   C     C_R   0.744228 0.456482 0.299767 -0.305871
C15   C     C_R   0.705217 0.509511 0.313877 -0.180667
C16   C     C_R   0.139928 0.500713 0.859661 0.819187
C17   C     C_R   0.733250 0.574645 0.286129 -0.003378
C18   C     C_3   0.680095 0.587524 0.236509 0.431889
C19   C     C_3   0.738238 0.585696 0.177114 -0.509834
C20   C     C_R   0.159483 0.946187 0.210335 -0.173736
C21   C     C_R   0.197617 0.891981 0.189635 -0.116387
C22   C     C_R   0.291946 0.948003 0.212876 0.513943
C23   C     C_R   0.795268 0.589824 0.741306 -0.095890
C24   C     C_R   0.343921 0.055828 0.264165 -0.305813
C25   C     C_R   0.303552 0.108619 0.293704 -0.111986
C26   C     C_R   0.210257 0.051548 0.256905 -0.094327
C27   C     C_3   0.138125 0.056638 0.294535 0.899042
C28   C     C_R   0.861081 0.500918 0.141314 0.826497
C29   C     C_3   0.085528 0.939463 0.247156 0.311850
C30   C     C_R   0.286832 0.563220 0.224152 0.024225
C31   C     C_R   0.194384 0.497483 0.193922 -0.035297
C32   C     C_R   0.155337 0.427258 0.217561 -0.240576
C33   C     C_R   0.209544 0.427009 0.271516 -0.222769
C34   C     C_R   0.847653 0.588776 0.797524 -0.027113
C35   C     C_R   0.303490 0.496389 0.301941 -0.084256
C36   C     C_R   0.338915 0.561436 0.274504 0.005135
C37   C     C_3   0.423349 0.650344 0.284916 0.382732
C38   C     C_3   0.363001 0.651722 0.227315 -0.529300
C39   C     C_R   0.288016 0.569710 0.841478 -0.148994
C40   C     C_R   0.139773 0.499889 0.139849 0.784758
C41   C     C_R   0.195132 0.507879 0.803185 -0.190066
C42   C     C_R   0.157564 0.458078 0.710331 0.538037
C43   C     C_R   0.212432 0.457140 0.657144 -0.327554
C44   C     C_R   0.304314 0.507823 0.695746 -0.072397
C45   C     C_R   0.808335 0.504003 0.803562 0.035798
C46   C     C_R   0.341611 0.569115 0.788775 -0.045955
C47   C     C_3   0.406831 0.578355 0.848151 0.312069
C48   C     C_3   0.346941 0.577140 0.906254 0.327902
C49   C     C_R   0.640874 0.500879 0.360794 0.797654
C50   C     C_R   0.359924 0.500476 0.640048 0.881818
C51   C     C_R   0.640943 0.780273 0.640376 0.928244
C52   C     C_R   0.859536 0.499381 0.859874 0.765663
C53   C     C_R   0.359578 0.219873 0.358205 0.861939
C54   C     C_R   0.359959 0.499400 0.359666 0.789235
C55   C     C_R   0.641500 0.501523 0.640036 0.887095
C56   C     C_R   0.718936 0.421508 0.754908 -0.226401
C57   C     C_R   0.938913 0.670316 0.844269 -0.394252
C58   C     C_R   0.979138 0.754647 0.838877 0.426443
C59   C     C_R   0.928523 0.755232 0.781364 0.399085
C60   C     C_3   0.561529 0.940015 0.653124 -0.481498
C61   C     C_3   0.783624 0.168131 0.604406 -0.243014
C62   C     C_3   0.911180 0.457235 0.301516 -0.268164
C63   C     C_3   0.763671 0.764351 0.360189 -0.154058
C64   C     C_3   0.371251 0.904580 0.256433 -0.279131
C65   C     C_3   0.098878 0.118854 0.422733 -0.144224
C66   C     C_3   0.146368 0.176533 0.273201 -0.277661
C67   C     C_R   0.666479 0.423169 0.702160 -0.233075
C68   C     C_3   0.995188 0.837828 0.292546 -0.312074
C69   C     C_3   0.446037 0.529101 0.173142 -0.187438
C70   C     C_3   0.093518 0.878627 0.974107 -0.322290
C71   C     C_3   0.047794 0.462744 0.660798 -0.279962
C72   C     C_3   0.476922 0.506697 0.856204 -0.306210
C73   C     C_3   0.402658 0.754103 0.006651 -0.192383
C74   C     C_3   0.004839 0.929781 0.846977 -0.254242
C75   C     C_3   0.809170 0.633792 0.590346 -0.249540
C76   C     C_3   0.935970 0.139674 0.952483 -0.233153
C77   C     C_3   0.783980 0.867859 0.834459 -0.181017
C78   C     C_R   0.702819 0.506446 0.695826 -0.013884
C79   C     C_3   0.653903 0.903228 0.447792 -0.216646
C80   C     C_R   0.784613 0.053039 0.712323 -0.073807
H1    H     H_    0.708167 0.102840 0.688979 0.022605
H2    H     H_    0.558276 0.997417 0.650370 0.174981
H3    H     H_    0.607119 0.976348 0.719059 0.164866
H4    H     H_    0.493617 0.882946 0.646531 0.224417
H5    H     H_    0.801545 0.237154 0.670723 0.200203
H6    H     H_    0.712934 0.124793 0.563815 0.109393
H7    H     H_    0.826991 0.195189 0.568842 0.195311
H8    H     H_    0.962936 0.530244 0.309954 0.141614
H9    H     H_    0.939135 0.411873 0.286242 0.194468
H10   H     H_    0.896994 0.473717 0.365036 0.138674
H11   H     H_    0.769452 0.836038 0.383469 0.198606
H12   H     H_    0.728718 0.410639 0.325738 0.192033
H13   H     H_    0.825611 0.775276 0.345234 0.108472
H14   H     H_    0.758423 0.754018 0.415333 0.189731
H15   H     H_    0.700675 0.516747 0.106647 0.166791
H16   H     H_    0.398865 0.858354 0.231460 0.192491
H17   H     H_    0.319915 0.871916 0.284112 0.160104
H18   H     H_    0.427334 0.985181 0.310129 0.147119
H19   H     H_    0.031520 0.045135 0.380748 0.144399
H20   H     H_    0.098083 0.181911 0.429426 0.158070
H21   H     H_    0.113284 0.136064 0.490491 0.178127
H22   H     H_    0.198475 0.182009 0.241038 0.160344
H23   H     H_    0.609407 0.519042 0.199706 0.071981
H24   H     H_    0.176166 0.238464 0.345984 0.222646
H25   H     H_    0.104718 0.188665 0.242961 0.168151
H26   H     H_    0.965937 0.764993 0.225205 0.211676
H27   H     H_    0.952544 0.866080 0.299904 0.134132
H28   H     H_    0.995273 0.820728 0.342786 0.188492
H29   H     H_    0.083428 0.373479 0.195457 0.173287
H30   H     H_    0.177822 0.373540 0.289873 0.161162
H31   H     H_    0.457187 0.719463 0.355336 0.113344
H32   H     H_    0.386460 0.498461 0.122288 0.133221
H33   H     H_    0.428821 0.478993 0.196634 0.144207
H34   H     H_    0.782750 0.659885 0.184895 0.212459
H35   H     H_    0.495733 0.526691 0.139403 0.171285
H36   H     H_    0.362768 0.721264 0.265237 0.164936
H37   H     H_    0.100465 0.831797 0.991322 0.169421
H38   H     H_    0.045092 0.894494 0.001737 0.157960
H39   H     H_    0.159641 0.953854 0.007526 0.189624
H40   H     H_    0.369711 0.630201 0.160454 0.242791
H41   H     H_    0.079631 0.482868 0.615917 0.145053
H42   H     H_    0.069187 0.533833 0.727279 0.155346
H43   H     H_    0.974422 0.418330 0.630323 0.187450
H44   H     H_    0.182096 0.413282 0.585446 0.179755
H45   H     H_    0.980584 0.668022 0.883801 0.177582
H46   H     H_    0.474546 0.531043 0.924875 0.165672
H47   H     H_    0.542077 0.565089 0.859200 0.176882
H48   H     H_    0.471896 0.434009 0.823982 0.189311
H49   H     H_    0.474222 0.652366 0.878695 0.105207
H50   H     H_    0.337206 0.743064 0.996146 0.206569
H51   H     H_    0.436158 0.772107 0.961615 0.129108
H52   H     H_    0.445731 0.821797 0.076419 0.196456
H53   H     H_    0.077228 0.968645 0.877019 0.215840
H54   H     H_    0.970640 0.927774 0.896940 0.109358
H55   H     H_    0.999022 0.977533 0.830458 0.157792
H56   H     H_    0.416039 0.097709 0.283927 0.186722
H57   H     H_    0.789626 0.554245 0.560319 0.149935
H58   H     H_    0.880524 0.684686 0.599169 0.191541
H59   H     H_    0.768575 0.630505 0.542293 0.163126
H60   H     H_    0.596539 0.359119 0.666329 0.139514
H61   H     H_    0.942349 0.075092 0.912261 0.100451
H62   H     H_    0.976577 0.199684 0.940541 0.146121
H63   H     H_    0.964763 0.174322 0.024119 0.181905
H64   H     H_    0.814644 0.857439 0.780613 0.168462
H65   H     H_    0.745551 0.793370 0.826826 0.201287
H66   H     H_    0.836886 0.925748 0.901071 0.150672
H67   H     H_    0.021275 0.893439 0.192864 0.072232
H68   H     H_    0.602739 0.919135 0.463803 0.138698
H69   H     H_    0.621365 0.828672 0.381452 0.226516
H70   H     H_    0.707153 0.963090 0.441339 0.175984
H71   H     H_    0.312135 0.506249 0.904914 0.119953
H72   H     H_    0.689249 0.356289 0.759111 0.127858
O1    O     O_3   0.000000 0.500000 0.000000 -0.500637
O2    O     O_R   0.323450 0.268330 0.384170 -0.642417
O3    O     O_R   0.444860 0.560620 0.384150 -0.612561
O4    O     O_R   0.055050 0.731580 0.115780 -0.659113
O5    O     O_R   0.615780 0.439200 0.555040 -0.651976
O6    O     O_R   0.323420 0.439190 0.384160 -0.677965
O7    O     O_R   0.615760 0.560630 0.676470 -0.624007
O8    O     O_R   0.615740 0.731500 0.676460 -0.605728
O9    O     O_R   0.444900 0.268330 0.384170 -0.655385
O10   O     O_R   0.615750 0.560630 0.384150 -0.628195
O11   O     O_R   0.323430 0.439200 0.555040 -0.659269
O12   O     O_R   0.055090 0.439280 0.823480 -0.584408
O13   O     O_R   0.884220 0.268410 0.823490 -0.627277
O14   O     O_R   0.176520 0.560720 0.944920 -0.635455
O15   O     O_R   0.884200 0.439290 0.115800 -0.583044
O16   O     O_R   0.176530 0.560720 0.115800 -0.632702
O17   O     O_R   0.884180 0.560710 0.944910 -0.641423
O18   O     O_R   0.055100 0.439290 0.115810 -0.652848
O19   O     O_R   0.884190 0.439280 0.823480 -0.658936
O20   O     O_3   0.584382 0.887959 0.580415 -0.629274
O21   O     O_3   0.798961 0.105163 0.614513 -0.553769
O22   O     O_3   0.832531 0.398844 0.229995 -0.568417
O23   O     O_R   0.884180 0.560710 0.115790 -0.661915
O24   O     O_3   0.685966 0.680953 0.283878 -0.562818
O25   O     O_3   0.333664 0.898337 0.184389 -0.600638
O26   O     O_3   0.167398 0.115256 0.389551 -0.600541
O27   O     O_3   0.090658 0.078318 0.256063 -0.700854
O28   O     O_3   0.083926 0.912462 0.307810 -0.575752
O29   O     O_3   0.485154 0.632077 0.246521 -0.555410
O30   O     O_3   0.070309 0.831044 0.880745 -0.587124
O31   O     O_3   0.066481 0.401073 0.669296 -0.577868
O32   O     O_3   0.405104 0.488472 0.804251 -0.606971
O33   O     O_3   0.392141 0.667316 0.996102 -0.621087
O34   O     O_R   0.176500 0.731590 0.115790 -0.600842
O35   O     O_3   0.967495 0.831749 0.766667 -0.582536
O36   O     O_3   0.791929 0.673037 0.671619 -0.613674
O37   O     O_3   0.845735 0.105808 0.934155 -0.538761
O38   O     O_3   0.725615 0.895832 0.831248 -0.560336
O39   O     O_3   0.693071 0.898091 0.510305 -0.592039
O40   O     O_R   0.884220 0.268420 0.944930 -0.595761
O41   O     O_3   0.499960 0.499910 0.499960 -0.498489
O42   O     O_R   0.615770 0.439200 0.384160 -0.651413
O43   O     O_R   0.444870 0.560630 0.676470 -0.633003
O44   O     O_R   0.615730 0.731500 0.555020 -0.600718
Zn1   Zn    Zn3+2 0.956630 0.413250 0.869870 0.976047
Zn2   Zn    Zn3+2 0.130130 0.586750 0.043370 0.980929
Zn3   Zn    Zn3+2 0.956630 0.413250 0.043380 0.997497
Zn4   Zn    Zn3+2 0.956610 0.586750 0.043370 0.932641
Zn5   Zn    Zn3+2 0.543330 0.586660 0.630080 1.015534
Zn6   Zn    Zn3+2 0.543320 0.586660 0.456570 1.022859
Zn7   Zn    Zn3+2 0.369830 0.413160 0.456580 0.942237
Zn8   Zn    Zn3+2 0.543350 0.413170 0.456590 0.959835

loop_
_geom_bond_atom_site_label_1
_geom_bond_atom_site_label_2
_ccdc_geom_bond_type
C73   H51   S    
C1    C21   S    
C27   C29   S    
C11   C13   A    
C41   C42   A    
C4    O40   A    
O9    Zn8   S    
C75   O36   S    
C27   O26   S    
C65   H21   S    
C40   O18   A    
O2    Zn7   S    
C63   O24   S    
C39   C41   A    
O1    Zn4   S    
C1    O34   A    
C31   C40   S    
C63   H14   S    
O11   Zn7   S    
C26   C27   S    
O41   Zn8   S    
O16   Zn2   S    
C47   H49   S    
C77   O38   S    
C71   H43   S    
C36   C37   S    
C25   C53   S    
C5    O38   S    
C51   O44   A    
C3    O37   S    
C57   H45   S    
C30   C31   A    
C69   H32   S    
O7    Zn5   S    
O1    Zn1   S    
C49   O42   A    
C10   C17   A    
C8    O39   S    
C12   O36   S    
C74   H53   S    
C62   H10   S    
C51   O8    A    
C18   O24   S    
O41   Zn5   S    
C4    O13   A    
C30   C38   S    
C18   C19   S    
C71   H42   S    
C66   H22   S    
C76   O37   S    
C61   H7    S    
C28   O15   A    
C33   C35   A    
C46   C47   S    
C12   C59   A    
C60   H2    S    
C70   O30   S    
C35   C36   A    
C45   C56   A    
C16   O14   A    
C8    C9    S    
C29   O28   S    
C34   C57   A    
C59   O35   S    
C68   H27   S    
C6    C51   S    
C56   H72   S    
O3    Zn6   S    
C70   H39   S    
C79   H69   S    
C38   H40   S    
C76   H61   S    
C24   H56   S    
C64   H18   S    
C73   H52   S    
C37   O29   S    
C53   O2    A    
C79   O39   S    
C13   C14   A    
C35   C54   S    
O6    Zn7   S    
O4    Zn4   S    
C67   C78   A    
C68   H26   S    
C22   O25   S    
C52   O19   A    
O18   Zn3   S    
C7    C80   A    
C44   C46   A    
C14   H12   S    
C9    H1    S    
C20   C29   S    
C13   O22   S    
C37   H31   S    
C32   H29   S    
C72   H47   S    
C61   H6    S    
C60   O20   S    
C47   C48   S    
C71   O31   S    
C7    C8    S    
C61   O21   S    
C24   C25   A    
C64   H16   S    
C75   H57   S    
C54   O3    A    
O5    Zn8   S    
C55   C78   S    
O1    Zn2   S    
C72   H48   S    
C45   C52   S    
C25   C26   A    
C62   H8    S    
C68   O28   S    
C16   O12   A    
O41   Zn6   S    
C72   H46   S    
C9    C80   S    
C1    O4    A    
C2    C4    S    
C43   C44   A    
O14   Zn2   S    
C37   C38   S    
O13   Zn1   S    
C54   O6    A    
C38   H36   S    
C50   O43   A    
C31   C32   A    
C12   C23   A    
C55   O5    A    
C10   C19   S    
C23   C34   A    
O42   Zn8   S    
C74   H55   S    
C66   H24   S    
C17   C18   S    
C34   C45   A    
C9    O21   S    
C67   H60   S    
C65   H19   S    
C49   O10   A    
C6    C7    A    
C61   H5    S    
O17   Zn4   S    
O43   Zn5   S    
C64   H17   S    
O10   Zn6   S    
C39   C46   A    
C22   C24   A    
C42   C43   A    
C66   H25   S    
O44   Zn6   S    
C77   H65   S    
O8    Zn5   S    
C19   H15   S    
O12   Zn1   S    
C74   O35   S    
C44   C50   S    
C15   C17   A    
C73   H50   S    
C69   H35   S    
C50   O11   A    
C72   O32   S    
O40   Zn3   S    
C65   H20   S    
C27   O27   S    
C47   O32   S    
C3    C5    A    
C75   H58   S    
O41   Zn7   S    
C52   O17   A    
C29   H67   S    
C73   O33   S    
C28   O23   A    
C79   H68   S    
O1    Zn3   S    
C42   O31   S    
C56   C67   A    
C68   H28   S    
C66   O27   S    
C63   H13   S    
C19   H34   S    
C30   C36   A    
C58   O30   S    
C32   C33   A    
C2    C3    A    
C58   C59   A    
C77   H64   S    
C48   O33   S    
C79   H70   S    
C75   H59   S    
C62   O22   S    
C64   O25   S    
C60   H4    S    
C53   O9    A    
C57   C58   A    
C5    C6    A    
C20   C26   A    
C11   C28   S    
C70   H38   S    
C74   H54   S    
C55   O7    A    
C62   H9    S    
C60   H3    S    
C18   H23   S    
C15   C49   S    
C23   C78   A    
O23   Zn4   S    
C40   O16   A    
C2    C80   A    
C10   C11   A    
C76   H63   S    
C71   H41   S    
C69   H33   S    
C20   C21   A    
C43   H44   S    
O19   Zn1   S    
C65   O26   S    
C48   H71   S    
C63   H11   S    
O15   Zn3   S    
C14   C15   A    
O34   Zn2   S    
C33   H30   S    
C70   H37   S    
C21   C22   A    
C77   H66   S    
C8    O20   S    
C69   O29   S    
C39   C48   S    
C16   C41   S    
C76   H62   S    
