data_mof_unit_11175.cif
_audit_creation_date              2012-12-10T17:01:27-0500
_audit_creation_method            fapswitch 2.2
_symmetry_space_group_name_H-M    P1
_symmetry_Int_Tables_number       1
_space_group_crystal_system       triclinic
_cell_length_a                    12.789684
_cell_length_b                    10.731318
_cell_length_c                    10.081995
_cell_angle_alpha                 90.850665
_cell_angle_beta                  96.996482
_cell_angle_gamma                 89.849109
_cell_volume                      1373.29968966

loop_
_atom_site_label
_atom_site_type_symbol
_atom_type_description
_atom_site_fract_x
_atom_site_fract_y
_atom_site_fract_z
_atom_type_partial_charge
C1    C     C_R   0.506321 0.263146 0.499569 0.909756
C2    C     C_2   0.508319 0.130918 0.496215 -0.389676
C3    C     C_2   0.537489 0.413871 0.933139 -0.041294
C4    C     C_R   0.299031 0.494599 0.473799 0.885098
C5    C     C_2   0.514662 0.404294 0.075161 -0.147578
C6    C     C_R   0.500325 0.737335 0.501131 0.935257
C7    C     C_R   0.701105 0.506731 0.526540 0.882114
C8    C     C_R   0.813338 0.522685 0.544273 -0.138115
C9    C     C_R   0.187878 0.477453 0.458603 -0.070053
C10   C     C_R   0.039145 0.341825 0.450290 -0.208473
C11   C     C_R   0.143676 0.359072 0.431892 0.148936
C12   C     C_R   0.024119 0.560857 0.517782 0.070081
C13   C     C_R   0.129039 0.576782 0.497329 -0.289779
C14   C     C_3   0.830835 0.286347 0.526817 -0.398512
C15   C     C_3   0.882260 0.214291 0.647415 -0.865285
C16   C     C_3   0.408988 0.575336 0.878556 -0.133405
C17   C     C_3   0.311279 0.495106 0.889884 -0.826262
C18   C     C_3   0.783486 0.754155 0.587401 -0.386358
C19   C     C_3   0.766331 0.769066 0.734130 -0.849054
C20   C     C_3   0.014342 0.790286 0.592740 -0.406433
C21   C     C_3   0.019476 0.866983 0.466935 -0.887776
C22   C     C_3   0.206521 0.247279 0.393339 -0.424464
C23   C     C_R   0.979386 0.439558 0.497728 0.081948
C24   C     C_3   0.235115 0.163444 0.513324 -0.886237
C25   C     C_3   0.621800 0.113263 0.304860 -0.367255
C26   C     C_3   0.722418 0.036103 0.302437 -0.938804
C27   C     C_R   0.875746 0.418502 0.523310 0.059722
C28   C     C_R   0.855716 0.644275 0.565283 0.073484
C29   C     C_R   0.964175 0.662609 0.559168 0.146731
C30   C     C_2   0.528780 0.930635 0.396807 -0.167413
C31   C     C_2   0.517211 0.868147 0.507324 -0.401880
C32   C     C_2   0.552683 0.062620 0.404437 0.213877
H1    H     H_    0.461857 0.089023 0.566737 0.135968
H2    H     H_    0.867658 0.263159 0.741316 0.264699
H3    H     H_    0.847420 0.119519 0.646549 0.246113
H4    H     H_    0.745221 0.285164 0.534268 0.203085
H5    H     H_    0.839501 0.235620 0.432433 0.202627
H6    H     H_    0.306468 0.415668 0.817632 0.272564
H7    H     H_    0.312634 0.458076 0.992128 0.247857
H8    H     H_    0.239105 0.552824 0.868849 0.224381
H9    H     H_    0.424250 0.641629 0.963073 0.118787
H10   H     H_    0.388950 0.638128 0.793166 0.210794
H11   H     H_    0.727977 0.685380 0.769403 0.284162
H12   H     H_    0.583461 0.339702 0.894368 0.128622
H13   H     H_    0.842467 0.784078 0.797763 0.243733
H14   H     H_    0.714796 0.850865 0.746101 0.241460
H15   H     H_    0.813050 0.843013 0.552169 0.209862
H16   H     H_    0.707150 0.742699 0.524838 0.202796
H17   H     H_    0.072354 0.822687 0.400597 0.262769
H18   H     H_    0.940104 0.876823 0.409901 0.259214
H19   H     H_    0.049951 0.961429 0.495679 0.250262
H20   H     H_    0.971371 0.844419 0.663207 0.212433
H21   H     H_    0.093782 0.781021 0.649597 0.191666
H22   H     H_    0.289040 0.213277 0.591031 0.267186
H23   H     H_    0.512059 0.312795 0.118450 0.148745
H24   H     H_    0.163515 0.135504 0.557461 0.253801
H25   H     H_    0.274583 0.077900 0.481068 0.252160
H26   H     H_    0.159168 0.193206 0.312441 0.203029
H27   H     H_    0.279662 0.275115 0.352890 0.224596
H28   H     H_    0.764460 0.027729 0.404956 0.266914
H29   H     H_    0.703998 0.941335 0.260513 0.262723
H30   H     H_    0.775262 0.082145 0.238537 0.249872
H31   H     H_    0.576758 0.110576 0.203484 0.190590
H32   H     H_    0.646999 0.210476 0.328128 0.221087
H33   H     H_    0.532049 0.582653 0.116754 0.177567
H34   H     H_    0.006822 0.249869 0.428984 0.155803
H35   H     H_    0.168884 0.665188 0.514730 0.148731
H36   H     H_    0.524779 0.884235 0.299740 0.174119
H37   H     H_    0.529855 0.910866 0.606266 0.157500
H38   H     H_    0.968434 0.204302 0.646238 0.257929
N1    N     N_2   0.501130 0.501330 0.852280 -0.086417
N2    N     N_2   0.501160 0.501360 0.147950 -0.195195
O1    O     O_R   0.499980 0.319060 0.613040 -0.615489
O2    O     O_R   0.500020 0.319100 0.386900 -0.627212
O3    O     O_R   0.346340 0.499960 0.594380 -0.617140
O4    O     O_R   0.346380 0.500000 0.368250 -0.614654
O5    O     O_R   0.499980 0.680900 0.613100 -0.635896
O6    O     O_R   0.500020 0.680940 0.386960 -0.619753
O7    O     O_R   0.653620 0.500000 0.631750 -0.611505
O8    O     O_R   0.653660 0.500040 0.405620 -0.624085
Zn1   Zn    Zn3+2 0.499980 0.499970 0.650990 0.920255
Zn2   Zn    Zn3+2 0.500020 0.500030 0.349010 0.917991

loop_
_geom_bond_atom_site_label_1
_geom_bond_atom_site_label_2
_ccdc_geom_bond_type
C12   C29   A    
C25   H31   S    
C18   H15   S    
C21   H17   S    
C19   H14   S    
C7    C8    S    
C12   C23   A    
C1    O2    A    
C28   C29   A    
C26   H29   S    
C18   C19   S    
C5    N2    D    
C14   H4    S    
C30   C31   D    
C6    O6    A    
C24   H22   S    
C2    C32   D    
C1    C2    S    
C17   H7    S    
C15   H3    S    
C9    C13   A    
C4    O3    A    
C24   H25   S    
C23   C27   A    
C14   C27   S    
C15   H2    S    
C25   C32   S    
C6    C31   S    
C16   N1    S    
O2    Zn2   S    
O1    Zn1   S    
C21   H18   S    
C19   H11   S    
C20   C29   S    
C10   H34   S    
C3    H12   S    
C18   C28   S    
O8    Zn2   S    
O4    Zn2   S    
C22   H27   S    
O7    Zn1   S    
O3    Zn1   S    
C6    O5    A    
C25   C26   S    
C25   H32   S    
C3    N1    D    
O6    Zn2   S    
O5    Zn1   S    
C12   C13   A    
C9    C11   A    
C2    H1    S    
C8    C28   A    
C22   C24   S    
C16   H10   S    
C21   H19   S    
C7    O7    A    
C13   H35   S    
C15   H38   S    
C5    H23   S    
C20   H21   S    
C3    C5    S    
C18   H16   S    
C22   H26   S    
C19   H13   S    
C10   C23   A    
C24   H24   S    
H33   N2    S    
C11   C22   S    
C1    O1    A    
C26   H30   S    
C20   H20   S    
C14   H5    S    
C30   C32   S    
C16   C17   S    
C17   H6    S    
C30   H36   S    
C4    O4    A    
C10   C11   A    
C31   H37   S    
C20   C21   S    
C8    C27   A    
C14   C15   S    
C4    C9    S    
C26   H28   S    
C16   H9    S    
C17   H8    S    
N2    Zn2   S    
C7    O8    A    
N1    Zn1   S    
