data_mof_unit_60922.cif
_audit_creation_date              2012-12-10T21:33:24-0500
_audit_creation_method            fapswitch 2.2
_symmetry_space_group_name_H-M    P1
_symmetry_Int_Tables_number       1
_space_group_crystal_system       triclinic
_cell_length_a                    14.149817
_cell_length_b                    16.196299
_cell_length_c                    16.537626
_cell_angle_alpha                 86.210114
_cell_angle_beta                  91.199048
_cell_angle_gamma                 91.754606
_cell_volume                      3779.26472239

loop_
_atom_site_label
_atom_site_type_symbol
_atom_type_description
_atom_site_fract_x
_atom_site_fract_y
_atom_site_fract_z
_atom_type_partial_charge
C1    C     C_R   0.500205 0.487793 0.653186 0.906809
C2    C     C_R   0.499795 0.512206 0.346814 0.906806
C3    C     C_R   0.599158 0.468934 0.865664 -0.035655
C4    C     C_R   0.400894 0.531089 0.134320 -0.035685
C5    C     C_R   0.595105 0.477438 0.780292 -0.137617
C6    C     C_R   0.404925 0.522586 0.219692 -0.137636
C7    C     C_R   0.449202 0.763454 0.462007 0.427448
C8    C     C_R   0.550799 0.236545 0.537991 0.427457
C9    C     C_R   0.443640 0.849606 0.468936 0.248890
C10   C     C_R   0.556360 0.150394 0.531062 0.248893
C11   C     C_R   0.504705 0.889999 0.523517 0.180287
C12   C     C_R   0.495293 0.110001 0.476482 0.180284
C13   C     C_R   0.565583 0.840504 0.574068 -0.243905
C14   C     C_R   0.434413 0.159496 0.425934 -0.243894
C15   C     C_R   0.569340 0.754111 0.564161 -0.039883
C16   C     C_R   0.430657 0.245889 0.435841 -0.039886
C17   C     C_R   0.670835 0.499603 0.499999 0.905606
C18   C     C_R   0.329165 0.500397 0.500001 0.905595
C19   C     C_1   0.772245 0.498945 0.500061 -0.063331
C20   C     C_1   0.227755 0.501055 0.499939 -0.063364
C21   C     C_1   0.857483 0.499069 0.500083 0.088524
C22   C     C_1   0.142517 0.500931 0.499916 0.088502
C23   C     C_1   0.957368 0.499681 0.500033 0.088568
C24   C     C_1   0.042632 0.500319 0.499966 0.088564
C25   C     C_R   0.505811 0.476524 0.740677 -0.242974
C26   C     C_R   0.494211 0.523475 0.259322 -0.242971
C27   C     C_R   0.422346 0.457382 0.783333 0.387820
C28   C     C_R   0.577692 0.542586 0.216681 0.387805
C29   C     C_R   0.426609 0.445627 0.868211 -0.090176
C30   C     C_R   0.573452 0.554340 0.131803 -0.090142
C31   C     C_R   0.514542 0.456317 0.908579 0.056283
C32   C     C_R   0.485523 0.543678 0.091419 0.056282
N1    N     N_2   0.516707 0.466225 0.992471 -0.202400
N2    N     N_2   0.483370 0.533773 0.007527 -0.202403
N3    N     N_R   0.510540 0.716920 0.509720 -0.156751
N4    N     N_R   0.489460 0.283080 0.490280 -0.156755
N5    N     N_2   0.503086 0.977938 0.532493 -0.030932
N6    N     N_2   0.496912 0.022062 0.467506 -0.030933
O1    O     O_R   0.496230 0.422540 0.612660 -0.538405
O2    O     O_R   0.503770 0.577460 0.387340 -0.538415
O3    O     O_R   0.503000 0.561840 0.618900 -0.645920
O4    O     O_R   0.497000 0.438160 0.381100 -0.645907
O5    O     O_R   0.622900 0.430330 0.496880 -0.564632
O6    O     O_R   0.377100 0.569670 0.503120 -0.564639
O7    O     O_R   0.629670 0.569640 0.503120 -0.569591
O8    O     O_R   0.370330 0.430360 0.496880 -0.569592
Zn1   Zn    Zn3+2 0.495480 0.406980 0.495830 1.048512
Zn2   Zn    Zn3+2 0.504520 0.593020 0.504170 1.048500
Cl1   Cl    Cl    0.685978 0.553511 0.271586 -0.500363
Cl2   Cl    Cl    0.314053 0.446429 0.728444 -0.500312
C33   C     C_2   0.658501 0.577422 0.082784 0.524623
H1    H     H_    0.649756 0.607111 0.022432 0.079341
O9    O     O_2   0.738385 0.562151 0.107364 -0.452022
C34   C     C_2   0.341580 0.422515 0.917247 0.524623
H2    H     H_    0.350353 0.392858 0.977611 0.079338
O10   O     O_2   0.261679 0.437722 0.892669 -0.451985
C35   C     C_2   0.689350 0.478307 0.912455 0.534635
H3    H     H_    0.698330 0.444518 0.970865 0.093117
O11   O     O_2   0.752281 0.526535 0.888550 -0.494503
C36   C     C_2   0.310709 0.521741 0.087513 0.534632
H4    H     H_    0.301758 0.555522 0.029096 0.093093
O12   O     O_2   0.247750 0.473539 0.111413 -0.494479
C37   C     C_2   0.682486 0.484197 0.731227 0.586882
H5    H     H_    0.684221 0.522463 0.674958 0.012295
O13   O     O_2   0.751733 0.443970 0.751180 -0.467133
C38   C     C_2   0.317534 0.515853 0.268743 0.586964
H6    H     H_    0.315773 0.477586 0.325011 0.012241
O14   O     O_2   0.248307 0.556103 0.248780 -0.467102
Cl3   Cl    Cl    0.625540 0.284466 0.608568 -0.454053
Cl4   Cl    Cl    0.374463 0.715533 0.391429 -0.454053
Cl5   Cl    Cl    0.648016 0.096780 0.583817 -0.411998
Cl6   Cl    Cl    0.351985 0.903219 0.416178 -0.411996
C39   C     C_2   0.623697 0.877485 0.639119 0.558589
H7    H     H_    0.691905 0.852532 0.656808 0.091169
O15   O     O_2   0.594049 0.933597 0.676349 -0.464684
C40   C     C_2   0.376297 0.122516 0.360883 0.558590
H8    H     H_    0.308087 0.147468 0.343197 0.091178
O16   O     O_2   0.405945 0.066406 0.323650 -0.464685
C41   C     C_2   0.634238 0.703076 0.615370 0.481504
H9    H     H_    0.611284 0.675462 0.673458 0.049863
O17   O     O_2   0.715230 0.694460 0.594157 -0.543868
C42   C     C_2   0.365756 0.296924 0.384634 0.481509
H10   H     H_    0.388712 0.324551 0.326551 0.049878
O18   O     O_2   0.284762 0.305531 0.405845 -0.543867

loop_
_geom_bond_atom_site_label_1
_geom_bond_atom_site_label_2
_ccdc_geom_bond_type
C38   O14   D    
C30   C33   S    
C37   O13   D    
C27   C29   A    
C39   H7    S    
C9    Cl6   S    
C7    Cl4   S    
C8    Cl3   S    
C40   O16   D    
C22   C24   S    
C19   C21   T    
C17   O7    A    
C35   O11   D    
C29   C34   S    
C5    C37   S    
N4    Zn1   S    
C36   O12   D    
C8    N4    A    
C11   N5    S    
O2    Zn2   S    
O8    Zn1   S    
C15   C41   S    
C23   C24   T    
C31   N1    S    
C27   Cl2   S    
C10   Cl5   S    
C38   H6    S    
C1    C25   S    
C39   O15   D    
N3    Zn2   S    
C18   O8    A    
C15   N3    A    
C21   C23   S    
C34   O10   D    
C33   H1    S    
C40   H8    S    
C4    C6    A    
C41   O17   D    
C37   H5    S    
C36   H4    S    
C33   O9    D    
C32   N2    S    
C17   O5    A    
N5    N6    D    
C18   O6    A    
C28   Cl1   S    
C4    C36   S    
C16   C42   S    
N1    N2    D    
C2    C26   S    
C3    C31   A    
C9    C11   A    
C4    C32   A    
C10   C12   A    
C5    C25   A    
C3    C35   S    
C1    O3    A    
C13   C39   S    
C42   O18   D    
C13   C15   A    
C14   C16   A    
C20   C22   T    
O1    Zn1   S    
O7    Zn2   S    
C7    C9    A    
C34   H2    S    
C7    N3    A    
C12   C14   A    
C3    C5    A    
C25   C27   A    
C26   C28   A    
C28   C30   A    
C29   C31   A    
C16   N4    A    
C30   C32   A    
C11   C13   A    
C35   H3    S    
C6    C26   A    
C2    O4    A    
C17   C19   S    
O3    Zn2   S    
C18   C20   S    
O4    Zn1   S    
C12   N6    S    
C1    O1    A    
C41   H9    S    
C2    O2    A    
C6    C38   S    
C8    C10   A    
C42   H10   S    
O5    Zn1   S    
O6    Zn2   S    
C14   C40   S    
