data_mof_unit_38487.cif
_audit_creation_date              2012-12-11T17:09:24-0500
_audit_creation_method            fapswitch 2.2
_symmetry_space_group_name_H-M    P1
_symmetry_Int_Tables_number       1
_space_group_crystal_system       triclinic
_cell_length_a                    14.783486
_cell_length_b                    6.928481
_cell_length_c                    13.525237
_cell_angle_alpha                 89.999988
_cell_angle_beta                  99.838507
_cell_angle_gamma                 89.999989
_cell_volume                      1364.97686479

loop_
_atom_site_label
_atom_site_type_symbol
_atom_type_description
_atom_site_fract_x
_atom_site_fract_y
_atom_site_fract_z
_atom_type_partial_charge
O1    O     O_R   0.586930 0.505770 0.416350 -0.546569
O2    O     O_R   0.413070 0.005770 0.583650 -0.546569
O3    O     O_R   0.397900 0.173100 0.389630 -0.542039
O4    O     O_R   0.602100 0.673100 0.610370 -0.542038
C1    C     C_R   0.364462 0.345470 0.362611 0.729611
C2    C     C_R   0.635538 0.845470 0.637388 0.729612
O5    O     O_R   0.585280 0.175870 0.404330 -0.519602
O6    O     O_R   0.414720 0.675870 0.595670 -0.519603
O7    O     O_R   0.601790 0.008380 0.598460 -0.531133
O8    O     O_R   0.398210 0.508380 0.401540 -0.531134
C3    C     C_R   0.615629 0.344439 0.383907 0.723532
C4    C     C_R   0.384371 0.844439 0.616093 0.723527
O9    O     O_3   0.505200 0.340120 0.563670 -0.370239
O10   O     O_3   0.494800 0.840120 0.436330 -0.370239
V1    V     V_3+5 0.499040 0.064180 0.488190 1.441677
V2    V     V_3+5 0.500960 0.564180 0.511810 1.441676
C5    C     C_R   0.321710 0.994008 0.759405 0.015460
C6    C     C_R   0.678290 0.494009 0.240595 0.015457
C7    C     C_R   0.316547 0.851414 0.685196 -0.196743
C8    C     C_R   0.683452 0.351414 0.314804 -0.196740
C9    C     C_R   0.246066 0.711327 0.681260 0.409183
C10   C     C_R   0.753934 0.211327 0.318740 0.409183
C11   C     C_R   0.182556 0.721426 0.748460 -0.267578
C12   C     C_R   0.817443 0.221426 0.251539 -0.267583
H1    H     H_    0.129071 0.613259 0.743551 0.139079
H2    H     H_    0.870928 0.113258 0.256448 0.139077
C13   C     C_R   0.183501 0.876965 0.815577 -0.159242
C14   C     C_R   0.816499 0.376965 0.184423 -0.159240
C15   C     C_R   0.256226 0.008079 0.821795 0.091290
C16   C     C_R   0.743774 0.508079 0.178205 0.091291
C17   C     C_3   0.255621 0.223115 0.817162 -0.379484
C18   C     C_3   0.744379 0.723116 0.182839 -0.379484
C19   C     C_3   0.328080 0.207524 0.750109 -0.342404
C20   C     C_3   0.671921 0.707524 0.249891 -0.342403
H3    H     H_    0.281880 0.289770 0.891255 0.160271
H4    H     H_    0.718120 0.789771 0.108745 0.160271
H5    H     H_    0.189080 0.281263 0.777726 0.184513
H6    H     H_    0.810921 0.781263 0.222275 0.184512
H7    H     H_    0.396306 0.263741 0.785766 0.162329
H8    H     H_    0.603695 0.763743 0.214235 0.162329
H9    H     H_    0.304333 0.255638 0.671840 0.227065
H10   H     H_    0.695667 0.755637 0.328161 0.227066
C21   C     C_1   0.783264 0.877175 0.783132 -0.190918
C22   C     C_1   0.216735 0.377175 0.216868 -0.190919
C23   C     C_1   0.715874 0.860214 0.717200 -0.196457
C24   C     C_1   0.284126 0.360215 0.282800 -0.196457
O11   O     O_R   0.101720 0.231700 0.098560 -0.535995
O12   O     O_R   0.898280 0.731700 0.901440 -0.535995
O13   O     O_R   0.914700 0.558980 0.095690 -0.542192
O14   O     O_R   0.085300 0.058980 0.904310 -0.542192
C25   C     C_R   0.885570 0.389822 0.117385 0.719156
C26   C     C_R   0.114430 0.889822 0.882615 0.719156
O15   O     O_R   0.102080 0.561590 0.110390 -0.537487
O16   O     O_R   0.897920 0.061590 0.889610 -0.537487
O17   O     O_R   0.086950 0.728940 0.916330 -0.539582
O18   O     O_R   0.913050 0.228940 0.083670 -0.539582
C27   C     C_R   0.136125 0.391918 0.137417 0.732367
C28   C     C_R   0.863875 0.891918 0.862583 0.732368
O19   O     O_3   0.994770 0.394510 0.936380 -0.370061
O20   O     O_3   0.005230 0.894510 0.063620 -0.370061
V3    V     V_3+5 0.000970 0.670520 0.011800 1.407994
V4    V     V_3+5 0.999030 0.170520 0.988200 1.407995
O21   O     O_3   0.237498 0.565079 0.610973 -0.562213
C29   C     C_3   0.170063 0.616184 0.527991 0.087973
H11   H     H_    0.201434 0.710275 0.476407 0.120894
H12   H     H_    0.109958 0.692686 0.549787 0.105240
C30   C     C_3   0.134171 0.433511 0.472288 -0.728894
H13   H     H_    0.086020 0.471585 0.402678 0.173216
H14   H     H_    0.192013 0.348538 0.452241 0.219743
H15   H     H_    0.097387 0.343545 0.520673 0.208244
O22   O     O_3   0.762501 0.065078 0.389027 -0.562213
C31   C     C_3   0.829943 0.116170 0.472004 0.087971
H16   H     H_    0.798581 0.210272 0.523591 0.120895
H17   H     H_    0.890050 0.192657 0.450203 0.105240
C32   C     C_3   0.865829 0.933491 0.527705 -0.728896
H18   H     H_    0.913985 0.971556 0.597313 0.173217
H19   H     H_    0.807984 0.848533 0.547757 0.219743
H20   H     H_    0.902605 0.843515 0.479317 0.208245

loop_
_geom_bond_atom_site_label_1
_geom_bond_atom_site_label_2
_ccdc_geom_bond_type
C2    C23   S    
C13   C15   A    
C5    C15   A    
O1    C3    A    
O2    C4    A    
O11   V4    S    
O5    C3    A    
C19   H7    S    
C20   H8    S    
C18   H4    S    
C10   C12   A    
C7    C9    A    
C12   H2    S    
C14   C25   S    
O20   V4    S    
C25   O18   A    
C17   H3    S    
C21   C28   S    
O15   V3    S    
O13   C25   A    
C20   H10   S    
O14   C26   A    
C17   C19   S    
C6    C16   A    
O10   V2    S    
C11   C13   A    
C26   O17   A    
O5    V1    S    
O6    V2    S    
C5    C19   S    
C2    O7    A    
C31   C32   S    
C22   C24   T    
C9    C11   A    
C3    C8    S    
O19   V3    S    
O13   V3    S    
C30   H13   S    
C29   C30   S    
C31   H17   S    
O15   C27   A    
O16   V4    S    
C17   H5    S    
O20   V3    S    
C30   H14   S    
C18   C20   S    
O4    V2    S    
C32   H18   S    
O11   C27   A    
C6    C20   S    
C22   C27   S    
O6    C4    A    
O1    V2    S    
O2    V1    S    
C32   H19   S    
O4    C2    A    
C8    C10   A    
C18   H6    S    
O9    V1    S    
O14   V4    S    
O18   V4    S    
C10   O22   S    
O3    V1    S    
C13   C26   S    
O16   C28   A    
O19   V4    S    
C12   C14   A    
C31   H16   S    
O3    C1    A    
O12   C28   A    
C1    C24   S    
C30   H15   S    
C19   H9    S    
C29   H11   S    
C14   C16   A    
O7    V1    S    
C1    O8    A    
C15   C17   S    
O8    V2    S    
C16   C18   S    
O12   V3    S    
O17   V3    S    
C4    C7    S    
C5    C7    A    
C6    C8    A    
C11   H1    S    
C32   H20   S    
C9    O21   S    
O21   C29   S    
O22   C31   S    
O9    V2    S    
O10   V1    S    
C21   C23   T    
C29   H12   S    
