data_mof_unit_67082.cif
_audit_creation_date              2013-03-05T15:58:17-0500
_audit_creation_method            fapswitch 2.2
_symmetry_space_group_name_H-M    P1
_symmetry_Int_Tables_number       1
_space_group_crystal_system       triclinic
_cell_length_a                    8.230377
_cell_length_b                    12.706173
_cell_length_c                    14.245116
_cell_angle_alpha                 93.082858
_cell_angle_beta                  90.895401
_cell_angle_gamma                 98.052006
_cell_volume                      1472.48041422

loop_
_atom_site_label
_atom_site_type_symbol
_atom_site_description
_atom_site_fract_x
_atom_site_fract_y
_atom_site_fract_z
_atom_type_partial_charge
P1    P     P_3+3 0.054400 0.427280 0.286870 0.503118
O1    O     O_2   0.887370 0.460630 0.272300 -0.375432
O2    O     O_3   0.129410 0.451380 0.388510 -0.363208
O3    O     O_3   0.670210 0.653170 0.329170 -0.363022
O4    O     O_2   0.787097 0.588034 0.165574 -0.355639
O5    O     O_3   0.020560 0.289564 0.261493 -0.552903
O6    O     O_3   0.719209 0.781625 0.171407 -0.484389
H1    H     H_    0.728501 0.875978 0.294266 0.109783
C1    C     C_3   0.637971 0.954232 0.177295 -0.996127
H2    H     H_    0.604573 0.018590 0.226242 0.244481
H3    H     H_    0.757446 0.981545 0.145080 0.272739
P2    P     P_3+3 0.668300 0.742890 0.573060 0.512453
P3    P     P_3+3 0.132684 0.843038 0.377581 0.570644
O7    O     O_2   0.845380 0.761330 0.544970 -0.281128
O8    O     O_3   0.088930 0.704860 0.376040 -0.254801
O9    O     O_2   0.015137 0.886988 0.448055 -0.346556
O10   O     O_3   0.685651 0.765098 0.695384 -0.585440
O11   O     O_3   0.067228 0.883811 0.269564 -0.592201
C2    C     C_3   0.190362 0.876808 0.203515 1.282919
H4    H     H_    0.305734 0.927352 0.228017 -0.161536
C3    C     C_3   0.135916 0.917727 0.111334 -0.943634
H5    H     H_    0.022934 0.867017 0.083098 0.274291
H6    H     H_    0.109936 0.000816 0.122796 0.236204
C4    C     C_3   0.243921 0.765678 0.670033 0.941876
H7    H     H_    0.368294 0.744001 0.661562 -0.130165
C5    C     C_3   0.255256 0.882631 0.699982 1.179399
H8    H     H_    0.326322 0.898255 0.767052 -0.193488
Ba1   Ba    Ba6+2 0.855630 0.555280 0.454520 1.665393
C6    C     C_3   0.969130 0.236345 0.341519 0.387937
H9    H     H_    0.840465 0.246771 0.354047 0.076638
H10   H     H_    0.046665 0.264519 0.404832 0.127858
C7    C     C_3   0.980520 0.118889 0.322898 -0.870196
H11   H     H_    0.914606 0.089524 0.256099 0.256736
H12   H     H_    0.925265 0.072167 0.380951 0.220618
H13   H     H_    0.111388 0.107273 0.316529 0.268150
C8    C     C_3   0.712927 0.671452 0.736790 0.341279
H14   H     H_    0.821503 0.641348 0.706293 0.080280
H15   H     H_    0.604275 0.609397 0.726197 0.123765
C9    C     C_3   0.743990 0.695730 0.842155 -0.051015
H16   H     H_    0.861123 0.750779 0.854783 0.153044
H17   H     H_    0.756549 0.621062 0.876559 0.097079
P4    P     P_3+3 0.135310 0.572810 0.713130 0.556665
O12   O     O_2   0.302330 0.539400 0.727760 -0.384550
O13   O     O_3   0.060300 0.548700 0.611500 -0.259410
O14   O     O_3   0.519500 0.346920 0.670840 -0.348420
O15   O     O_3   0.164364 0.709391 0.741515 -0.684999
P5    P     P_3+3 0.062473 0.156149 0.623350 0.524646
O16   O     O_3   0.614310 0.373510 0.452640 -0.380222
O17   O     O_3   0.100780 0.295230 0.623970 -0.373575
O18   O     O_2   0.193305 0.113481 0.561121 -0.299950
O19   O     O_3   0.114251 0.121956 0.736041 -0.442580
Ba2   Ba    Ba6+2 0.334200 0.444810 0.545490 1.659326
P6    P     P_3+3 0.656952 0.652854 0.206571 0.531602
C10   C     C_3   0.649062 0.854522 0.230286 0.460832
H18   H     H_    0.523231 0.822907 0.252074 0.054299
H19   H     H_    0.543099 0.936657 0.120021 0.266892
O20   O     O_3   0.575400 0.626570 0.547370 -0.384305
C11   C     C_3   0.468508 0.305450 0.257963 0.316355
H20   H     H_    0.355081 0.328967 0.288823 0.083798
H21   H     H_    0.570686 0.372656 0.266539 0.026437
C12   C     C_3   0.436608 0.278280 0.153340 0.042591
H22   H     H_    0.415693 0.351210 0.117834 0.090655
H23   H     H_    0.546001 0.247726 0.123052 0.188000
P7    P     P_3+3 0.526103 0.241398 0.421936 0.421627
O21   O     O_2   0.344320 0.238700 0.455090 -0.373617
O22   O     O_3   0.512118 0.215968 0.299981 -0.585072
H24   H     H_    0.234187 0.916015 0.058942 0.217098
C13   C     C_3   0.990037 0.144289 0.796980 0.462337
H25   H     H_    0.962580 0.227129 0.791209 0.022056
H26   H     H_    0.878533 0.085809 0.781005 0.061284
C14   C     C_3   0.045889 0.133064 0.897870 -0.915737
H27   H     H_    0.158586 0.190213 0.915238 0.278025
H28   H     H_    0.948468 0.150645 0.946933 0.214475
H29   H     H_    0.071963 0.050619 0.906959 0.268537
P8    P     P_3+3 0.536411 0.348834 0.793590 0.550299
C15   C     C_3   0.536166 0.145949 0.780627 0.567323
H30   H     H_    0.658682 0.176719 0.753537 -0.083200
O23   O     O_2   0.417096 0.421149 0.835482 -0.358503
O24   O     O_3   0.460154 0.223228 0.830736 -0.481646
H31   H     H_    0.455929 0.113175 0.719654 0.162712
H32   H     H_    0.650876 0.087573 0.901856 0.256773
C16   C     C_3   0.558111 0.057516 0.845551 -1.010118
H33   H     H_    0.600657 0.989878 0.804567 0.226113
H34   H     H_    0.440069 0.029583 0.879200 0.278925
C17   C     C_R   0.988050 0.443626 0.061133 0.018030
C18   C     C_R   0.182595 0.499670 0.196654 0.172058
C19   C     C_R   0.334892 0.554747 0.227664 0.195001
C20   C     C_R   0.450015 0.596429 0.163404 0.141607
C21   C     C_R   0.407045 0.595815 0.068264 -0.275127
C22   C     C_R   0.250104 0.549737 0.035374 0.094118
C23   C     C_R   0.138906 0.496388 0.098444 -0.080340
C24   C     C_R   0.055107 0.501415 0.902116 -0.180545
C25   C     C_R   0.944368 0.447176 0.965165 -0.144352
C26   C     C_R   0.011499 0.497468 0.803734 0.168170
C27   C     C_R   0.864234 0.436668 0.772334 0.060565
C28   C     C_R   0.747249 0.396618 0.836449 -0.079362
C29   C     C_R   0.788104 0.399523 0.932002 0.579415
C30   C     C_R   0.205902 0.554608 0.939625 0.008008
H35   H     H_    0.496253 0.631519 0.020220 0.212289
H36   H     H_    0.902590 0.399463 0.106276 0.185674
H37   H     H_    0.291942 0.598965 0.894835 0.173608
C31   C     C_R   0.768023 0.174823 0.531312 -0.527443
C32   C     C_R   0.432401 0.813467 0.459916 -0.334720
C33   C     C_R   0.409007 0.994235 0.425632 -0.197018
C34   C     C_R   0.344745 0.887044 0.420542 0.203386
C35   C     C_R   0.577881 0.846443 0.511812 0.199478
C36   C     C_R   0.642887 0.956761 0.520675 -0.028942
C37   C     C_R   0.557482 0.030913 0.475244 0.016620
C38   C     C_R   0.620843 0.140322 0.482610 0.255700
C39   C     C_R   0.854808 0.103991 0.574771 0.144794
C40   C     C_R   0.790093 0.995741 0.572364 -0.185407
H38   H     H_    0.338186 0.048057 0.393066 0.160527
H39   H     H_    0.858224 0.943452 0.608878 0.234665
H40   H     H_    0.821159 0.257321 0.529607 0.170061
H41   H     H_    0.380712 0.730272 0.455932 0.212418
F1    F     F_    0.331479 0.944278 0.632496 -0.744936
F2    F     F_    0.099182 0.908338 0.713435 -0.689019
O25   O     O_3   0.611878 0.739289 0.882118 -0.724492
H42   H     H_    0.633581 0.817274 0.875259 0.355015
O26   O     O_3   0.298198 0.200798 0.140020 -0.703736
H43   H     H_    0.289812 0.181693 0.071447 0.340470
F3    F     F_    0.216337 0.772057 0.187470 -0.729054
O27   O     O_3   0.370275 0.569822 0.322129 -0.696713
H44   H     H_    0.429755 0.510259 0.338420 0.313057
F4    F     F_    0.674703 0.356914 0.992470 -0.722515
O28   O     O_3   0.834406 0.418399 0.677643 -0.674026
H45   H     H_    0.803844 0.340511 0.668049 0.309002
F5    F     F_    0.155821 0.747123 0.586053 -0.655569

loop_
_geom_bond_atom_site_label_1
_geom_bond_atom_site_label_2
_geom_bond_distance
_ccdc_geom_bond_type
C19   O27   1.369941 S    
C19   C20   1.398173 A    
C2    F3    1.384918 S    
O28   H45   0.987930 S    
O3    P6    1.747899 S    
C2    H4    1.109328 S    
C5    F2    1.382738 S    
H32   C16   1.112798 S    
O8    Ba1   2.796838 S    
C24   C30   1.409986 A    
O27   H44   0.992673 S    
P5    O17   1.750597 S    
Ba1   O20   2.905369 S    
C5    H8    1.106320 S    
P3    O11   1.750505 S    
C21   H35   1.081224 S    
O4    P6    1.543281 D    
O2    Ba1   2.910417 S    
C2    C3    1.521765 S    
C4    C5    1.513516 S    
O11   C2    1.402238 S    
C6    C7    1.517842 S    
C18   C23   1.435989 A    
O12   Ba2   2.833521 S    
O16   P7    1.762348 S    
C35   C36   1.426799 A    
C11   H21   1.111632 S    
C37   C38   1.412463 A    
P1    O1    1.508720 D    
P4    O15   1.742874 S    
C12   H23   1.113349 S    
O25   H42   0.992322 S    
C39   C40   1.402075 A    
C17   C25   1.412795 A    
C11   O22   1.400218 S    
C27   C28   1.400132 A    
C13   H25   1.114050 S    
P2    O10   1.750554 S    
P1    Ba1   3.387427 S    
C36   C37   1.427422 A    
C15   O24   1.405622 S    
O10   C8    1.400105 S    
C32   C35   1.397919 A    
C1    H2    1.112677 S    
O13   Ba2   2.911181 S    
C11   C12   1.521946 S    
C3    H5    1.110948 S    
C3    H24   1.110718 S    
C12   O26   1.400685 S    
C12   H22   1.111986 S    
P4    O13   1.562781 S    
C33   C34   1.387942 A    
O3    Ba1   2.783864 S    
P8    C28   1.839682 S    
P5    O18   1.543021 D    
C17   C23   1.407611 A    
P1    O5    1.749992 S    
C7    H13   1.111890 S    
C4    H7    1.103420 S    
P3    C34   1.841141 S    
H1    C10   1.112288 S    
C9    H16   1.114964 S    
C33   H38   1.077031 S    
C18   C19   1.399912 A    
P5    O19   1.747230 S    
O14   Ba2   2.783270 S    
C11   H20   1.109457 S    
Ba1   O13   2.790517 S    
P1    O2    1.562900 S    
P7    O22   1.748917 S    
C32   H41   1.080952 S    
C6    H9    1.101574 S    
C31   H40   1.079482 S    
P7    C38   1.839374 S    
O17   Ba2   2.797429 S    
C28   C29   1.394282 A    
C24   C26   1.437747 A    
C40   H39   1.076488 S    
C1    H19   1.112142 S    
C15   H30   1.111980 S    
C1    H3    1.110673 S    
P2    O20   1.587283 S    
C29   F4    1.356430 S    
P2    Ba1   3.404281 S    
C16   H34   1.111694 S    
C3    H6    1.110294 S    
C32   C34   1.393478 A    
C31   C39   1.389124 A    
P4    O12   1.509077 D    
O6    P6    1.746962 S    
C15   C16   1.521165 S    
C9    O25   1.402408 S    
C25   C29   1.405691 A    
C33   C37   1.409959 A    
O26   H43   0.992771 S    
C14   H28   1.110038 S    
P1    C18   1.873092 S    
C10   H18   1.112281 S    
Ba1   O16   2.826019 S    
P4    C26   1.876527 S    
C36   C40   1.421323 A    
C8    C9    1.526259 S    
C15   H31   1.109072 S    
P2    O7    1.507243 D    
C14   H29   1.112153 S    
O2    Ba2   2.791085 S    
P5    C39   1.853571 S    
C30   H37   1.080360 S    
O14   P8    1.750540 S    
C4    O15   1.394656 S    
C7    H11   1.108131 S    
P3    O8    1.741031 S    
C14   H27   1.110696 S    
C6    H10   1.109996 S    
C17   H36   1.079596 S    
P7    O21   1.572303 D    
P2    C35   1.850346 S    
Ba1   Ba2   4.555077 S    
C27   O28   1.368813 S    
C22   C23   1.421869 A    
C13   C14   1.522153 S    
C8    H15   1.108886 S    
C24   C25   1.424259 A    
P6    C20   1.835940 S    
O19   C13   1.400626 S    
C26   C27   1.396252 A    
P8    O23   1.541700 D    
C5    F1    1.376037 S    
Ba2   O20   2.825347 S    
O16   Ba2   2.904586 S    
O5    C6    1.397791 S    
C20   C21   1.394640 A    
C9    H17   1.107640 S    
C8    H14   1.106172 S    
C16   H33   1.113011 S    
P3    O9    1.541776 D    
P4    Ba2   3.387883 S    
C4    F5    1.381000 S    
C13   H26   1.109224 S    
C31   C38   1.390359 A    
O1    Ba1   2.833004 S    
C1    C10   1.521955 S    
O6    C10   1.405740 S    
O7    Ba1   2.867786 S    
C21   C22   1.403736 A    
P8    O24   1.744034 S    
C22   C30   1.412953 A    
Ba2   O21   2.868005 S    
C7    H12   1.109975 S    
