data_mof_unit_51766.cif
_audit_creation_date              2012-12-10T18:01:18-0500
_audit_creation_method            fapswitch 2.2
_symmetry_space_group_name_H-M    P1
_symmetry_Int_Tables_number       1
_space_group_crystal_system       triclinic
_cell_length_a                    9.50488
_cell_length_b                    10.834173
_cell_length_c                    17.24998
_cell_angle_alpha                 90.126716
_cell_angle_beta                  87.716408
_cell_angle_gamma                 90.011695
_cell_volume                      1774.94500674

loop_
_atom_site_label
_atom_site_type_symbol
_atom_type_description
_atom_site_fract_x
_atom_site_fract_y
_atom_site_fract_z
_atom_type_partial_charge
C1    C     C_R   0.500042 0.737969 0.500060 0.785253
C2    C     C_R   0.499959 0.262031 0.499940 0.792201
C3    C     C_R   0.627849 0.936188 0.500289 -0.188165
C4    C     C_R   0.372152 0.063802 0.499728 -0.187525
C5    C     C_R   0.627830 0.063882 0.500186 -0.188341
C6    C     C_R   0.372172 0.936108 0.499821 -0.188620
C7    C     C_R   0.499978 0.128199 0.499929 -0.018898
C8    C     C_R   0.500023 0.871794 0.500078 -0.017440
C9    C     C_R   0.921802 0.571555 0.551341 -0.031603
C10   C     C_R   0.078192 0.428457 0.448661 -0.035068
C11   C     C_R   0.070731 0.571608 0.551275 -0.024746
C12   C     C_R   0.929265 0.428398 0.448727 -0.021073
C13   C     C_R   0.484174 0.503993 0.650085 0.802236
C14   C     C_R   0.515776 0.500159 0.349963 0.800289
C15   C     C_R   0.483925 0.518461 0.734426 -0.063641
C16   C     C_R   0.514453 0.495723 0.265521 -0.048268
C17   C     C_R   0.607234 0.560468 0.768488 -0.200603
C18   C     C_R   0.397366 0.544590 0.229316 -0.225990
C19   C     C_R   0.614038 0.573440 0.849098 0.120559
C20   C     C_R   0.378518 0.526148 0.150389 0.133052
C21   C     C_R   0.492840 0.543586 0.895058 0.142888
C22   C     C_R   0.483553 0.461142 0.106709 0.156910
C23   C     C_R   0.369202 0.503315 0.861027 -0.177413
C24   C     C_R   0.601293 0.413231 0.142776 -0.196381
C25   C     C_R   0.364307 0.491576 0.780947 -0.219254
C26   C     C_R   0.617173 0.430788 0.221990 -0.220579
C27   C     C_2   0.494761 0.551600 0.979383 -0.271538
C28   C     C_2   0.478536 0.450359 0.022619 -0.253794
Cu1   Cu    Cu3+1 0.359340 0.499980 0.500000 0.938685
Cu2   Cu    Cu3+1 0.640660 0.500020 0.500000 0.940021
H1    H     H_    0.697619 0.583120 0.731322 0.142070
H2    H     H_    0.318194 0.595384 0.263261 0.149722
H3    H     H_    0.707019 0.390968 0.249476 0.143487
H4    H     H_    0.268264 0.459859 0.755615 0.156098
H5    H     H_    0.469049 0.359812 0.996117 0.164073
H6    H     H_    0.515642 0.640319 0.006182 0.161809
H7    H     H_    0.276542 0.480712 0.896819 0.141308
H8    H     H_    0.681732 0.363437 0.109213 0.139157
H9    H     H_    0.727799 0.888187 0.500526 0.148869
H10   H     H_    0.272201 0.111801 0.499499 0.148884
H11   H     H_    0.727771 0.111943 0.500329 0.148765
H12   H     H_    0.272232 0.888045 0.499673 0.148632
H13   H     H_    0.862601 0.628928 0.592373 0.108377
H14   H     H_    0.137401 0.371095 0.407634 0.117307
H15   H     H_    0.123927 0.629175 0.592229 0.119375
H16   H     H_    0.876058 0.370825 0.407780 0.114800
N1    N     N_R   0.147930 0.499970 0.499980 -0.156684
N2    N     N_R   0.852070 0.500030 0.500020 -0.154861
O1    O     O_R   0.381260 0.680340 0.500000 -0.590003
O2    O     O_R   0.618740 0.319660 0.500000 -0.587981
O3    O     O_R   0.618830 0.680370 0.500010 -0.588392
O4    O     O_R   0.381170 0.319630 0.499990 -0.586579
O5    O     O_R   0.367440 0.500000 0.613600 -0.584962
O6    O     O_R   0.632560 0.500000 0.386400 -0.583525
O7    O     O_R   0.605010 0.500030 0.613600 -0.589206
O8    O     O_R   0.394990 0.499970 0.386400 -0.588842
C29   C     C_3   0.244847 0.575065 0.115983 -0.425726
C30   C     C_3   0.114292 0.507054 0.149302 -0.352716
C31   C     C_3   0.980266 0.554215 0.113573 -0.851156
H17   H     H_    0.969101 0.655334 0.122690 0.257930
H18   H     H_    0.982189 0.533571 0.050496 0.247840
H19   H     H_    0.887734 0.507639 0.141579 0.247475
H20   H     H_    0.124853 0.406517 0.137304 0.219607
H21   H     H_    0.104041 0.520506 0.213163 0.217789
H22   H     H_    0.235690 0.675337 0.129123 0.192270
H23   H     H_    0.246412 0.565415 0.052004 0.216920
C32   C     C_3   0.748263 0.614208 0.887801 -0.407919
C33   C     C_3   0.877534 0.636539 0.833051 -0.372181
C34   C     C_3   0.006659 0.671352 0.878223 -0.849762
H24   H     H_    0.985407 0.755555 0.913631 0.255928
H25   H     H_    0.035849 0.594423 0.916795 0.244896
H26   H     H_    0.096938 0.689943 0.837047 0.246319
H27   H     H_    0.902589 0.551333 0.799201 0.218954
H28   H     H_    0.855234 0.712981 0.792441 0.215354
H29   H     H_    0.725214 0.700806 0.920589 0.193712
H30   H     H_    0.776341 0.541959 0.930222 0.209615

loop_
_geom_bond_atom_site_label_1
_geom_bond_atom_site_label_2
_ccdc_geom_bond_type
C14   O8    A    
Cu2   O3    S    
C1    C8    S    
C11   N1    A    
C2    C7    S    
C29   H23   S    
C12   N2    A    
Cu1   O1    S    
Cu2   O6    S    
Cu1   N1    S    
Cu2   N2    S    
C19   C21   A    
C24   C26   A    
C15   C25   A    
C33   H28   S    
C34   H25   S    
C2    O2    A    
C4    H10   S    
C28   H5    S    
C33   C34   S    
C24   H8    S    
C19   C32   S    
C18   C20   A    
C25   H4    S    
Cu2   O2    S    
C3    H9    S    
C31   H17   S    
C22   C28   S    
C30   H21   S    
C4    C7    A    
C10   C12   A    
C13   O5    A    
C16   C26   A    
C9    H13   S    
C31   H18   S    
C10   H14   S    
C32   C33   S    
C4    C6    A    
C3    C8    A    
C5    C7    A    
C6    C8    A    
C33   H27   S    
C23   H7    S    
C34   H26   S    
Cu1   Cu2   S    
C9    C11   A    
C26   H3    S    
C1    O3    A    
C2    O4    A    
C12   H16   S    
C14   O6    A    
C20   C22   A    
C13   C15   S    
C17   H1    S    
C22   C24   A    
C11   H15   S    
C18   H2    S    
C10   N1    A    
C30   H20   S    
C15   C17   A    
C5    H11   S    
C31   H19   S    
C29   H22   S    
C3    C5    A    
Cu1   O8    S    
C27   H6    S    
Cu2   O7    S    
C21   C23   A    
C30   C31   S    
C29   C30   S    
Cu1   O5    S    
C17   C19   A    
C14   C16   S    
C23   C25   A    
C21   C27   S    
C34   H24   S    
C32   H29   S    
C9    N2    A    
C16   C18   A    
C6    H12   S    
C27   C28   D    
C32   H30   S    
C20   C29   S    
C1    O1    A    
C13   O7    A    
Cu1   O4    S    
