data_mof_unit_24540.cif
_audit_creation_date              2012-12-10T19:05:22-0500
_audit_creation_method            fapswitch 2.2
_symmetry_space_group_name_H-M    P1
_symmetry_Int_Tables_number       1
_space_group_crystal_system       triclinic
_cell_length_a                    9.546328
_cell_length_b                    10.871694
_cell_length_c                    17.379299
_cell_angle_alpha                 90.301067
_cell_angle_beta                  86.079819
_cell_angle_gamma                 89.448394
_cell_volume                      1799.37111956

loop_
_atom_site_label
_atom_site_type_symbol
_atom_type_description
_atom_site_fract_x
_atom_site_fract_y
_atom_site_fract_z
_atom_type_partial_charge
C1    C     C_R   0.499492 0.737475 0.500663 0.844241
C2    C     C_R   0.342524 0.531896 0.775051 -0.130195
C3    C     C_R   0.414949 0.553257 0.149113 -0.135136
C4    C     C_R   0.412382 0.553433 0.228929 -0.206551
C5    C     C_R   0.644525 0.460344 0.222843 -0.201455
C6    C     C_R   0.647850 0.460975 0.142684 -0.165051
C7    C     C_R   0.533207 0.507233 0.105139 0.189355
C8    C     C_2   0.451028 0.562955 0.977440 -0.219880
C9    C     C_2   0.539746 0.501697 0.020430 -0.222609
C10   C     C_R   0.526146 0.505712 0.266296 -0.021287
C11   C     C_R   0.378237 0.940769 0.510447 0.093582
C12   C     C_R   0.481832 0.502888 0.649772 0.833961
C13   C     C_R   0.500621 0.870413 0.499706 -0.107914
C14   C     C_R   0.628424 0.934093 0.486310 -0.188255
C15   C     C_R   0.629630 0.063197 0.485154 -0.197142
C16   C     C_R   0.502795 0.130499 0.496208 -0.068219
C17   C     C_R   0.379574 0.064738 0.506316 0.018168
C18   C     C_3   0.226015 0.081107 0.524695 -0.478972
C19   C     C_3   0.222909 0.939045 0.531519 0.505933
C20   C     C_R   0.933229 0.423257 0.451664 0.263737
C21   C     C_R   0.918010 0.563857 0.554010 -0.064525
C22   C     C_R   0.066706 0.562205 0.554678 -0.092902
C23   C     C_R   0.500838 0.262856 0.498706 0.814431
C24   C     C_R   0.080593 0.423616 0.451496 0.259605
C25   C     C_3   0.096860 0.422339 0.365672 -0.495815
C26   C     C_3   0.938217 0.421499 0.365798 -0.521738
C27   C     C_R   0.518063 0.501362 0.350299 0.777292
C28   C     C_R   0.472983 0.515692 0.733687 -0.024500
C29   C     C_R   0.596835 0.518775 0.772657 -0.193479
C30   C     C_R   0.590527 0.536379 0.851828 -0.138348
C31   C     C_R   0.460081 0.549799 0.893403 0.183538
C32   C     C_R   0.336351 0.549617 0.854604 -0.151575
Cu1   Cu    Cu3+1 0.359330 0.500020 0.500000 0.967086
Cu2   Cu    Cu3+1 0.640670 0.499980 0.500000 0.954212
H1    H     H_    0.699026 0.508745 0.742020 0.154643
H2    H     H_    0.739690 0.424341 0.109920 0.125899
H3    H     H_    0.727410 0.884876 0.477175 0.169870
H4    H     H_    0.729249 0.109569 0.475952 0.161837
H5    H     H_    0.203038 0.133337 0.579197 0.234297
H6    H     H_    0.172625 0.119694 0.475265 0.167159
H7    H     H_    0.856422 0.618411 0.596411 0.162253
H8    H     H_    0.115981 0.613947 0.598181 0.204498
H9    H     H_    0.142205 0.508774 0.341785 0.213813
H10   H     H_    0.321062 0.591159 0.261387 0.140160
H11   H     H_    0.147465 0.336091 0.342486 0.195679
H12   H     H_    0.895163 0.507160 0.341474 0.220612
H13   H     H_    0.896782 0.334315 0.343079 0.188537
H14   H     H_    0.732761 0.421908 0.250598 0.142855
H15   H     H_    0.620864 0.443054 0.992285 0.148478
H16   H     H_    0.235071 0.561107 0.886063 0.127151
H17   H     H_    0.322647 0.587099 0.123190 0.120869
H18   H     H_    0.245662 0.531756 0.746027 0.158121
H19   H     H_    0.366687 0.620066 0.003139 0.146024
H20   H     H_    0.687849 0.540704 0.880220 0.129250
N1    N     N_R   0.852130 0.499070 0.499500 -0.192206
N2    N     N_R   0.148040 0.499110 0.499500 -0.198101
O1    O     O_R   0.381190 0.680360 0.500000 -0.564291
O2    O     O_R   0.618770 0.680320 0.499990 -0.589306
O3    O     O_R   0.367430 0.500040 0.613600 -0.573076
O4    O     O_R   0.605020 0.500000 0.613590 -0.595723
O5    O     O_R   0.381230 0.319680 0.500010 -0.580656
O6    O     O_R   0.618810 0.319640 0.500000 -0.587009
O7    O     O_R   0.394980 0.500000 0.386410 -0.592936
O8    O     O_R   0.632570 0.499960 0.386400 -0.591072
S1    S     S_3+6 0.184333 0.888936 0.629547 -0.032939
O9    O     O_2   0.270962 0.776832 0.645036 -0.334544
O10   O     O_2   0.217768 0.987916 0.685996 -0.276693
O11   O     O_3   0.012827 0.854980 0.642371 -0.570286
H21   H     H_    0.002980 0.811701 0.692431 0.365985
C33   C     C_3   0.132680 0.874000 0.472965 -0.377290
C34   C     C_3   0.183599 0.888831 0.387957 -0.918720
H22   H     H_    0.187404 0.987102 0.371277 0.253299
H23   H     H_    0.289151 0.846238 0.376363 0.257787
H24   H     H_    0.109893 0.841358 0.351262 0.252054
H25   H     H_    0.130134 0.774379 0.485344 0.239756
H26   H     H_    0.023011 0.909294 0.481312 0.214368

loop_
_geom_bond_atom_site_label_1
_geom_bond_atom_site_label_2
_ccdc_geom_bond_type
C10   C27   S    
C25   H9    S    
C30   H20   S    
C11   C19   S    
C12   C28   S    
C5    C6    A    
C28   C29   A    
C3    C7    A    
C30   C31   A    
C15   C16   A    
Cu2   O6    S    
C2    C32   A    
C18   C19   S    
C18   H6    S    
O11   H21   S    
C12   O3    A    
C23   O6    A    
C20   C24   A    
C16   C17   A    
S1    O10   D    
C33   C34   S    
Cu1   N2    S    
Cu2   N1    S    
Cu1   O3    S    
C21   C22   A    
Cu2   O4    S    
C20   N1    A    
C17   C18   S    
C5    H14   S    
C9    H15   S    
C24   C25   S    
C34   H23   S    
C3    H17   S    
C8    C9    D    
C22   N2    A    
C4    H10   S    
C25   C26   S    
C18   H5    S    
C15   H4    S    
C29   C30   A    
C2    H18   S    
C1    O1    A    
C31   C32   A    
Cu1   O7    S    
S1    O11   S    
Cu2   O8    S    
Cu1   Cu2   S    
C32   H16   S    
C27   O7    A    
C26   H13   S    
C21   H7    S    
C16   C23   S    
C33   H26   S    
C1    C13   S    
C4    C10   A    
C3    C4    A    
C25   H11   S    
C21   N1    A    
C7    C9    S    
C11   C17   A    
Cu1   O1    S    
C8    C31   S    
C8    H19   S    
C34   H24   S    
C6    C7    A    
C24   N2    A    
C29   H1    S    
C5    C10   A    
C1    O2    A    
C14   H3    S    
C11   C13   A    
C22   H8    S    
C20   C26   S    
C6    H2    S    
C19   S1    S    
C27   O8    A    
C26   H12   S    
C12   O4    A    
C23   O5    A    
C34   H22   S    
Cu1   O5    S    
S1    O9    D    
C33   H25   S    
Cu2   O2    S    
C14   C15   A    
C19   C33   S    
C2    C28   A    
C13   C14   A    
