data_mof_unit_19658.cif
_audit_creation_date              2012-12-11T15:08:30-0500
_audit_creation_method            fapswitch 2.2
_symmetry_space_group_name_H-M    P1
_symmetry_Int_Tables_number       1
_space_group_crystal_system       triclinic
_cell_length_a                    21.609278
_cell_length_b                    21.543619
_cell_length_c                    22.690627
_cell_angle_alpha                 89.932208
_cell_angle_beta                  89.911623
_cell_angle_gamma                 89.884977
_cell_volume                      10563.3998489

loop_
_atom_site_label
_atom_site_type_symbol
_atom_type_description
_atom_site_fract_x
_atom_site_fract_y
_atom_site_fract_z
_atom_type_partial_charge
C1    C     C_R   0.938019 0.136381 0.110075 -0.110356
C2    C     C_R   0.083584 0.157667 0.079722 -0.125314
C3    C     C_R   0.124369 0.698329 0.260501 0.561314
C4    C     C_R   0.124815 0.301956 0.740610 0.554567
C5    C     C_R   0.649120 0.757388 0.124766 0.504261
C6    C     C_R   0.242739 0.648350 0.874275 0.506719
C7    C     C_R   0.875971 0.301130 0.260658 0.561019
C8    C     C_R   0.198417 0.375142 0.242943 0.528843
C9    C     C_R   0.743815 0.850057 0.625121 0.504594
C10   C     C_R   0.257338 0.852025 0.373585 0.506069
C11   C     C_R   0.625092 0.198042 0.759373 0.557399
C12   C     C_R   0.799994 0.622084 0.239353 0.529364
C13   C     C_R   0.157572 0.916747 0.919762 -0.119693
C14   C     C_R   0.257806 0.148583 0.626098 0.505365
C15   C     C_R   0.742160 0.147689 0.373877 0.505578
C16   C     C_R   0.375069 0.801609 0.759221 0.557753
C17   C     C_R   0.888162 0.114327 0.141782 0.081999
C18   C     C_R   0.146953 0.856201 0.904268 0.098985
C19   C     C_R   0.143563 0.146312 0.096144 0.101056
C20   C     C_R   0.888977 0.886373 0.858034 0.082312
C21   C     C_R   0.111551 0.885545 0.141808 0.081930
C22   C     C_R   0.853256 0.143801 0.904014 0.098874
C23   C     C_R   0.856194 0.853430 0.095856 0.102376
C24   C     C_R   0.861242 0.066355 0.109528 -0.135021
C25   C     C_R   0.112007 0.114419 0.858325 0.081067
C26   C     C_R   0.387854 0.614344 0.641607 0.081455
C27   C     C_R   0.646495 0.355693 0.404244 0.099810
C28   C     C_R   0.646248 0.643393 0.596410 0.099483
C29   C     C_R   0.386163 0.388670 0.358163 0.083948
C30   C     C_R   0.611809 0.385567 0.641668 0.081552
C31   C     C_R   0.353656 0.644263 0.404015 0.099815
C32   C     C_R   0.353275 0.356304 0.596018 0.099122
C33   C     C_R   0.613659 0.611039 0.357774 0.084884
C34   C     C_R   0.842776 0.890285 0.756251 0.488216
C35   C     C_R   0.062057 0.136564 0.889966 -0.102710
C36   C     C_R   0.156612 0.239219 0.156126 0.476682
C37   C     C_R   0.758474 0.157448 0.846807 0.436337
C38   C     C_R   0.156895 0.890565 0.244084 0.471909
C39   C     C_R   0.157937 0.109619 0.756133 0.477442
C40   C     C_R   0.842602 0.759126 0.154192 0.475634
C41   C     C_R   0.242054 0.842493 0.847253 0.436310
C42   C     C_R   0.842538 0.109133 0.244111 0.472020
C43   C     C_R   0.390065 0.342571 0.256219 0.485072
C44   C     C_R   0.738301 0.656419 0.657019 0.465550
C45   C     C_R   0.258750 0.657879 0.346948 0.443121
C46   C     C_R   0.916297 0.842236 0.079545 -0.126841
C47   C     C_R   0.657369 0.390400 0.743833 0.475649
C48   C     C_R   0.609067 0.657356 0.255742 0.484321
C49   C     C_R   0.258202 0.342676 0.653051 0.436174
C50   C     C_R   0.741778 0.341950 0.347460 0.442995
C51   C     C_R   0.342133 0.609413 0.743875 0.476684
C52   C     C_R   0.866851 0.856393 0.804619 -0.304950
C53   C     C_R   0.183854 0.194874 0.118564 -0.308070
C54   C     C_R   0.804138 0.184578 0.882778 -0.293037
C55   C     C_R   0.132932 0.856087 0.196097 -0.290309
C56   C     C_R   0.133872 0.143977 0.804290 -0.287984
C57   C     C_R   0.842519 0.083270 0.919676 -0.119260
C58   C     C_R   0.815608 0.804541 0.117576 -0.307966
C59   C     C_R   0.196189 0.815410 0.883226 -0.293601
C60   C     C_R   0.866665 0.143678 0.196089 -0.290275
C61   C     C_R   0.356267 0.366684 0.304615 -0.302077
C62   C     C_R   0.694605 0.683727 0.618979 -0.309886
C63   C     C_R   0.304679 0.685130 0.382569 -0.292876
C64   C     C_R   0.633583 0.356020 0.695701 -0.289943
C65   C     C_R   0.643137 0.632457 0.303586 -0.302001
C66   C     C_R   0.304158 0.315553 0.617149 -0.291921
C67   C     C_R   0.695561 0.314769 0.382996 -0.292961
C68   C     C_R   0.138585 0.933572 0.109535 -0.135063
C69   C     C_R   0.365927 0.643827 0.695616 -0.290843
C70   C     C_R   0.872449 0.791305 0.801906 0.492195
C71   C     C_R   0.246629 0.200275 0.101351 0.504936
C72   C     C_R   0.799417 0.247838 0.899394 0.499877
C73   C     C_R   0.126655 0.791035 0.200098 0.496666
C74   C     C_R   0.127758 0.209061 0.800680 0.489698
C75   C     C_R   0.752691 0.799973 0.100722 0.504236
C76   C     C_R   0.200711 0.752111 0.899895 0.500203
C77   C     C_R   0.873136 0.208698 0.200119 0.497109
C78   C     C_R   0.291396 0.372732 0.301671 0.500647
C79   C     C_R   0.437780 0.636490 0.609998 -0.102222
C80   C     C_R   0.700455 0.746573 0.601497 0.506983
C81   C     C_R   0.300142 0.748470 0.398934 0.496239
C82   C     C_R   0.627730 0.290939 0.699314 0.487235
C83   C     C_R   0.707871 0.625337 0.299511 0.500117
C84   C     C_R   0.299781 0.252281 0.600550 0.501907
C85   C     C_R   0.699783 0.251363 0.399339 0.496070
C86   C     C_R   0.371862 0.708895 0.699147 0.487584
C87   C     C_R   0.584969 0.342978 0.417080 -0.132119
C88   C     C_R   0.657363 0.583036 0.580516 -0.114099
C89   C     C_R   0.085676 0.842957 0.917723 -0.151885
C90   C     C_R   0.363969 0.438503 0.389846 -0.108350
C91   C     C_R   0.562006 0.363467 0.610051 -0.102003
C92   C     C_R   0.415105 0.657020 0.416951 -0.132450
C93   C     C_R   0.342494 0.416865 0.580369 -0.119221
C94   C     C_R   0.635857 0.561308 0.389648 -0.109604
C95   C     C_R   0.434038 0.361478 0.390338 -0.130565
C96   C     C_R   0.585172 0.656881 0.582683 -0.152207
C97   C     C_R   0.657607 0.415943 0.420494 -0.136356
C98   C     C_R   0.361082 0.566337 0.609398 -0.143015
C99   C     C_R   0.565892 0.638364 0.390117 -0.129462
C100  C     C_R   0.156676 0.084804 0.083101 -0.137935
C101  C     C_R   0.414561 0.342993 0.582488 -0.151597
C102  C     C_R   0.342477 0.584005 0.420362 -0.136089
C103  C     C_R   0.638720 0.433606 0.609423 -0.143168
C104  C     C_R   0.858875 0.760908 0.750049 -0.054725
C105  C     C_R   0.284603 0.243373 0.131183 -0.046962
C106  C     C_R   0.755900 0.285914 0.869981 -0.058846
C107  C     C_R   0.139843 0.761302 0.252637 -0.071600
C108  C     C_R   0.140581 0.238960 0.748162 -0.071711
C109  C     C_R   0.714446 0.756744 0.130297 -0.046475
C110  C     C_R   0.244145 0.713952 0.870426 -0.058521
C111  C     C_R   0.861684 0.934160 0.890299 -0.139947
C112  C     C_R   0.860148 0.238280 0.252747 -0.071110
C113  C     C_R   0.261217 0.359445 0.249653 -0.049128
C114  C     C_R   0.743372 0.784599 0.631460 -0.048657
C115  C     C_R   0.256298 0.786418 0.369789 -0.058074
C116  C     C_R   0.640567 0.261053 0.751822 -0.071833
C117  C     C_R   0.737499 0.638545 0.247069 -0.049407
C118  C     C_R   0.256324 0.214182 0.629940 -0.057664
C119  C     C_R   0.743530 0.213305 0.370148 -0.057577
C120  C     C_R   0.359303 0.738690 0.751728 -0.072079
C121  C     C_R   0.162451 0.339361 0.204415 -0.113214
C122  C     C_R   0.061811 0.863535 0.110102 -0.110153
C123  C     C_R   0.779538 0.886567 0.664727 -0.122541
C124  C     C_R   0.217050 0.887944 0.337569 -0.110995
C125  C     C_R   0.656690 0.163578 0.802263 -0.093862
C126  C     C_R   0.836044 0.658053 0.200861 -0.112927
C127  C     C_R   0.217934 0.112514 0.662375 -0.107345
C128  C     C_R   0.782301 0.111701 0.337732 -0.110324
C129  C     C_R   0.343773 0.836060 0.802337 -0.091735
C130  C     C_R   0.838089 0.661785 0.705262 -0.104821
C131  C     C_R   0.386323 0.279347 0.164546 -0.116210
C132  C     C_R   0.717183 0.387558 0.837520 -0.110579
C133  C     C_R   0.914472 0.157034 0.917521 -0.151291
C134  C     C_R   0.156537 0.663877 0.303054 -0.095127
C135  C     C_R   0.156329 0.336437 0.697669 -0.089905
C136  C     C_R   0.612603 0.721522 0.164458 -0.116337
C137  C     C_R   0.282498 0.612250 0.837849 -0.108270
C138  C     C_R   0.844017 0.335571 0.303383 -0.094636
C139  C     C_R   0.815065 0.857088 0.709306 0.030697
C140  C     C_R   0.190990 0.289828 0.174288 0.025055
C141  C     C_R   0.707010 0.191931 0.831019 -0.013128
C142  C     C_R   0.183017 0.857985 0.292315 0.005522
C143  C     C_R   0.183869 0.142343 0.707876 0.002882
C144  C     C_R   0.843218 0.915058 0.082995 -0.137981
C145  C     C_R   0.807841 0.708452 0.171737 0.025325
C146  C     C_R   0.293389 0.807844 0.831324 -0.014753
C147  C     C_R   0.816515 0.141659 0.292433 0.005284
C148  C     C_R   0.356978 0.315022 0.209135 0.031558
C149  C     C_R   0.788961 0.690628 0.675033 0.022564
C150  C     C_R   0.207163 0.692307 0.331327 -0.019114
C151  C     C_R   0.683331 0.357701 0.792070 0.002757
C152  C     C_R   0.641944 0.684878 0.208334 0.032002
C153  C     C_R   0.206869 0.308134 0.668888 -0.014517
C154  C     C_R   0.793223 0.307308 0.331749 -0.019611
C155  C     C_R   0.138895 0.066323 0.890583 -0.137346
C156  C     C_R   0.316344 0.642090 0.792219 0.002056
C157  C     C_R   0.821955 0.791743 0.708009 -0.155517
C158  C     C_R   0.256079 0.286726 0.169298 -0.153205
C159  C     C_R   0.711240 0.257131 0.833807 -0.131730
C160  C     C_R   0.176203 0.792753 0.294578 -0.149480
C161  C     C_R   0.176739 0.207588 0.705801 -0.147679
C162  C     C_R   0.742765 0.712385 0.167490 -0.153618
C163  C     C_R   0.288887 0.742655 0.834098 -0.131543
C164  C     C_R   0.823651 0.206846 0.294762 -0.149834
C165  C     C_R   0.291878 0.322261 0.207674 -0.156275
C166  C     C_R   0.938656 0.864065 0.889722 -0.097894
C167  C     C_R   0.786330 0.755904 0.669756 -0.153709
C168  C     C_R   0.211362 0.757516 0.333990 -0.130480
C169  C     C_R   0.676483 0.292452 0.794157 -0.146996
C170  C     C_R   0.706895 0.676715 0.205882 -0.156605
C171  C     C_R   0.211431 0.242936 0.666126 -0.131786
C172  C     C_R   0.788667 0.242110 0.334318 -0.130590
C173  C     C_R   0.323415 0.707309 0.794265 -0.147377
C174  C     C_R   0.874041 0.697769 0.743596 0.523409
C175  C     C_R   0.349874 0.243599 0.124916 0.504613
C176  C     C_R   0.757106 0.351512 0.873789 0.507369
H1    H     H_    0.969642 0.172676 0.122737 0.171666
H2    H     H_    0.061703 0.202643 0.075089 0.155788
H3    H     H_    0.467134 0.230647 0.166556 0.135353
H4    H     H_    0.730964 0.467544 0.886117 0.123603
H5    H     H_    0.663497 0.462233 0.853567 0.158682
H6    H     H_    0.091665 0.601684 0.327630 0.088905
H7    H     H_    0.160305 0.585540 0.354671 0.180542
H8    H     H_    0.090870 0.398449 0.673759 0.092920
H9    H     H_    0.159211 0.414734 0.645993 0.166274
H10   H     H_    0.530801 0.708098 0.122110 0.115286
H11   H     H_    0.532446 0.771202 0.167963 0.135566
H12   H     H_    0.268611 0.532235 0.886584 0.125255
H13   H     H_    0.202105 0.939178 0.924013 0.136179
H14   H     H_    0.336014 0.537404 0.853690 0.158087
H15   H     H_    0.909221 0.397301 0.327877 0.087921
H16   H     H_    0.840650 0.413718 0.355112 0.181015
H17   H     H_    0.821134 0.039156 0.121318 0.141245
H18   H     H_    0.030560 0.173147 0.877390 0.157317
H19   H     H_    0.938171 0.797296 0.074617 0.157092
H20   H     H_    0.797958 0.060849 0.923902 0.135462
H21   H     H_    0.178653 0.960745 0.121320 0.141144
H22   H     H_    0.469122 0.673041 0.622581 0.158019
H23   H     H_    0.562973 0.297951 0.416848 0.144431
H24   H     H_    0.701999 0.560518 0.576686 0.139413
H25   H     H_    0.064427 0.797571 0.918359 0.154385
H26   H     H_    0.327554 0.470185 0.377284 0.169752
H27   H     H_    0.530570 0.326935 0.622664 0.158324
H28   H     H_    0.437069 0.702064 0.416660 0.144588
H29   H     H_    0.297908 0.439384 0.576127 0.134372
H30   H     H_    0.671976 0.529346 0.376952 0.170924
H31   H     H_    0.461291 0.321283 0.378477 0.140755
H32   H     H_    0.563778 0.702290 0.582319 0.155974
H33   H     H_    0.702432 0.437625 0.425497 0.142254
H34   H     H_    0.320944 0.539123 0.621107 0.151524
H35   H     H_    0.538555 0.678464 0.378144 0.141200
H36   H     H_    0.201670 0.062768 0.083458 0.140751
H37   H     H_    0.435968 0.297596 0.581948 0.155187
H38   H     H_    0.297642 0.562283 0.425299 0.141065
H39   H     H_    0.678814 0.460793 0.621135 0.153389
H40   H     H_    0.878242 0.969560 0.779542 0.319107
H41   H     H_    0.093689 0.186290 0.190717 0.322179
H42   H     H_    0.810705 0.095151 0.809828 0.338925
H43   H     H_    0.124100 0.970392 0.219308 0.319310
H44   H     H_    0.125511 0.029684 0.780840 0.317284
H45   H     H_    0.905784 0.810749 0.189727 0.322153
H46   H     H_    0.190174 0.904933 0.810098 0.338810
H47   H     H_    0.821560 0.961442 0.878464 0.151245
H48   H     H_    0.875119 0.029274 0.219285 0.319294
H49   H     H_    0.469089 0.378068 0.279500 0.321859
H50   H     H_    0.684744 0.594027 0.691743 0.333494
H51   H     H_    0.310741 0.595122 0.310341 0.330842
H52   H     H_    0.624629 0.470311 0.719142 0.317674
H53   H     H_    0.529946 0.622526 0.279738 0.321513
H54   H     H_    0.309949 0.405016 0.690089 0.338869
H55   H     H_    0.690271 0.404975 0.310693 0.330903
H56   H     H_    0.374656 0.529466 0.719115 0.317584
H57   H     H_    0.929262 0.629317 0.766844 0.306354
H58   H     H_    0.030143 0.827210 0.122776 0.171372
H59   H     H_    0.421121 0.214714 0.078128 0.303207
H60   H     H_    0.816093 0.416653 0.890199 0.317682
H61   H     H_    0.079425 0.626589 0.229347 0.319799
H62   H     H_    0.080195 0.373718 0.772566 0.325934
H63   H     H_    0.577807 0.787828 0.079137 0.303096
H64   H     H_    0.183616 0.583333 0.891011 0.319557
H65   H     H_    0.921337 0.372746 0.229506 0.319427
H66   H     H_    0.130569 0.431235 0.265767 0.299378
H67   H     H_    0.715233 0.921541 0.578277 0.309267
H68   H     H_    0.316047 0.917494 0.389792 0.319757
H69   H     H_    0.935746 0.202406 0.918033 0.153845
H70   H     H_    0.580921 0.126244 0.727416 0.328304
H71   H     H_    0.867291 0.564719 0.260629 0.299860
H72   H     H_    0.317034 0.083405 0.609558 0.323334
H73   H     H_    0.683103 0.082461 0.390135 0.319235
H74   H     H_    0.419499 0.873314 0.727109 0.329380
H75   H     H_    0.860344 0.773541 0.884822 0.315322
H76   H     H_    0.239112 0.153769 0.028599 0.310897
H77   H     H_    0.846657 0.240686 0.971568 0.312148
H78   H     H_    0.138695 0.771627 0.117553 0.316228
H79   H     H_    0.139815 0.227674 0.883369 0.316420
H80   H     H_    0.798233 0.937111 0.083282 0.141227
H81   H     H_    0.760267 0.847314 0.028396 0.310258
H82   H     H_    0.153281 0.759305 0.972076 0.312176
H83   H     H_    0.861198 0.228341 0.117594 0.316246
H84   H     H_    0.273284 0.360604 0.384507 0.311563
H85   H     H_    0.654897 0.738849 0.528336 0.311322
H86   H     H_    0.348282 0.741667 0.470627 0.312589
H87   H     H_    0.640051 0.272308 0.616606 0.317214
H88   H     H_    0.727710 0.637416 0.381865 0.311892
H89   H     H_    0.347229 0.259432 0.528395 0.310859
H90   H     H_    0.651411 0.258178 0.471013 0.312456
H91   H     H_    0.179084 0.039041 0.878897 0.153789
H92   H     H_    0.359567 0.727554 0.616420 0.317562
H93   H     H_    0.091581 0.395981 0.179948 0.113685
H94   H     H_    0.075183 0.347397 0.237458 0.162169
H95   H     H_    0.794696 0.967972 0.621524 0.117605
H96   H     H_    0.731127 0.967722 0.666767 0.150515
H97   H     H_    0.230554 0.967858 0.386298 0.125611
H98   H     H_    0.163122 0.962416 0.353734 0.157613
H99   H     H_    0.591511 0.101458 0.826196 0.099867
H100  H     H_    0.659881 0.085243 0.853882 0.168676
H101  H     H_    0.906061 0.601075 0.174914 0.113363
H102  H     H_    0.970228 0.827543 0.877146 0.157316
H103  H     H_    0.923471 0.648458 0.232886 0.162950
H104  H     H_    0.232049 0.032592 0.613656 0.128462
H105  H     H_    0.164539 0.037875 0.646357 0.157086
H106  H     H_    0.768332 0.031667 0.386384 0.123202
H107  H     H_    0.835837 0.036900 0.353713 0.157520
H108  H     H_    0.409280 0.897797 0.826004 0.099142
H109  H     H_    0.341025 0.914245 0.854008 0.169251
H110  H     H_    0.894001 0.590167 0.681080 0.096427
H111  H     H_    0.845373 0.574367 0.738635 0.157785
H112  H     H_    0.467512 0.294416 0.121351 0.115621
N1    N     N_R   0.940200 0.105310 0.059970 -0.050930
N2    N     N_R   0.059800 0.105310 0.059970 -0.052253
N3    N     N_R   0.105310 0.940200 0.940030 -0.048559
N4    N     N_R   0.894690 0.059800 0.059970 -0.047946
N5    N     N_R   0.059800 0.105310 0.940030 -0.050096
N6    N     N_R   0.940200 0.894690 0.059970 -0.052252
N7    N     N_R   0.894690 0.059800 0.940030 -0.048283
N8    N     N_R   0.105310 0.940200 0.059970 -0.047938
N9    N     N_R   0.440200 0.605310 0.559970 -0.049940
N10   N     N_R   0.559800 0.394690 0.440030 -0.046755
N11   N     N_R   0.605310 0.559800 0.559970 -0.049882
N12   N     N_R   0.059800 0.894690 0.940030 -0.048882
N13   N     N_R   0.394690 0.440200 0.440030 -0.052837
N14   N     N_R   0.559800 0.394690 0.559970 -0.050122
N15   N     N_R   0.440200 0.605310 0.440030 -0.046847
N16   N     N_R   0.394690 0.440200 0.559970 -0.048433
N17   N     N_R   0.605310 0.559800 0.440030 -0.052815
N18   N     N_R   0.440200 0.394690 0.440030 -0.046844
N19   N     N_R   0.559800 0.605310 0.559970 -0.048893
N20   N     N_R   0.605310 0.440200 0.440030 -0.050228
N21   N     N_R   0.394690 0.559800 0.559970 -0.048759
N22   N     N_R   0.559800 0.605310 0.440030 -0.046836
N23   N     N_R   0.105310 0.059800 0.059970 -0.047687
N24   N     N_R   0.440200 0.394690 0.559970 -0.048594
N25   N     N_R   0.394690 0.559800 0.440030 -0.050058
N26   N     N_R   0.605310 0.440200 0.559970 -0.048908
N27   N     N_3   0.097479 0.351127 0.196674 -0.138786
N28   N     N_3   0.777045 0.953120 0.662064 -0.137145
N29   N     N_3   0.210238 0.953854 0.346830 -0.151448
N30   N     N_3   0.638529 0.100620 0.815224 -0.174377
N31   N     N_3   0.900813 0.645701 0.192285 -0.139765
N32   N     N_3   0.211590 0.046579 0.653147 -0.143649
N33   N     N_3   0.788773 0.045723 0.346900 -0.151514
N34   N     N_R   0.894690 0.940200 0.940030 -0.048702
N35   N     N_3   0.362246 0.898891 0.815248 -0.171541
N36   N     N_3   0.849315 0.596500 0.697765 -0.156015
N37   N     N_3   0.452666 0.276733 0.161886 -0.142539
N38   N     N_3   0.710587 0.453506 0.846691 -0.148802
N39   N     N_3   0.138566 0.600898 0.316206 -0.164119
N40   N     N_3   0.137860 0.399360 0.684684 -0.174220
N41   N     N_3   0.546275 0.725005 0.162647 -0.142614
N42   N     N_3   0.288932 0.546271 0.847041 -0.145344
N43   N     N_3   0.862330 0.398395 0.316574 -0.163676
N44   N     N_R   0.059800 0.894690 0.059970 -0.050861
N45   N     N_R   0.940200 0.105310 0.940030 -0.048630
N46   N     N_R   0.894690 0.940200 0.059970 -0.047743
N47   N     N_R   0.105310 0.059800 0.940030 -0.049031
N48   N     N_R   0.940200 0.894690 0.940030 -0.050798
Ni1   Ni    Ni4+2 0.000000 0.104370 0.000000 0.223359
Ni2   Ni    Ni4+2 1.000000 0.895630 0.000000 0.223332
Ni3   Ni    Ni4+2 0.104370 0.000000 0.000000 0.209980
Ni4   Ni    Ni4+2 0.895630 0.000000 0.000000 0.209892
Ni5   Ni    Ni4+2 0.500000 0.604370 0.500000 0.223495
Ni6   Ni    Ni4+2 0.500000 0.395630 0.500000 0.222936
Ni7   Ni    Ni4+2 0.604370 0.500000 0.500000 0.209696
Ni8   Ni    Ni4+2 0.395630 0.500000 0.500000 0.208617
O1    O     O_3   0.843242 0.954433 0.755461 -0.733107
O2    O     O_3   0.729260 0.598457 0.681985 -0.734612
O3    O     O_3   0.266517 0.600219 0.321001 -0.738916
O4    O     O_3   0.660019 0.454435 0.742385 -0.742516
O5    O     O_3   0.545128 0.657905 0.255935 -0.741679
O6    O     O_3   0.265803 0.400209 0.679210 -0.740517
O7    O     O_3   0.734387 0.399744 0.321582 -0.737286
O8    O     O_3   0.339335 0.545387 0.742488 -0.741743
O9    O     O_3   0.922022 0.673316 0.776855 -0.691710
O10   O     O_3   0.376529 0.206005 0.082358 -0.683831
O11   O     O_3   0.799495 0.379514 0.910565 -0.675585
O12   O     O_3   0.098489 0.230804 0.180582 -0.735479
O13   O     O_3   0.078439 0.672362 0.225925 -0.690812
O14   O     O_3   0.079225 0.327932 0.775826 -0.692453
O15   O     O_3   0.622538 0.795950 0.082950 -0.684158
O16   O     O_3   0.200326 0.620412 0.911257 -0.675296
O17   O     O_3   0.922022 0.326987 0.225960 -0.691566
O18   O     O_3   0.174257 0.423464 0.276123 -0.688683
O19   O     O_3   0.706391 0.876851 0.582573 -0.674485
O20   O     O_3   0.299854 0.880164 0.410136 -0.674767
O21   O     O_3   0.579710 0.172031 0.724191 -0.687170
O22   O     O_3   0.823858 0.572979 0.271715 -0.687175
O23   O     O_3   0.766471 0.099956 0.820584 -0.742728
O24   O     O_3   0.300386 0.120602 0.589265 -0.675925
O25   O     O_3   0.699469 0.119630 0.410487 -0.676619
O26   O     O_3   0.420437 0.827538 0.723776 -0.686568
O27   O     O_3   0.883855 0.755464 0.851395 -0.693497
O28   O     O_3   0.271668 0.162931 0.057981 -0.679488
O29   O     O_3   0.837330 0.273151 0.941931 -0.671745
O30   O     O_3   0.114933 0.754510 0.151266 -0.684840
O31   O     O_3   0.116324 0.245380 0.849784 -0.694117
O32   O     O_3   0.727797 0.838239 0.058008 -0.680116
O33   O     O_3   0.162641 0.726837 0.942494 -0.671602
O34   O     O_3   0.159586 0.954588 0.242469 -0.752378
O35   O     O_3   0.884904 0.245368 0.151276 -0.685157
O36   O     O_3   0.255500 0.384284 0.351042 -0.700824
O37   O     O_3   0.663795 0.771618 0.557678 -0.670028
O38   O     O_3   0.338531 0.773987 0.440976 -0.672427
O39   O     O_3   0.616550 0.254618 0.650218 -0.687474
O40   O     O_3   0.744374 0.613162 0.348250 -0.700234
O41   O     O_3   0.337982 0.226977 0.558054 -0.674458
O42   O     O_3   0.661148 0.225889 0.441369 -0.673091
O43   O     O_3   0.382954 0.745298 0.649969 -0.686584
O44   O     O_3   0.160876 0.045585 0.757564 -0.740350
O45   O     O_3   0.900799 0.766556 0.178575 -0.735298
O46   O     O_3   0.234317 0.900083 0.821056 -0.738736
O47   O     O_3   0.839623 0.045128 0.242467 -0.752320
O48   O     O_3   0.454011 0.342882 0.255509 -0.741499

loop_
_geom_bond_atom_site_label_1
_geom_bond_atom_site_label_2
_ccdc_geom_bond_type
C5    C136  A    
C77   O35   S    
H92   O43   S    
C85   O42   S    
C23   C58   S    
C38   C142  A    
C104  C157  A    
H66   O18   S    
C130  C174  A    
N5    N47   A    
C103  N26   A    
C40   C145  A    
C9    C114  A    
N7    N45   A    
C121  C140  A    
C49   C153  A    
N12   Ni2   S    
C147  C164  A    
H50   O2    S    
C8    C121  A    
C96   H32   S    
C12   C126  A    
N17   N22   A    
H40   O1    S    
C36   C53   A    
C117  C170  A    
H7    N39   S    
C38   C55   A    
C91   N14   A    
C101  H37   S    
C8    O18   S    
C48   C65   A    
C138  C154  A    
N2    N23   A    
H104  N32   S    
C23   C46   A    
C2    H2    S    
C148  C165  A    
H68   O20   S    
C43   O48   S    
C175  O10   S    
C42   C147  A    
C136  C152  A    
C71   O28   S    
C37   O23   S    
C130  N36   S    
C45   O3    S    
C156  C173  A    
C67   C85   A    
C40   C58   A    
N13   Ni8   S    
C36   O12   S    
C47   C64   A    
C21   C55   S    
N3    Ni3   S    
C104  C174  A    
H8    N40   S    
H43   O34   S    
C77   C112  A    
H90   O42   S    
C125  N30   S    
C57   N7    A    
C11   O21   S    
C20   C111  A    
C144  H80   S    
H11   N41   S    
C39   C56   A    
N45   Ni1   S    
C19   C100  A    
C150  C168  A    
H75   O27   S    
C1    N1    A    
C88   N11   A    
C127  C143  A    
C16   C129  A    
H86   O38   S    
C4    C135  A    
C76   O33   S    
C13   C18   A    
C35   N5    A    
C72   C106  A    
C134  N39   S    
C50   O7    S    
C78   C113  A    
N44   Ni2   S    
C53   C71   A    
C84   O41   S    
N9    Ni5   S    
C43   C61   A    
N16   N24   A    
N25   Ni8   S    
C27   C97   A    
C97   N20   A    
H49   O48   S    
C129  N35   S    
C2    C19   A    
C18   C89   A    
C20   C166  A    
C44   C149  A    
N22   Ni5   S    
C7    O17   S    
C128  C147  A    
H112  N37   S    
C78   O36   S    
C138  N43   S    
C10   C124  A    
H60   O11   S    
C51   O8    S    
C28   C96   A    
C3    C107  A    
C83   C117  A    
C90   N13   A    
C88   H24   S    
C118  C171  A    
C9    C123  A    
C100  H36   S    
C160  C168  A    
C48   O5    S    
N34   Ni4   S    
C12   C117  A    
C139  C157  A    
C26   C69   S    
C51   C69   A    
C143  C161  A    
C158  C165  A    
N14   Ni6   S    
H78   O30   S    
N17   Ni7   S    
C94   H30   S    
N11   N19   A    
C33   C94   A    
C114  C167  A    
C22   C54   S    
C99   H35   S    
H73   O25   S    
H94   N27   S    
C38   O34   S    
C97   H33   S    
H72   O24   S    
C62   C80   A    
H48   O47   S    
C16   C120  A    
C126  N31   S    
H79   O31   S    
H99   N30   S    
C106  C159  A    
C123  C139  A    
C44   O2    S    
C7    C112  A    
C85   C119  A    
H62   O14   S    
C35   H18   S    
C140  C158  A    
C141  C159  A    
C41   C146  A    
C125  C141  A    
C73   O30   S    
H57   O9    S    
C50   C67   A    
C132  N38   S    
C32   C93   A    
C79   H22   S    
N8    Ni3   S    
N5    Ni1   S    
C126  C145  A    
C29   C61   S    
C49   C66   A    
C22   C133  A    
C31   C63   S    
H108  N35   S    
H10   N41   S    
C122  N44   A    
N6    N46   A    
H6    N39   S    
N8    N44   A    
C68   H21   S    
C33   C99   A    
C74   O31   S    
N24   Ni6   S    
H67   O19   S    
C153  C171  A    
C27   C87   A    
N3    N12   A    
H42   O23   S    
H5    N38   S    
H70   O21   S    
H46   O46   S    
C21   C68   A    
C164  C172  A    
C39   O44   S    
H41   O12   S    
N23   Ni3   S    
C163  C173  A    
C135  N40   S    
C176  O11   S    
H106  N33   S    
N20   Ni7   S    
C39   C143  A    
C72   O29   S    
H98   N29   S    
H89   O41   S    
C49   O6    S    
C108  C161  A    
C1    C17   A    
C151  C169  A    
C3    C134  A    
N11   Ni7   S    
C2    N2    A    
C6    C137  A    
N4    Ni4   S    
C41   O46   S    
C174  O9    S    
C15   C119  A    
N21   Ni8   S    
C27   C67   S    
C137  N42   S    
N18   Ni6   S    
C17   C60   S    
C161  C171  A    
N46   Ni4   S    
C18   C59   S    
C84   C118  A    
C80   O37   S    
C106  C176  A    
C32   C101  A    
C99   N22   A    
C86   C120  A    
C111  N34   A    
C90   H26   S    
C115  C168  A    
N1    Ni1   S    
C59   C76   A    
H56   O8    S    
N14   N26   A    
C133  H69   S    
C28   C62   S    
C30   C64   S    
H95   N28   S    
C93   N16   A    
C149  C167  A    
C87   H23   S    
C79   N9    A    
C107  C160  A    
H65   O17   S    
C4    C108  A    
C37   C141  A    
C124  N29   S    
C11   C125  A    
H16   N43   S    
H51   O3    S    
N7    Ni4   S    
C109  C162  A    
C96   N19   A    
C113  C165  A    
C70   C104  A    
C73   C107  A    
N1    N4    A    
C128  N33   S    
H84   O36   S    
C45   C150  A    
C132  C176  A    
C21   C122  A    
H14   N42   S    
C43   C148  A    
H97   N29   S    
C102  H38   S    
C30   C103  A    
N10   Ni6   S    
N2    Ni1   S    
C70   O27   S    
C40   O45   S    
C92   H28   S    
N26   Ni7   S    
C112  C164  A    
C29   C90   A    
C131  N37   S    
H83   O35   S    
C155  N47   A    
C95   H31   S    
C82   O39   S    
C56   C74   A    
C57   H20   S    
C31   C102  A    
N48   Ni2   S    
C14   C127  A    
H81   O32   S    
C81   O38   S    
N15   N25   A    
C10   O20   S    
C162  C170  A    
C83   O40   S    
C98   N21   A    
C111  H47   S    
C11   C116  A    
N9    N21   A    
C129  C146  A    
C24   N4    A    
H15   N43   S    
C8    C113  A    
C25   C35   A    
C47   C151  A    
C15   C128  A    
C48   C152  A    
C92   N15   A    
C23   C144  A    
C121  N27   S    
C103  H39   S    
C32   C66   S    
H82   O33   S    
C51   C156  A    
C159  C169  A    
H55   O7    S    
C87   N10   A    
C4    O14   S    
C7    C138  A    
C110  C163  A    
H93   N27   S    
C6    O16   S    
N34   N48   A    
C34   C52   A    
C26   C79   A    
H64   O16   S    
C3    O13   S    
C82   C116  A    
C101  N24   A    
C5    C109  A    
N13   N18   A    
C131  C175  A    
H44   O44   S    
H45   O45   S    
C157  C167  A    
C74   C108  A    
H52   O4    S    
C76   C110  A    
H85   O37   S    
C132  C151  A    
H87   O39   S    
C91   H27   S    
C89   N12   A    
N10   N20   A    
N19   Ni5   S    
C89   H25   S    
C25   C155  A    
H77   O29   S    
C25   C56   S    
C93   H29   S    
C22   C57   A    
C13   H13   S    
C33   C65   S    
C46   H19   S    
H74   O26   S    
C98   H34   S    
C166  N48   A    
C63   C81   A    
H107  N33   S    
N15   Ni5   S    
H12   N42   S    
C136  N41   S    
H9    N40   S    
C65   C83   A    
C102  N25   A    
H4    N38   S    
C145  C162  A    
C134  C150  A    
C34   C139  A    
C152  C170  A    
H54   O6    S    
H96   N28   S    
H109  N35   S    
H61   O13   S    
H88   O40   S    
C75   O32   S    
C127  N32   S    
C14   C118  A    
C94   N17   A    
C16   O26   S    
C28   C88   A    
N16   Ni8   S    
H71   O22   S    
C9    O19   S    
H3    N37   S    
C95   N18   A    
C119  C172  A    
C19   C53   S    
H103  N31   S    
C34   O1    S    
N6    Ni2   S    
C6    C110  A    
C124  C142  A    
C1    H1    S    
C58   C75   A    
H111  N36   S    
C60   C77   A    
C75   C109  A    
C17   C24   A    
C41   C59   A    
C42   C60   A    
C29   C95   A    
C100  N23   A    
C44   C62   A    
C133  N45   A    
C45   C63   A    
C137  C156  A    
H105  N32   S    
C55   C73   A    
C5    O15   S    
H63   O15   S    
C47   O4    S    
C61   C78   A    
C81   C115  A    
C130  C149  A    
C12   O22   S    
C154  C172  A    
C131  C148  A    
C14   O24   S    
C36   C140  A    
C64   C82   A    
C26   C98   A    
C37   C54   A    
C80   C114  A    
C13   N3    A    
C105  C175  A    
H59   O10   S    
H53   O5    S    
C122  H58   S    
C142  C160  A    
C30   C91   A    
C15   O25   S    
H76   O28   S    
C46   N6    A    
C146  C163  A    
C135  C153  A    
C71   C105  A    
C144  N46   A    
C20   C52   S    
C105  C158  A    
N47   Ni3   S    
C24   H17   S    
C50   C154  A    
C68   N8    A    
C116  C169  A    
H100  N30   S    
C86   O43   S    
C155  H91   S    
H101  N31   S    
C52   C70   A    
C10   C115  A    
C66   C84   A    
C120  C173  A    
C54   C72   A    
C31   C92   A    
C123  N28   S    
C166  H102  S    
H110  N36   S    
C69   C86   A    
C42   O47   S    
