data_mof_unit_13448.cif
_audit_creation_date              2012-12-11T15:41:10-0500
_audit_creation_method            fapswitch 2.2
_symmetry_space_group_name_H-M    P1
_symmetry_Int_Tables_number       1
_space_group_crystal_system       triclinic
_cell_length_a                    19.047823
_cell_length_b                    10.980583
_cell_length_c                    18.795434
_cell_angle_alpha                 90.048539
_cell_angle_beta                  90.346083
_cell_angle_gamma                 89.900519
_cell_volume                      3931.10256355

loop_
_atom_site_label
_atom_site_type_symbol
_atom_type_description
_atom_site_fract_x
_atom_site_fract_y
_atom_site_fract_z
_atom_type_partial_charge
C1    C     C_R   0.724167 0.963123 0.856479 0.546001
C2    C     C_R   0.272332 0.952968 0.147375 0.542056
C3    C     C_R   0.227659 0.453090 0.852647 0.540313
C4    C     C_R   0.775779 0.462897 0.143554 0.547444
C5    C     C_R   0.703002 0.480356 0.034450 0.029570
C6    C     C_R   0.316810 0.396882 0.948983 0.013533
C7    C     C_R   0.183164 0.897067 0.051086 0.013719
C8    C     C_R   0.796682 0.981169 0.965786 0.029786
C9    C     C_R   0.695065 0.467075 0.961592 0.020362
C10   C     C_R   0.326888 0.368971 0.020510 0.014233
C11   C     C_R   0.173072 0.869177 0.979539 0.014210
C12   C     C_R   0.804593 0.967645 0.038622 0.020329
C13   C     C_R   0.817643 0.415354 0.951340 -0.154754
C14   C     C_R   0.205847 0.310457 0.029077 -0.159413
C15   C     C_R   0.294142 0.810070 0.970917 -0.159388
C16   C     C_R   0.682239 0.914894 0.048596 -0.154844
C17   C     C_R   0.824570 0.422743 0.024849 -0.149607
C18   C     C_R   0.196544 0.333729 0.957509 -0.155008
C19   C     C_R   0.303438 0.833200 0.042515 -0.155498
C20   C     C_R   0.675363 0.922538 0.975095 -0.149487
C21   C     C_3   0.630747 0.435564 0.049033 -0.289539
C22   C     C_3   0.371552 0.493140 0.950239 -0.283305
C23   C     C_3   0.128441 0.993696 0.049904 -0.282884
C24   C     C_3   0.869227 0.937289 0.951198 -0.289355
C25   C     C_3   0.622079 0.418945 0.969362 -0.261342
C26   C     C_3   0.381679 0.465023 0.029015 -0.267094
C27   C     C_3   0.118290 0.965564 0.971114 -0.267504
C28   C     C_3   0.877872 0.920382 0.030846 -0.261271
C29   C     C_R   0.750930 0.425421 0.919779 0.015715
C30   C     C_R   0.269931 0.336238 0.063353 0.020450
C31   C     C_R   0.230041 0.836174 0.936671 0.020854
C32   C     C_R   0.748876 0.925313 0.080272 0.015318
C33   C     C_R   0.483953 0.170930 0.431464 0.017878
C34   C     C_R   0.490969 0.171612 0.579259 0.019573
C35   C     C_R   0.983954 0.670931 0.431464 0.018461
C36   C     C_R   0.990970 0.671610 0.579258 0.018540
C37   C     C_R   0.476089 0.278706 0.469498 0.028125
C38   C     C_R   0.478716 0.280195 0.541943 0.012517
C39   C     C_R   0.976083 0.778704 0.469498 0.028194
C40   C     C_R   0.978711 0.780192 0.541943 0.012237
C41   C     C_R   0.485105 0.060692 0.542916 -0.178267
C42   C     C_R   0.483803 0.060317 0.468659 -0.173758
C43   C     C_R   0.985115 0.560690 0.542914 -0.178859
C44   C     C_R   0.983814 0.560317 0.468658 -0.173485
C45   C     C_R   0.529096 0.177831 0.850186 0.545299
C46   C     C_R   0.468867 0.177473 0.148475 0.544622
C47   C     C_R   0.031176 0.677636 0.851550 0.544040
C48   C     C_R   0.970929 0.677668 0.149831 0.546153
C49   C     C_3   0.514362 0.395920 0.461093 -0.255427
C50   C     C_3   0.517307 0.399965 0.541188 -0.255532
C51   C     C_3   0.014352 0.895923 0.461093 -0.255195
C52   C     C_3   0.017298 0.899967 0.541188 -0.255454
C53   C     C_R   0.749806 0.411740 0.421829 -0.011031
C54   C     C_R   0.248039 0.399447 0.580379 -0.007972
C55   C     C_R   0.249801 0.911725 0.421822 -0.010294
C56   C     C_R   0.748035 0.899471 0.580370 -0.008822
C57   C     C_R   0.786898 0.318554 0.456281 -0.028622
C58   C     C_R   0.196487 0.338259 0.540666 -0.013579
C59   C     C_R   0.286891 0.818534 0.456273 -0.027504
C60   C     C_R   0.696483 0.838285 0.540654 -0.014333
C61   C     C_R   0.786230 0.311063 0.529460 0.099305
C62   C     C_R   0.201656 0.327384 0.468121 0.074320
C63   C     C_R   0.286222 0.811036 0.529452 0.097758
C64   C     C_R   0.701647 0.827444 0.468107 0.075698
C65   C     C_R   0.701566 0.473306 0.536421 -0.177297
C66   C     C_R   0.315521 0.421086 0.472305 -0.135215
C67   C     C_R   0.201559 0.973283 0.536414 -0.177374
C68   C     C_R   0.815511 0.921144 0.472292 -0.134807
C69   C     C_R   0.702954 0.483312 0.462202 -0.162769
C70   C     C_R   0.311204 0.428251 0.546790 -0.117861
C71   C     C_R   0.202947 0.983290 0.462195 -0.162641
C72   C     C_R   0.811195 0.928296 0.546777 -0.118484
C73   C     C_3   0.863093 0.284691 0.453346 -0.179793
C74   C     C_3   0.119322 0.362340 0.535708 -0.183621
C75   C     C_3   0.363085 0.784665 0.453336 -0.179619
C76   C     C_3   0.619315 0.862347 0.535699 -0.183578
C77   C     C_3   0.863222 0.286486 0.533591 0.113462
C78   C     C_3   0.125154 0.348780 0.456123 0.090524
C79   C     C_3   0.363213 0.786450 0.533582 0.113253
C80   C     C_3   0.625148 0.848840 0.456109 0.090562
C81   C     C_R   0.746596 0.391003 0.570870 -0.013621
C82   C     C_R   0.257728 0.379044 0.432049 -0.023309
C83   C     C_R   0.246589 0.890980 0.570863 -0.015535
C84   C     C_R   0.757717 0.879104 0.432036 -0.021281
C85   C     C_R   0.738330 0.364983 0.852245 0.545852
C86   C     C_R   0.275414 0.313731 0.139959 0.566404
C87   C     C_R   0.224580 0.813672 0.860052 0.566631
C88   C     C_R   0.761635 0.864851 0.147755 0.546738
C89   C     C_R   0.728178 0.952801 0.648410 0.550965
C90   C     C_R   0.271984 0.955288 0.352443 0.553444
C91   C     C_R   0.228180 0.452797 0.648413 0.552156
C92   C     C_R   0.771985 0.455292 0.352444 0.552149
C93   C     C_R   0.528224 0.176879 0.645990 0.547854
C94   C     C_R   0.468075 0.176474 0.356757 0.544294
C95   C     C_R   0.028224 0.676879 0.645991 0.547624
C96   C     C_R   0.968076 0.676474 0.356757 0.544705
C97   C     C_R   0.739009 0.360326 0.645489 0.544041
C98   C     C_R   0.262642 0.355150 0.356290 0.551397
C99   C     C_R   0.239007 0.860317 0.645486 0.554471
C100  C     C_R   0.762635 0.855181 0.356281 0.541975
C101  C     C_2   0.494278 0.170493 0.919182 -0.114785
C102  C     C_2   0.497887 0.167400 0.076853 -0.118524
C103  C     C_2   0.002188 0.667796 0.923185 -0.118253
C104  C     C_2   0.005780 0.670109 0.080854 -0.114810
C105  C     C_2   0.482678 0.070633 0.035483 -0.162465
C106  C     C_2   0.497583 0.069086 0.958777 -0.162753
C107  C     C_2   0.002272 0.568914 0.041035 -0.163137
C108  C     C_2   0.017126 0.570620 0.964323 -0.162133
C109  C     C_R   0.765668 0.446064 0.067649 0.022249
C110  C     C_R   0.249560 0.391661 0.918291 0.026962
C111  C     C_R   0.250422 0.891440 0.081767 0.026570
C112  C     C_R   0.734223 0.946442 0.932413 0.022642
Cr1   Cr    Cr6+3 0.769260 0.163750 0.750730 1.018846
Cr2   Cr    Cr6+3 0.230740 0.163750 0.249270 1.007969
Cr3   Cr    Cr6+3 0.269260 0.663750 0.750730 1.010274
Cr4   Cr    Cr6+3 0.730740 0.663750 0.249270 1.016653
Cr5   Cr    Cr6+3 0.612640 0.009910 0.748780 1.006187
Cr6   Cr    Cr6+3 0.387360 0.009910 0.251220 1.001871
Cr7   Cr    Cr6+3 0.112640 0.509910 0.748780 0.998182
Cr8   Cr    Cr6+3 0.887360 0.509910 0.251220 1.009912
Cr9   Cr    Cr6+3 0.614190 0.322400 0.747710 1.007444
Cr10  Cr    Cr6+3 0.385810 0.322400 0.252290 1.012703
Cr11  Cr    Cr6+3 0.114190 0.822400 0.747710 1.007958
Cr12  Cr    Cr6+3 0.885810 0.822400 0.252290 1.012054
H1    H     H_    0.458504 0.989930 0.057922 0.149977
H2    H     H_    0.512688 0.982950 0.935061 0.140168
H3    H     H_    0.987050 0.482865 0.064572 0.139913
H4    H     H_    0.041035 0.489641 0.941678 0.150071
H5    H     H_    0.981688 0.969490 0.437528 0.159789
H6    H     H_    0.071863 0.893479 0.561278 0.175438
H7    H     H_    0.481701 0.469490 0.437528 0.159834
H8    H     H_    0.571872 0.393472 0.561279 0.175658
H9    H     H_    0.566557 0.383430 0.435965 0.145281
H10   H     H_    0.485859 0.475484 0.564239 0.158267
H11   H     H_    0.066547 0.883438 0.435964 0.145609
H12   H     H_    0.985847 0.975483 0.564240 0.158163
H13   H     H_    0.667185 0.532098 0.566758 0.140211
H14   H     H_    0.362760 0.450878 0.446283 0.147470
H15   H     H_    0.167180 0.032079 0.566751 0.140574
H16   H     H_    0.862749 0.950936 0.446270 0.147653
H17   H     H_    0.671983 0.554201 0.437352 0.198788
H18   H     H_    0.354874 0.462413 0.577534 0.180053
H19   H     H_    0.171976 0.054179 0.437346 0.198676
H20   H     H_    0.854866 0.962460 0.577521 0.179923
H21   H     H_    0.897037 0.355764 0.430911 0.133515
H22   H     H_    0.107640 0.457227 0.551678 0.128958
H23   H     H_    0.397032 0.855739 0.430905 0.133428
H24   H     H_    0.607624 0.957220 0.551689 0.128732
H25   H     H_    0.870988 0.192658 0.429902 0.161166
H26   H     H_    0.087625 0.290469 0.562006 0.168119
H27   H     H_    0.370978 0.692634 0.429887 0.161527
H28   H     H_    0.587624 0.790451 0.561980 0.168043
H29   H     H_    0.893194 0.362906 0.557630 0.099858
H30   H     H_    0.112971 0.433172 0.425474 0.105607
H31   H     H_    0.393190 0.862861 0.557624 0.100791
H32   H     H_    0.612970 0.933256 0.425482 0.103851
H33   H     H_    0.523037 0.246921 0.054447 0.096274
H34   H     H_    0.474959 0.254872 0.942140 0.107241
H35   H     H_    0.025249 0.754351 0.058076 0.107482
H36   H     H_    0.977264 0.747603 0.945770 0.095967
H37   H     H_    0.862993 0.388447 0.920503 0.137820
H38   H     H_    0.160036 0.281992 0.058234 0.134890
H39   H     H_    0.339973 0.781473 0.941718 0.134782
H40   H     H_    0.636954 0.887545 0.079306 0.138232
H41   H     H_    0.875611 0.405594 0.048137 0.135846
H42   H     H_    0.144307 0.319450 0.936007 0.134869
H43   H     H_    0.355677 0.818663 0.064014 0.134773
H44   H     H_    0.624403 0.905086 0.951721 0.136197
H45   H     H_    0.150726 0.084410 0.060583 0.149388
H46   H     H_    0.903088 0.010440 0.929319 0.141509
H47   H     H_    0.596495 0.508179 0.071162 0.141882
H48   H     H_    0.349282 0.583969 0.939604 0.149343
H49   H     H_    0.630975 0.348651 0.079323 0.132052
H50   H     H_    0.417758 0.468385 0.917372 0.134046
H51   H     H_    0.082235 0.969273 0.082759 0.134620
H52   H     H_    0.869567 0.850520 0.920670 0.131681
H53   H     H_    0.617662 0.321710 0.953572 0.154816
H54   H     H_    0.434206 0.426055 0.041431 0.139441
H55   H     H_    0.065757 0.926903 0.958687 0.139437
H56   H     H_    0.882842 0.823111 0.046387 0.154551
H57   H     H_    0.582014 0.480651 0.945614 0.140414
H58   H     H_    0.364704 0.540566 0.064449 0.151226
H59   H     H_    0.135260 0.040963 0.935722 0.150964
H60   H     H_    0.917554 0.982450 0.054818 0.140538
H61   H     H_    0.490733 0.975478 0.571095 0.119319
H62   H     H_    0.486516 0.974949 0.440467 0.135190
H63   H     H_    0.990749 0.475476 0.571092 0.118997
H64   H     H_    0.986533 0.474951 0.440465 0.135375
O1    O     O_R   0.784290 0.290360 0.830540 -0.524458
O2    O     O_R   0.215710 0.290360 0.169460 -0.527089
O3    O     O_R   0.284290 0.790360 0.830540 -0.528648
O4    O     O_R   0.715710 0.790360 0.169460 -0.523261
O5    O     O_R   0.554690 0.080440 0.673480 -0.511353
O6    O     O_R   0.445310 0.080440 0.326520 -0.507870
O7    O     O_R   0.054690 0.580440 0.673480 -0.510168
O8    O     O_R   0.945310 0.580440 0.326520 -0.508990
O9    O     O_R   0.543980 0.282110 0.666770 -0.526367
O10   O     O_R   0.456020 0.282110 0.333230 -0.519487
O11   O     O_R   0.043980 0.782110 0.666770 -0.526412
O12   O     O_R   0.956020 0.782110 0.333230 -0.519356
O13   O     O_R   0.679070 0.374030 0.674430 -0.508485
O14   O     O_R   0.320930 0.374030 0.325570 -0.502085
O15   O     O_R   0.179070 0.874030 0.674430 -0.503932
O16   O     O_R   0.820930 0.874030 0.325570 -0.507092
O17   O     O_3   0.665360 0.165350 0.749070 -0.247789
O18   O     O_3   0.334640 0.165350 0.250930 -0.266515
O19   O     O_3   0.165360 0.665350 0.749070 -0.264249
O20   O     O_3   0.834640 0.665350 0.250930 -0.250128
O21   O     O_R   0.762610 0.041070 0.825230 -0.498553
O22   O     O_R   0.237390 0.041070 0.174770 -0.517058
O23   O     O_R   0.262610 0.541070 0.825230 -0.519535
O24   O     O_R   0.737390 0.541070 0.174770 -0.496011
O25   O     O_R   0.667390 0.924160 0.829970 -0.527139
O26   O     O_R   0.332610 0.924160 0.170030 -0.528993
O27   O     O_R   0.167390 0.424160 0.829970 -0.529339
O28   O     O_R   0.832610 0.424160 0.170030 -0.526656
O29   O     O_R   0.553980 0.081420 0.821780 -0.497333
O30   O     O_R   0.446020 0.081420 0.178220 -0.499169
O31   O     O_R   0.053980 0.581420 0.821780 -0.499404
O32   O     O_R   0.946020 0.581420 0.178220 -0.497130
O33   O     O_R   0.543210 0.283170 0.826740 -0.526612
O34   O     O_R   0.456790 0.283170 0.173260 -0.525868
O35   O     O_R   0.043210 0.783170 0.826740 -0.526864
O36   O     O_R   0.956790 0.783170 0.173260 -0.525633
O37   O     O_R   0.678350 0.375000 0.822720 -0.500140
O38   O     O_R   0.321650 0.375000 0.177280 -0.494668
O39   O     O_R   0.178350 0.875000 0.822720 -0.495653
O40   O     O_R   0.821650 0.875000 0.177280 -0.499461
O41   O     O_R   0.785060 0.289300 0.670580 -0.511392
O42   O     O_R   0.214940 0.289300 0.329420 -0.512616
O43   O     O_R   0.285060 0.789300 0.670580 -0.505583
O44   O     O_R   0.714940 0.789300 0.329420 -0.518379
O45   O     O_R   0.763330 0.040090 0.676940 -0.485274
O46   O     O_R   0.236670 0.040090 0.323060 -0.502254
O47   O     O_R   0.263330 0.540090 0.676940 -0.485077
O48   O     O_R   0.736670 0.540090 0.323060 -0.502418
O49   O     O_R   0.668160 0.923110 0.670000 -0.527379
O50   O     O_R   0.331840 0.923110 0.330000 -0.524285
O51   O     O_R   0.168160 0.423110 0.670000 -0.526669
O52   O     O_R   0.831840 0.423110 0.330000 -0.524997
O53   O     O_3   0.878693 0.172377 0.562307 -0.722057
H65   H     H_    0.897515 0.186956 0.610878 0.329629
O54   O     O_3   0.090659 0.243943 0.431787 -0.720629
H66   H     H_    0.086095 0.252835 0.379470 0.336010
O55   O     O_3   0.378679 0.672333 0.562290 -0.722157
H67   H     H_    0.397481 0.686910 0.610874 0.330125
O56   O     O_3   0.590669 0.744008 0.431742 -0.720480
H68   H     H_    0.585887 0.753151 0.379454 0.335065

loop_
_geom_bond_atom_site_label_1
_geom_bond_atom_site_label_2
_ccdc_geom_bond_type
C58   C62   A    
C39   C51   S    
C4    C109  S    
C67   C83   A    
Cr2   O2    S    
Cr3   O19   S    
Cr9   O33   S    
C6    C110  A    
C41   C42   A    
C14   C18   A    
C93   O9    A    
C34   C93   S    
Cr9   O17   S    
C53   C69   A    
C33   C94   S    
Cr3   O47   S    
C51   H5    S    
C9    C25   S    
Cr2   O46   S    
C63   C79   S    
C35   C96   S    
C16   H40   S    
C21   H49   S    
Cr7   O27   S    
C49   H7    S    
Cr12  O12   S    
Cr8   O8    S    
C89   O45   A    
C12   C28   S    
C77   O53   S    
C33   C42   A    
C79   O55   S    
C13   C29   A    
Cr6   O18   S    
C27   H55   S    
C15   C19   A    
C55   C90   S    
Cr5   O17   S    
C8    C112  A    
C1    C112  S    
C54   C58   A    
C25   H53   S    
C103  H36   S    
C67   C71   A    
C23   H51   S    
C76   H28   S    
C3    C110  S    
C85   O1    A    
O54   H66   S    
C48   C104  S    
C91   O47   A    
C65   C69   A    
Cr9   O37   S    
Cr8   O32   S    
C90   O46   A    
C102  C105  D    
C72   H20   S    
O53   H65   S    
C96   O8    A    
C57   C73   S    
C57   C61   A    
C49   C50   S    
Cr10  O18   S    
C64   C84   A    
C7    C11   A    
C49   H9    S    
C77   H29   S    
C20   C112  A    
C51   H11   S    
C97   O41   A    
Cr8   O28   S    
Cr12  O36   S    
Cr12  O40   S    
C61   C77   S    
C56   C72   A    
C23   H45   S    
Cr6   O30   S    
C107  C108  S    
Cr5   O29   S    
C103  C108  D    
C23   C27   S    
C30   C86   S    
C24   H46   S    
Cr3   O43   S    
Cr2   O22   S    
C8    C12   A    
Cr1   O45   S    
C19   C111  A    
Cr6   O50   S    
C62   C82   A    
Cr10  O34   S    
Cr5   O49   S    
Cr4   O44   S    
C73   H25   S    
C98   O42   A    
O55   H67   S    
Cr12  O20   S    
Cr7   O31   S    
C64   C80   S    
C34   C41   A    
C19   H43   S    
C65   H13   S    
C14   C30   A    
Cr6   O6    S    
C100  O16   A    
C102  H33   S    
C7    C111  A    
C34   C38   A    
C22   H50   S    
C25   H57   S    
C80   H32   S    
C3    O27   A    
C26   H54   S    
C18   H42   S    
C62   C78   S    
C20   H44   S    
C2    C111  S    
C2    O22   A    
C47   C103  S    
C90   O50   A    
C1    O21   A    
C51   C52   S    
C68   C84   A    
C89   O49   A    
C36   C40   A    
C31   C87   S    
Cr10  O38   S    
C50   H10   S    
C86   O2    A    
C47   O35   A    
C39   C40   A    
C53   C57   A    
Cr1   O21   S    
C78   H30   S    
C48   O36   A    
C3    O23   A    
C75   H23   S    
C40   C52   S    
C47   O31   A    
C92   O48   A    
Cr7   O51   S    
C108  H4    S    
Cr2   O18   S    
C73   H21   S    
C68   C72   A    
C94   O10   A    
Cr1   O17   S    
C55   C71   A    
C14   H38   S    
C35   C39   A    
C43   C44   A    
C5    C9    A    
C37   C38   A    
C86   O38   A    
C66   C82   A    
C37   C49   S    
C10   C30   A    
C83   C99   S    
C65   C81   A    
C54   C70   A    
C11   C27   S    
C16   C20   A    
C63   C83   A    
Cr4   O48   S    
C53   C92   S    
C10   C26   S    
C85   O37   A    
C5    C21   S    
Cr6   O26   S    
Cr10  O10   S    
C15   C31   A    
C35   C44   A    
C28   H56   S    
Cr9   O9    S    
C106  H2    S    
Cr4   O20   S    
C50   H8    S    
Cr8   O52   S    
C26   H58   S    
C95   O11   A    
C56   C89   S    
C44   H64   S    
C101  H34   S    
C2    O26   A    
C87   O39   A    
C45   C101  S    
C22   C26   S    
C52   H12   S    
C82   C98   S    
C80   O56   S    
C59   C63   A    
C68   H16   S    
C32   C88   S    
C12   C32   A    
C104  H35   S    
C13   H37   S    
C24   H52   S    
Cr5   O5    S    
C59   C75   S    
C41   H61   S    
Cr11  O11   S    
C67   H15   S    
C55   C59   A    
C58   C74   S    
C24   C28   S    
C87   O3    A    
C48   O32   A    
C15   H39   S    
C101  C106  D    
C96   O12   A    
C21   C25   S    
C52   H6    S    
C92   O52   A    
C95   O7    A    
C99   O15   A    
C94   O6    A    
C29   C85   S    
C74   H22   S    
C70   H18   S    
C93   O5    A    
C76   C80   S    
C97   O13   A    
C36   C43   A    
C17   C109  A    
C43   H63   S    
Cr2   O42   S    
Cr8   O20   S    
C99   O43   A    
O56   H68   S    
Cr1   O41   S    
C38   C50   S    
Cr11  O15   S    
C88   O4    A    
C16   C32   A    
C79   H31   S    
Cr1   O1    S    
C105  C106  S    
C66   H14   S    
C98   O14   A    
C78   O54   S    
C4    O24   A    
Cr3   O23   S    
C107  H3    S    
C60   C64   A    
C45   O33   A    
C105  H1    S    
C28   H60   S    
Cr3   O3    S    
C54   C91   S    
Cr4   O24   S    
C61   C81   A    
C1    O25   A    
C9    C29   A    
Cr9   O13   S    
C36   C95   S    
C42   H62   S    
C88   O40   A    
C71   H19   S    
C81   C97   S    
C7    C23   S    
C74   C78   S    
C8    C24   S    
C60   C76   S    
C33   C37   A    
Cr7   O7    S    
C75   H27   S    
Cr4   O4    S    
C46   O34   A    
Cr5   O25   S    
C27   H59   S    
Cr11  O35   S    
C84   C100  S    
C6    C10   A    
C11   C31   A    
C13   C17   A    
C56   C60   A    
Cr10  O14   S    
Cr11  O19   S    
Cr11  O39   S    
C66   C70   A    
C76   H24   S    
C18   C110  A    
Cr12  O16   S    
C21   H47   S    
C69   H17   S    
C91   O51   A    
C4    O28   A    
C73   C77   S    
C74   H26   S    
C100  O44   A    
C17   H41   S    
Cr7   O19   S    
C5    C109  A    
C75   C79   S    
C46   O30   A    
C104  C107  D    
C22   H48   S    
C45   O29   A    
C46   C102  S    
C6    C22   S    
