data_mof_unit_43524.cif
_audit_creation_date              2012-10-26T19:46:31-0400
_audit_creation_method            fapswitch 2.2
_symmetry_space_group_name_H-M    P1
_symmetry_Int_Tables_number       1
_space_group_crystal_system       triclinic
_cell_length_a                    10.915112
_cell_length_b                    9.5426
_cell_length_c                    15.281689
_cell_angle_alpha                 90.001072
_cell_angle_beta                  94.471021
_cell_angle_gamma                 90.00157
_cell_volume                      1586.8747569

loop_
_atom_site_label
_atom_site_type_symbol
_atom_type_description
_atom_site_fract_x
_atom_site_fract_y
_atom_site_fract_z
_atom_type_partial_charge
C1    C     C_R   0.262904 0.499719 0.506533 0.579392
C2    C     C_R   0.936989 0.625784 0.489313 0.232500
C3    C     C_R   0.936419 0.370096 0.491424 0.220793
C4    C     C_R   0.063018 0.625778 0.510704 0.232510
C5    C     C_R   0.540540 0.601258 0.092866 -0.114357
C6    C     C_R   0.501417 0.354586 0.901302 -0.111432
C7    C     C_R   0.459565 0.601277 0.907146 -0.114372
C8    C     C_R   0.498617 0.354584 0.098693 -0.111477
C9    C     C_R   0.530915 0.614685 0.182767 0.224425
C10   C     C_R   0.486499 0.360266 0.809906 0.233821
C11   C     C_R   0.469159 0.614703 0.817241 0.224439
C12   C     C_R   0.737094 0.499722 0.493463 0.579386
C13   C     C_R   0.513516 0.360258 0.190090 0.233793
C14   C     C_R   0.516020 0.492728 0.233650 0.015805
C15   C     C_R   0.484011 0.492738 0.766352 0.015833
C16   C     C_R   0.509502 0.476129 0.048691 -0.050205
C17   C     C_R   0.490581 0.476136 0.951311 -0.050186
C18   C     C_R   0.871143 0.498420 0.488068 -0.078065
C19   C     C_R   0.128853 0.498412 0.511920 -0.078065
C20   C     C_3   0.437280 0.824417 0.208396 0.047793
C21   C     C_3   0.413692 0.890303 0.116651 -0.309455
C22   C     C_3   0.313394 0.001958 0.115491 -0.440456
C23   C     C_R   0.505172 0.499189 0.329991 0.557531
C24   C     C_3   0.356369 0.206043 0.734201 0.050371
C25   C     C_3   0.291233 0.119905 0.801268 -0.310635
C26   C     C_3   0.158832 0.087401 0.767996 -0.399748
C27   C     C_3   0.562718 0.824497 0.791629 0.047752
C28   C     C_3   0.586133 0.890588 0.883329 -0.309401
C29   C     C_3   0.686477 0.002199 0.884502 -0.440404
C30   C     C_3   0.643523 0.205935 0.265808 0.050523
C31   C     C_3   0.708786 0.120176 0.198609 -0.310641
C32   C     C_3   0.841026 0.087181 0.232066 -0.399507
C33   C     C_R   0.494832 0.499192 0.670009 0.557581
C34   C     C_R   0.418280 0.074461 0.444995 0.344978
C35   C     C_R   0.584945 0.926192 0.552401 0.332298
C36   C     C_R   0.581722 0.074468 0.555004 0.345008
C37   C     C_R   0.415053 0.926187 0.447601 0.332288
C38   C     C_R   0.063566 0.370091 0.508528 0.220802
Cl1   Cl    Cl    0.316359 0.162965 0.368697 -0.439850
Cl2   Cl    Cl    0.702455 0.839747 0.616554 -0.489430
Cl3   Cl    Cl    0.683655 0.162983 0.631293 -0.439961
Cl4   Cl    Cl    0.297526 0.839742 0.383460 -0.489460
Cl5   Cl    Cl    0.134688 0.206579 0.535336 -0.441540
Cl6   Cl    Cl    0.869168 0.785903 0.451808 -0.388654
Cl7   Cl    Cl    0.865278 0.206601 0.464572 -0.441644
Cl8   Cl    Cl    0.130853 0.785880 0.548242 -0.388629
Cu1   Cu    Cu3+1 0.500000 0.640660 0.500000 1.168033
Cu2   Cu    Cu3+1 0.500000 0.359340 0.500000 1.141284
H1    H     H_    0.567693 0.692380 0.057370 0.117194
H2    H     H_    0.298835 0.047488 0.048578 0.128643
H3    H     H_    0.339956 0.087349 0.162376 0.233524
H4    H     H_    0.358189 0.143281 0.673065 0.202875
H5    H     H_    0.302205 0.302487 0.716106 0.136827
H6    H     H_    0.340723 0.019607 0.813474 0.195863
H7    H     H_    0.291051 0.178355 0.864111 0.151194
H8    H     H_    0.106381 0.185977 0.755058 0.184628
H9    H     H_    0.113872 0.026087 0.818295 0.155023
H10   H     H_    0.156815 0.024550 0.706720 0.246397
H11   H     H_    0.553611 0.911564 0.743488 0.218239
H12   H     H_    0.518678 0.253608 0.931689 0.116728
H13   H     H_    0.644023 0.760282 0.777256 0.181791
H14   H     H_    0.500754 0.938033 0.904911 0.159203
H15   H     H_    0.618720 0.809135 0.931229 0.141752
H16   H     H_    0.774260 0.954919 0.866902 0.177879
H17   H     H_    0.700700 0.048116 0.951316 0.128614
H18   H     H_    0.660197 0.087317 0.837372 0.233688
H19   H     H_    0.641621 0.142856 0.326822 0.202730
H20   H     H_    0.697642 0.302337 0.284131 0.137016
H21   H     H_    0.659142 0.020040 0.185975 0.195564
H22   H     H_    0.709340 0.179133 0.135951 0.151125
H23   H     H_    0.432411 0.692392 0.942648 0.117181
H24   H     H_    0.893620 0.185593 0.245425 0.185048
H25   H     H_    0.886094 0.026162 0.181671 0.154945
H26   H     H_    0.842672 0.023841 0.293153 0.246198
H27   H     H_    0.481323 0.253614 0.068301 0.116721
H28   H     H_    0.446406 0.911576 0.256475 0.218237
H29   H     H_    0.356037 0.760171 0.222867 0.181833
H30   H     H_    0.499025 0.937657 0.094924 0.159094
H31   H     H_    0.380981 0.808733 0.068860 0.141843
H32   H     H_    0.225706 0.954824 0.133450 0.178141
N1    N     N_R   0.500000 0.852070 0.500000 -0.269648
N2    N     N_R   0.500000 0.147930 0.500000 -0.291687
O1    O     O_R   0.319640 0.618740 0.499990 -0.422579
O2    O     O_3   0.480026 0.234194 0.764869 -0.550002
O3    O     O_3   0.452099 0.746110 0.780024 -0.557002
O4    O     O_3   0.519895 0.234180 0.235118 -0.549999
O5    O     O_R   0.680360 0.381260 0.500010 -0.442684
O6    O     O_R   0.680360 0.618740 0.500010 -0.422590
O7    O     O_R   0.319640 0.381260 0.499990 -0.442714
O8    O     O_R   0.499990 0.618780 0.371460 -0.457637
O9    O     O_R   0.500010 0.381220 0.628540 -0.458014
O10   O     O_R   0.500010 0.618780 0.628540 -0.457579
O11   O     O_R   0.499990 0.381220 0.371460 -0.458002
O12   O     O_3   0.547936 0.746101 0.219982 -0.556963

loop_
_geom_bond_atom_site_label_1
_geom_bond_atom_site_label_2
_ccdc_geom_bond_type
C24   H4    S    
C8    C13   A    
C2    C18   A    
C34   C37   A    
Cu1   O10   S    
C35   C36   A    
C5    H1    S    
C35   N1    A    
C32   H24   S    
C4    Cl8   S    
C7    C11   A    
C20   H29   S    
C28   C29   S    
C10   C15   A    
C33   O9    A    
C32   H26   S    
C30   C31   S    
C20   H28   S    
C3    C18   A    
C37   Cl4   S    
C27   O3    S    
C5    C16   A    
C27   H13   S    
C4    C19   A    
C11   C15   A    
C31   H22   S    
C31   C32   S    
C3    C38   A    
C36   N2    A    
C16   C17   S    
C7    C17   A    
Cu2   O9    S    
C13   O4    S    
Cu1   O1    S    
C30   O4    S    
C30   H19   S    
C22   H2    S    
C29   H16   S    
C8    C16   A    
C13   C14   A    
C37   N1    A    
C36   Cl3   S    
C25   C26   S    
Cu2   O5    S    
C1    C19   S    
Cu2   O11   S    
C12   O6    A    
C34   Cl1   S    
C6    H12   S    
C25   H6    S    
C33   O10   A    
C2    Cl6   S    
C32   H25   S    
C24   H5    S    
C3    Cl7   S    
C8    H27   S    
C23   O11   A    
C14   C23   S    
C21   H30   S    
C2    C4    A    
C9    C14   A    
C5    C9    A    
C19   C38   A    
Cu1   Cu2   S    
C21   H31   S    
C23   O8    A    
C24   C25   S    
C26   H10   S    
C29   H17   S    
Cu2   O7    S    
Cu1   O8    S    
C6    C17   A    
C20   O12   S    
C1    O7    A    
C12   O5    A    
C25   H7    S    
C26   H8    S    
C6    C10   A    
C1    O1    A    
Cu1   O6    S    
C35   Cl2   S    
C24   O2    S    
C22   H32   S    
C38   Cl5   S    
C27   H11   S    
C7    H23   S    
C11   O3    S    
C10   O2    S    
Cu2   N2    S    
Cu1   N1    S    
C26   H9    S    
C29   H18   S    
C28   H15   S    
C31   H21   S    
C20   C21   S    
C12   C18   S    
C27   C28   S    
C34   N2    A    
C21   C22   S    
C9    O12   S    
C15   C33   S    
C30   H20   S    
C22   H3    S    
C28   H14   S    
