data_mof_unit_15001.cif
_audit_creation_date              2012-12-11T15:28:35-0500
_audit_creation_method            fapswitch 2.2
_symmetry_space_group_name_H-M    P1
_symmetry_Int_Tables_number       1
_space_group_crystal_system       triclinic
_cell_length_a                    6.958961
_cell_length_b                    19.584889
_cell_length_c                    23.371264
_cell_angle_alpha                 96.029699
_cell_angle_beta                  91.200876
_cell_angle_gamma                 88.646198
_cell_volume                      3166.22735481

loop_
_atom_site_label
_atom_site_type_symbol
_atom_type_description
_atom_site_fract_x
_atom_site_fract_y
_atom_site_fract_z
_atom_type_partial_charge
O1    O     O_R   0.617180 0.809390 0.808140 -0.530589
O2    O     O_R   0.382820 0.190610 0.191860 -0.529576
O3    O     O_R   0.293300 0.672410 0.795490 -0.536650
O4    O     O_R   0.706700 0.327590 0.204510 -0.524230
O5    O     O_R   0.117220 0.690610 0.691850 -0.516104
O6    O     O_R   0.882780 0.309390 0.308150 -0.515216
C1    C     C_R   0.464658 0.647583 0.805077 0.800066
C2    C     C_R   0.535339 0.352404 0.194906 0.812031
O7    O     O_R   0.287840 0.807750 0.814460 -0.531440
O8    O     O_R   0.712160 0.192250 0.185540 -0.531886
O9    O     O_R   0.111720 0.826910 0.710960 -0.537065
O10   O     O_R   0.888280 0.173090 0.289040 -0.537730
C3    C     C_R   0.456517 0.830743 0.833178 0.688878
C4    C     C_R   0.543483 0.169257 0.166822 0.689770
O11   O     O_R   0.622680 0.673080 0.789040 -0.515234
O12   O     O_R   0.377320 0.326920 0.210960 -0.520329
O13   O     O_3   0.448820 0.756130 0.716020 -0.353059
O14   O     O_3   0.551180 0.243870 0.283980 -0.360549
V1    V     V_3+5 0.176220 0.748860 0.756300 1.474895
V2    V     V_3+5 0.823780 0.251140 0.243700 1.485987
O15   O     O_R   0.781670 0.827580 0.704500 -0.539973
O16   O     O_R   0.218330 0.172420 0.295500 -0.539449
C5    C     C_R   0.947656 0.851972 0.694240 0.677500
C6    C     C_R   0.052345 0.148027 0.305760 0.676725
O17   O     O_R   0.787130 0.692240 0.685530 -0.503104
O18   O     O_R   0.212870 0.307760 0.314470 -0.514222
C7    C     C_R   0.956121 0.669307 0.666748 0.762917
C8    C     C_R   0.043879 0.330693 0.333253 0.783519
V3    V     V_3+5 0.675510 0.751130 0.743690 1.524979
V4    V     V_3+5 0.324490 0.248870 0.256310 1.499574
O19   O     O_3   0.952780 0.743870 0.783980 -0.369423
O20   O     O_3   0.047220 0.256130 0.216020 -0.365640
C9    C     C_1   0.966686 0.617233 0.614701 -0.108154
C10   C     C_1   0.033309 0.382767 0.385297 -0.127136
C11   C     C_1   0.978247 0.573681 0.571912 0.081921
C12   C     C_1   0.021736 0.426319 0.428086 0.056914
C13   C     C_1   0.993428 0.521862 0.521316 0.063139
C14   C     C_1   0.006538 0.478139 0.478680 0.056964
C15   C     C_R   0.944760 0.914464 0.663874 -0.046997
C16   C     C_R   0.055268 0.085536 0.336127 -0.046528
C17   C     C_R   0.844742 0.033159 0.662816 -0.052445
C18   C     C_R   0.155607 0.966878 0.337218 -0.052463
C19   C     C_R   0.869006 0.975063 0.691749 -0.188499
C20   C     C_R   0.131229 0.024960 0.308274 -0.187633
C21   C     C_R   0.997176 0.912389 0.606012 -0.163788
C22   C     C_R   0.002753 0.087602 0.393981 -0.164547
C23   C     C_R   0.971320 0.970973 0.574583 0.068752
C24   C     C_R   0.028804 0.029042 0.425430 0.069204
C25   C     C_R   0.892159 0.032282 0.604269 -0.009895
C26   C     C_R   0.108142 0.967753 0.395761 -0.010078
C27   C     C_R   0.017643 0.970165 0.514706 -0.008706
C28   C     C_R   0.982531 0.029858 0.485312 -0.008582
C29   C     C_R   0.902411 0.088736 0.516638 -0.222658
C30   C     C_R   0.097944 0.911309 0.483398 -0.222163
C31   C     C_R   0.858866 0.090987 0.574774 0.432510
C32   C     C_R   0.141600 0.909068 0.425271 0.431845
H1    H     H_    0.949103 0.136475 0.413202 0.102748
H2    H     H_    0.050564 0.863491 0.586764 0.103939
H3    H     H_    0.174654 0.022864 0.263842 0.116892
H4    H     H_    0.825657 0.977167 0.736188 0.116469
H5    H     H_    0.784547 0.078221 0.687107 0.203708
H6    H     H_    0.215943 0.921832 0.312941 0.203836
H7    H     H_    0.870292 0.134582 0.496661 0.181073
H8    H     H_    0.130257 0.865491 0.503394 0.181442
C33   C     C_R   0.482079 0.584269 0.834287 -0.193623
C34   C     C_R   0.517917 0.415727 0.165704 -0.187305
C35   C     C_R   0.552113 0.462278 0.832056 -0.191964
C36   C     C_R   0.447876 0.537723 0.167951 -0.197955
C37   C     C_R   0.524879 0.520543 0.802872 0.380614
C38   C     C_R   0.475275 0.479458 0.197138 0.451120
C39   C     C_R   0.465154 0.588219 0.894466 -0.275070
C40   C     C_R   0.534657 0.411775 0.105522 -0.286932
C41   C     C_R   0.493983 0.529311 0.924836 0.101872
C42   C     C_R   0.505801 0.470684 0.075158 0.102972
C43   C     C_R   0.538025 0.466076 0.892062 0.056135
C44   C     C_R   0.461814 0.533920 0.107938 0.050091
C45   C     C_R   0.483023 0.530890 0.986353 0.069388
C46   C     C_R   0.516708 0.469103 0.013640 0.072870
C47   C     C_R   0.559782 0.407863 0.978478 -0.181500
C48   C     C_R   0.439939 0.592128 0.021516 -0.182219
C49   C     C_R   0.569694 0.406589 0.919155 -0.155552
C50   C     C_R   0.430078 0.593404 0.080842 -0.149189
H9    H     H_    0.603621 0.358178 0.894108 0.143261
H10   H     H_    0.396172 0.641816 0.105891 0.143782
H11   H     H_    0.566378 0.361643 0.083818 0.114960
H12   H     H_    0.433328 0.638345 0.916164 0.113498
H13   H     H_    0.586862 0.413446 0.807835 0.184773
H14   H     H_    0.413143 0.586558 0.192169 0.186324
H15   H     H_    0.587374 0.359494 0.995410 0.124893
H16   H     H_    0.412331 0.640495 0.004581 0.124452
C51   C     C_1   0.467245 0.882808 0.885234 -0.206447
C52   C     C_1   0.532755 0.117191 0.114766 -0.206091
C53   C     C_1   0.478675 0.926328 0.928059 0.005575
C54   C     C_1   0.521325 0.073671 0.071941 0.005615
C55   C     C_1   0.493576 0.978137 0.978677 0.007665
C56   C     C_1   0.506423 0.021863 0.021323 0.007687
S1    S     S_3+6 0.759022 0.169050 0.608696 0.031510
O21   O     O_2   0.562833 0.155870 0.630375 -0.315862
O22   O     O_2   0.886741 0.195038 0.658561 -0.302440
O23   O     O_3   0.739028 0.229349 0.562527 -0.499350
H17   H     H_    0.687786 0.270855 0.585677 0.395407
S2    S     S_3+6 0.241943 0.831067 0.391394 0.033450
O24   O     O_2   0.114572 0.804953 0.341490 -0.299904
O25   O     O_2   0.438115 0.844413 0.369784 -0.316377
O26   O     O_3   0.262124 0.770792 0.437580 -0.498136
H18   H     H_    0.318450 0.729900 0.414863 0.395929
S3    S     S_3+6 0.451042 0.487773 0.272875 0.025893
O27   O     O_2   0.464056 0.561796 0.297003 -0.292876
O28   O     O_2   0.258250 0.461324 0.286613 -0.342246
O29   O     O_3   0.625135 0.441736 0.303171 -0.508392
H19   H     H_    0.587947 0.441849 0.343863 0.354233
S4    S     S_3+6 0.549397 0.512145 0.727119 0.031764
O30   O     O_2   0.742392 0.538376 0.713416 -0.328872
O31   O     O_2   0.536843 0.438178 0.702785 -0.295621
O32   O     O_3   0.377281 0.558362 0.696166 -0.494334
H20   H     H_    0.254518 0.539923 0.707948 0.336064

loop_
_geom_bond_atom_site_label_1
_geom_bond_atom_site_label_2
_ccdc_geom_bond_type
C2    C34   S    
O6    C8    A    
O13   V3    S    
C55   C56   T    
C17   H5    S    
O4    C2    A    
V1    O19   S    
S4    O31   D    
S1    O21   D    
C23   C25   A    
C45   C46   A    
C7    C9    S    
C16   C22   A    
O9    V1    S    
C42   C44   A    
C11   C13   S    
O3    C1    A    
C38   S3    S    
C9    C11   T    
C37   S4    S    
C5    C15   S    
C1    C33   S    
C20   H3    S    
O12   V4    S    
O32   H20   S    
S2    O26   S    
C21   C23   A    
O7    C3    A    
O29   H19   S    
C6    C16   S    
O5    C7    A    
O7    V1    S    
C34   C40   A    
O8    V2    S    
S3    O27   D    
O3    V1    S    
O14   V4    S    
C18   H6    S    
C10   C12   T    
C15   C21   A    
C24   C26   A    
C8    C10   S    
C2    O12   A    
C3    C51   S    
S3    O28   D    
O10   V2    S    
C18   C20   A    
C17   C25   A    
S4    O30   D    
C49   H9    S    
O11   V3    S    
C22   C24   A    
C29   C31   A    
C40   H11   S    
O17   V3    S    
C30   C32   A    
C21   H2    S    
C27   C28   A    
C48   C50   A    
O8    C4    A    
C44   C50   A    
C39   C41   A    
C46   C47   A    
C43   C49   A    
C15   C19   A    
C1    O11   A    
C25   C31   A    
O15   V3    S    
C26   C32   A    
C35   C37   A    
S2    O25   D    
C13   C14   T    
C51   C53   T    
C39   H12   S    
C16   C20   A    
C31   S1    S    
O1    V3    S    
C36   C44   A    
C54   C56   S    
C4    C52   S    
C19   H4    S    
C18   C26   A    
C40   C42   A    
O18   V4    S    
C50   H10   S    
O15   C5    A    
C22   H1    S    
C36   H14   S    
S3    O29   S    
O16   C6    A    
O1    C3    A    
C41   C43   A    
S1    O23   S    
C28   C29   A    
C47   C49   A    
V2    O20   S    
C45   C48   A    
S1    O22   D    
O16   V4    S    
C35   H13   S    
C17   C19   A    
C23   C27   A    
O5    V1    S    
O17   C7    A    
O6    V2    S    
O26   H18   S    
O10   C6    A    
O18   C8    A    
O2    V4    S    
C27   C30   A    
C12   C14   S    
C32   S2    S    
V3    O19   S    
C33   C39   A    
V4    O20   S    
C29   H7    S    
C52   C54   T    
C34   C38   A    
C30   H8    S    
C33   C37   A    
O9    C5    A    
O23   H17   S    
O13   V1    S    
O14   V2    S    
C48   H16   S    
S2    O24   D    
O2    C4    A    
C47   H15   S    
O4    V2    S    
C24   C28   A    
C35   C43   A    
C53   C55   S    
C42   C46   A    
C36   C38   A    
C41   C45   A    
S4    O32   S    
