data_mof_unit_55908.cif
_audit_creation_date              2012-12-11T15:24:33-0500
_audit_creation_method            fapswitch 2.2
_symmetry_space_group_name_H-M    P1
_symmetry_Int_Tables_number       1
_space_group_crystal_system       triclinic
_cell_length_a                    22.934957
_cell_length_b                    6.955189
_cell_length_c                    20.736801
_cell_angle_alpha                 89.994744
_cell_angle_beta                  93.210122
_cell_angle_gamma                 90.005915
_cell_volume                      3302.68101516

loop_
_atom_site_label
_atom_site_type_symbol
_atom_type_description
_atom_site_fract_x
_atom_site_fract_y
_atom_site_fract_z
_atom_type_partial_charge
O1    O     O_R   0.188030 0.379840 0.189340 -0.539390
O2    O     O_R   0.811970 0.620160 0.810660 -0.540994
O3    O     O_R   0.311970 0.879840 0.310660 -0.539488
O4    O     O_R   0.688030 0.120160 0.689340 -0.541008
O5    O     O_R   0.307090 0.708420 0.185790 -0.537176
O6    O     O_R   0.692910 0.291580 0.814210 -0.536744
O7    O     O_R   0.192910 0.208420 0.314210 -0.537284
O8    O     O_R   0.807090 0.791580 0.685790 -0.536840
C1    C     C_R   0.326730 0.540752 0.170649 0.729652
C2    C     C_R   0.673278 0.459262 0.829360 0.729743
C3    C     C_R   0.173272 0.040727 0.329351 0.729733
C4    C     C_R   0.826720 0.959285 0.670639 0.729795
O9    O     O_R   0.188180 0.709480 0.181650 -0.541774
O10   O     O_R   0.811820 0.290520 0.818350 -0.539666
O11   O     O_R   0.311820 0.209480 0.318350 -0.541696
O12   O     O_R   0.688180 0.790520 0.681650 -0.539761
O13   O     O_R   0.192210 0.880960 0.306500 -0.535502
O14   O     O_R   0.807790 0.119040 0.693500 -0.536097
O15   O     O_R   0.307790 0.380960 0.193500 -0.535535
O16   O     O_R   0.692210 0.619040 0.806500 -0.536108
C5    C     C_R   0.167638 0.540593 0.165519 0.704018
C6    C     C_R   0.832339 0.459381 0.834520 0.703880
C7    C     C_R   0.332363 0.040597 0.334482 0.704407
C8    C     C_R   0.667662 0.959378 0.665477 0.703709
O17   O     O_3   0.251460 0.546730 0.290970 -0.369027
O18   O     O_3   0.748540 0.453270 0.709030 -0.369216
O19   O     O_3   0.248540 0.046730 0.209030 -0.368928
O20   O     O_3   0.751460 0.953270 0.790970 -0.369067
V1    V     V_3+5 0.249730 0.821120 0.242400 1.410227
V2    V     V_3+5 0.750270 0.178880 0.757600 1.412441
V3    V     V_3+5 0.250270 0.321120 0.257600 1.410028
V4    V     V_3+5 0.749730 0.678880 0.742400 1.412081
C9    C     C_R   0.578667 0.817109 0.607770 -0.141464
C10   C     C_R   0.421974 0.181614 0.391327 -0.144664
C11   C     C_R   0.921346 0.317173 0.892207 -0.141487
C12   C     C_R   0.078030 0.681595 0.108675 -0.144394
C13   C     C_R   0.618523 0.969918 0.615861 -0.112074
C14   C     C_R   0.381724 0.029753 0.383794 -0.122619
C15   C     C_R   0.881475 0.469921 0.884136 -0.111895
C16   C     C_R   0.118275 0.529739 0.116210 -0.121988
C17   C     C_R   0.610905 0.134429 0.576866 -0.207411
C18   C     C_R   0.389518 0.864897 0.422586 -0.204676
C19   C     C_R   0.889076 0.634352 0.923160 -0.207208
C20   C     C_R   0.110462 0.364853 0.077444 -0.205112
C21   C     C_R   0.564775 0.146326 0.529264 0.018992
C22   C     C_R   0.436221 0.851797 0.469421 0.018449
C23   C     C_R   0.935201 0.646246 0.970764 0.018731
C24   C     C_R   0.063764 0.351812 0.030600 0.017338
C25   C     C_R   0.524145 0.993651 0.522642 -0.020281
C26   C     C_R   0.476691 0.004810 0.476241 -0.026465
C27   C     C_R   0.975847 0.493640 0.977368 -0.020226
C28   C     C_R   0.023304 0.504812 0.023770 -0.026329
C29   C     C_R   0.531056 0.829320 0.562270 0.090566
C30   C     C_R   0.469871 0.168737 0.436448 0.092790
C31   C     C_R   0.968942 0.329358 0.937723 0.089747
C32   C     C_R   0.030119 0.668700 0.063567 0.093339
C33   C     C_R   0.558923 0.306619 0.487678 0.390490
C34   C     C_R   0.443109 0.688822 0.509578 0.370717
C35   C     C_R   0.941023 0.806437 0.012394 0.390948
C36   C     C_R   0.056832 0.188857 0.990456 0.370373
C37   C     C_R   0.511005 0.317673 0.442403 -0.226452
C38   C     C_R   0.490645 0.678454 0.555314 -0.231638
C39   C     C_R   0.988958 0.817541 0.057649 -0.225925
C40   C     C_R   0.009350 0.178526 0.944689 -0.230513
H1    H     H_    0.584045 0.690058 0.637828 0.120509
H2    H     H_    0.416657 0.308394 0.361133 0.124261
H3    H     H_    0.915980 0.190171 0.862127 0.120457
H4    H     H_    0.083346 0.808355 0.138877 0.124060
H5    H     H_    0.641799 0.251707 0.582974 0.163677
H6    H     H_    0.358351 0.748163 0.416925 0.165375
H7    H     H_    0.858170 0.751577 0.917073 0.163756
H8    H     H_    0.141603 0.248067 0.083114 0.164723
H9    H     H_    0.505527 0.445084 0.412562 0.133154
H10   H     H_    0.496778 0.549593 0.584294 0.132605
H11   H     H_    0.994431 0.944898 0.087509 0.133001
H12   H     H_    0.003322 0.049709 0.915662 0.133507
C41   C     C_3   0.047853 0.077187 0.529887 -0.138756
C42   C     C_3   0.952047 0.923110 0.469999 -0.138236
C43   C     C_3   0.448754 0.530056 0.967139 -0.138767
C44   C     C_3   0.551350 0.470333 0.032977 -0.138094
C45   C     C_3   0.017441 0.889475 0.550427 -0.140754
C46   C     C_3   0.982459 0.110823 0.449457 -0.140591
C47   C     C_3   0.489173 0.354063 0.958814 -0.138667
C48   C     C_3   0.510929 0.646323 0.041305 -0.138226
H13   H     H_    0.031640 0.797964 0.592268 0.106826
H14   H     H_    0.968255 0.202331 0.407618 0.107161
H15   H     H_    0.480452 0.233274 0.924628 0.105448
H16   H     H_    0.519655 0.767108 0.075492 0.105770
H17   H     H_    0.087593 0.140824 0.554367 0.108906
H18   H     H_    0.912310 0.859476 0.445513 0.108516
H19   H     H_    0.406214 0.554796 0.940213 0.108544
H20   H     H_    0.593891 0.445652 0.059909 0.108047
H21   H     H_    0.022793 0.676658 0.461541 0.110538
H22   H     H_    0.977101 0.323636 0.538345 0.110591
H23   H     H_    0.495446 0.198330 0.060756 0.107526
H24   H     H_    0.504662 0.802053 0.939361 0.107422
C49   C     C_1   0.872191 0.969020 0.624779 -0.194154
C50   C     C_1   0.127768 0.031060 0.375172 -0.194284
C51   C     C_1   0.627805 0.468954 0.875220 -0.194100
C52   C     C_1   0.372237 0.531146 0.124829 -0.194160
C53   C     C_3   0.987535 0.177341 0.520920 -0.139680
C54   C     C_3   0.012364 0.822955 0.478966 -0.139766
C55   C     C_3   0.502459 0.665530 0.966873 -0.136862
C56   C     C_3   0.497646 0.334854 0.033244 -0.136980
C57   C     C_3   0.957744 0.989764 0.540849 0.171051
C58   C     C_3   0.042157 0.010527 0.459037 0.170943
C59   C     C_3   0.542251 0.489677 0.959155 0.169675
C60   C     C_3   0.457852 0.510701 0.040961 0.169419
C61   C     C_1   0.910596 0.978098 0.586817 -0.065930
C62   C     C_1   0.089331 0.022091 0.413099 -0.066143
C63   C     C_1   0.589401 0.478000 0.913183 -0.065132
C64   C     C_1   0.410674 0.522241 0.086902 -0.065348
O21   O     O_3   0.596761 0.461197 0.495894 -0.575297
C65   C     C_3   0.632209 0.477944 0.442453 0.074934
H25   H     H_    0.644599 0.631722 0.438367 0.147470
H26   H     H_    0.609378 0.438269 0.395430 0.098671
C66   C     C_3   0.687999 0.358506 0.453681 -0.321582
H27   H     H_    0.710657 0.401235 0.500284 0.199969
H28   H     H_    0.676533 0.203565 0.456296 0.186677
C67   C     C_3   0.729368 0.387662 0.399409 -0.840931
H29   H     H_    0.707924 0.343039 0.352416 0.229309
H30   H     H_    0.769188 0.299008 0.408937 0.231408
H31   H     H_    0.742520 0.541035 0.396633 0.229435
O22   O     O_3   0.407695 0.529970 0.498321 -0.574171
C68   C     C_3   0.370036 0.508426 0.549255 0.063423
H32   H     H_    0.342582 0.639575 0.553758 0.114160
H33   H     H_    0.395227 0.481094 0.595833 0.114715
C69   C     C_3   0.330188 0.336110 0.534287 -0.263650
H34   H     H_    0.305481 0.359487 0.487262 0.196039
H35   H     H_    0.357228 0.204404 0.530232 0.201997
C70   C     C_3   0.287113 0.305990 0.586814 -0.871175
H36   H     H_    0.310927 0.278843 0.634063 0.231419
H37   H     H_    0.259007 0.179798 0.574428 0.230597
H38   H     H_    0.258827 0.434590 0.590820 0.232709
O23   O     O_3   0.903057 0.960718 0.004306 -0.575284
C71   C     C_3   0.867661 0.976753 0.057814 0.074969
H39   H     H_    0.854211 0.129708 0.061233 0.147572
H40   H     H_    0.890992 0.940701 0.104886 0.098903
C72   C     C_3   0.812663 0.852795 0.047469 -0.322589
H41   H     H_    0.789530 0.891964 0.000769 0.199814
H42   H     H_    0.825163 0.698622 0.045564 0.186563
C73   C     C_3   0.771332 0.881101 0.101827 -0.840003
H43   H     H_    0.793297 0.840408 0.148963 0.229101
H44   H     H_    0.732175 0.788823 0.093037 0.230812
H45   H     H_    0.757028 0.033482 0.103812 0.229687
O24   O     O_3   0.092077 0.029698 0.001655 -0.573992
C74   C     C_3   0.131106 0.012289 0.951858 0.062620
H46   H     H_    0.159815 0.141554 0.950747 0.114781
H47   H     H_    0.107131 0.994320 0.904006 0.113507
C75   C     C_3   0.169029 0.834397 0.965162 -0.262739
H48   H     H_    0.192193 0.847761 0.013513 0.197047
H49   H     H_    0.140695 0.704676 0.965472 0.200482
C76   C     C_3   0.213874 0.809321 0.914189 -0.870525
H50   H     H_    0.191638 0.794232 0.865463 0.231215
H51   H     H_    0.240091 0.677767 0.924911 0.230082
H52   H     H_    0.243785 0.934987 0.914454 0.232947

loop_
_geom_bond_atom_site_label_1
_geom_bond_atom_site_label_2
_ccdc_geom_bond_type
C34   C38   A    
C47   H15   S    
O1    C5    A    
C50   C62   T    
O19   V1    S    
O13   V1    S    
O3    C7    A    
C74   H46   S    
C18   H6    S    
C44   C48   S    
C70   H38   S    
O15   V3    S    
C69   H34   S    
C10   H2    S    
C65   H25   S    
C9    H1    S    
O23   C71   S    
C42   H18   S    
O7    C3    A    
C44   C59   S    
C21   C33   A    
C26   C30   A    
C44   C56   S    
C3    C50   S    
O9    V1    S    
C41   C58   S    
C74   H47   S    
C14   C18   A    
C24   C28   A    
C66   H28   S    
C58   C62   S    
O4    C8    A    
C72   C73   S    
C42   C54   S    
O1    V3    S    
O2    V4    S    
C18   C22   A    
O3    V1    S    
C12   C16   A    
C41   C53   S    
C1    O15   A    
C73   H43   S    
H22   C53   S    
C2    O16   A    
C75   C76   S    
O2    C6    A    
C68   C69   S    
C54   C58   S    
O14   V2    S    
C21   C25   A    
C76   H51   S    
C43   H19   S    
C67   H31   S    
O11   C7    A    
O12   C8    A    
C22   C34   A    
O17   V1    S    
C73   H45   S    
C43   C55   S    
C36   O24   S    
O10   V2    S    
C71   C72   S    
C67   H30   S    
C24   C36   A    
O5    V1    S    
C45   C54   S    
C9    C29   A    
C45   C57   S    
C53   C57   S    
O7    V3    S    
C47   C56   S    
O24   C74   S    
O19   V3    S    
C27   C28   A    
O8    V4    S    
O20   V4    S    
C74   C75   S    
C34   O22   S    
C71   H40   S    
C66   C67   S    
O18   V4    S    
C23   C27   A    
C27   C31   A    
C37   H9    S    
C46   H14   S    
C11   C31   A    
C9    C13   A    
C60   C64   S    
C44   H20   S    
C11   C15   A    
O5    C1    A    
C12   C32   A    
C49   C61   T    
C29   C38   A    
C42   C46   S    
C65   H26   S    
C41   C45   S    
O8    C4    A    
C51   C63   T    
C31   C40   A    
C8    C13   S    
C40   H12   S    
C32   C39   A    
O9    C5    A    
C33   O21   S    
C76   H52   S    
C33   C37   A    
C4    C49   S    
O6    V2    S    
C52   C64   T    
C1    C52   S    
C42   C57   S    
C68   H32   S    
C75   H49   S    
C70   H36   S    
C69   C70   S    
C56   C60   S    
H23   C56   S    
C17   H5    S    
O21   C65   S    
O16   V4    S    
C57   C61   S    
C3    O13   A    
C19   H7    S    
C10   C14   A    
C59   C63   S    
O17   V3    S    
C48   H16   S    
C71   H39   S    
C70   H37   S    
C69   H35   S    
H21   C54   S    
O6    C2    A    
C15   C19   A    
C72   H41   S    
C12   H4    S    
O11   V3    S    
C41   H17   S    
C30   C37   A    
O12   V4    S    
C7    C14   S    
C22   C26   A    
C35   C39   A    
C75   H48   S    
C36   C40   A    
O10   C6    A    
O20   V2    S    
C66   H27   S    
C43   C47   S    
C72   H42   S    
C10   C30   A    
C5    C16   S    
C39   H11   S    
C25   C29   A    
C6    C15   S    
C35   O23   S    
C48   C60   S    
C46   C53   S    
C47   C59   S    
C43   C60   S    
C20   H8    S    
C73   H44   S    
C46   C58   S    
C13   C17   A    
C2    C51   S    
O4    V2    S    
C65   C66   S    
C11   H3    S    
C23   C35   A    
C28   C32   A    
C16   C20   A    
C25   C26   A    
H24   C55   S    
C4    O14   A    
C68   H33   S    
C48   C55   S    
C17   C21   A    
C67   H29   S    
C38   H10   S    
C55   C59   S    
C76   H50   S    
C19   C23   A    
C45   H13   S    
C20   C24   A    
O22   C68   S    
O18   V2    S    
