data_mof_unit_56106.cif
_audit_creation_date              2012-12-10T18:32:01-0500
_audit_creation_method            fapswitch 2.2
_symmetry_space_group_name_H-M    P1
_symmetry_Int_Tables_number       1
_space_group_crystal_system       triclinic
_cell_length_a                    10.727488
_cell_length_b                    14.953585
_cell_length_c                    15.450365
_cell_angle_alpha                 82.03192
_cell_angle_beta                  90.395136
_cell_angle_gamma                 103.643243
_cell_volume                      2384.41640573

loop_
_atom_site_label
_atom_site_type_symbol
_atom_type_description
_atom_site_fract_x
_atom_site_fract_y
_atom_site_fract_z
_atom_type_partial_charge
C1    C     C_R   0.479671 0.441885 0.661971 0.835935
C2    C     C_R   0.439739 0.461711 0.894279 0.095616
C3    C     C_R   0.340671 0.381830 0.922173 0.170121
C4    C     C_R   0.741797 0.500450 0.497994 0.853451
C5    C     C_R   0.477679 0.531538 0.948732 0.071948
C6    C     C_R   0.431158 0.513705 0.036146 0.088643
C7    C     C_R   0.329079 0.435194 0.061455 -0.242951
C8    C     C_R   0.284203 0.370589 0.005043 -0.235163
C9    C     C_R   0.558610 0.619197 0.918185 -0.254528
C10   C     C_R   0.604710 0.682841 0.974697 -0.160386
C11   C     C_R   0.576817 0.660092 0.064680 0.073753
C12   C     C_3   0.120644 0.498510 0.503915 -0.052345
C13   C     C_R   0.490282 0.574082 0.095634 0.083572
C14   C     C_R   0.639480 0.718685 0.124517 -0.085719
C15   C     C_R   0.625920 0.686368 0.215288 -0.120855
C16   C     C_R   0.523340 0.558921 0.337886 0.933831
C17   C     C_R   0.474409 0.546100 0.185549 -0.229458
C18   C     C_R   0.671000 0.825672 0.658378 -0.273643
C19   C     C_R   0.640195 0.741049 0.627142 0.010510
C20   C     C_R   0.539797 0.804189 0.504863 -0.050596
C21   C     C_R   0.576032 0.894055 0.530498 -0.014309
C22   C     C_R   0.637496 0.903719 0.610928 0.059615
C23   C     C_3   0.097897 0.577044 0.430252 -0.173605
C24   C     C_R   0.550261 0.972716 0.478859 0.050426
C25   C     C_R   0.562872 0.058367 0.513645 0.039869
C26   C     C_R   0.634893 0.069479 0.592241 -0.015050
C27   C     C_R   0.669758 0.991120 0.640551 -0.012084
C28   C     C_R   0.257716 0.498402 0.503954 0.878031
C29   C     C_R   0.516962 0.968117 0.391053 -0.204871
C30   C     C_R   0.476307 0.038790 0.341907 -0.175584
C31   C     C_R   0.461952 0.114610 0.379583 0.142799
C32   C     C_R   0.504687 0.127363 0.465220 -0.003756
C33   C     C_R   0.398771 0.175230 0.332266 -0.330459
C34   C     C_3   0.073534 0.518398 0.594914 -0.071679
C35   C     C_R   0.374117 0.249086 0.368684 0.273757
C36   C     C_R   0.480599 0.206381 0.497619 -0.100336
C37   C     C_3   0.896335 0.400913 0.479245 -0.112513
C38   C     C_3   0.039332 0.400626 0.484614 -0.233363
C39   C     C_3   0.955292 0.579904 0.432152 -0.396359
C40   C     C_3   0.927403 0.513038 0.590671 -0.463966
C41   C     C_3   0.877384 0.498320 0.497735 0.066507
C42   C     C_3   0.831967 0.354681 0.399039 -0.411548
C43   C     C_3   0.820632 0.419764 0.314790 -0.299766
C44   C     C_3   0.747808 0.366037 0.245509 -0.858696
C45   C     C_R   0.447677 0.408714 0.753882 -0.070627
C46   C     C_3   0.147408 0.610288 0.629094 -0.405269
C47   C     C_3   0.230228 0.590704 0.707771 -0.366032
C48   C     C_3   0.308519 0.680524 0.736193 -0.795182
C49   C     C_2   0.701346 0.743766 0.277569 0.990635
C50   C     C_2   0.724629 0.811164 0.092247 0.929648
C51   C     C_2   0.744111 0.000469 0.721685 0.865865
C52   C     C_3   0.289003 0.303801 0.318585 -0.368715
C53   C     C_3   0.153207 0.242584 0.310363 -0.366619
C54   C     C_3   0.072920 0.291248 0.246953 -0.890988
C55   C     C_2   0.057916 0.317422 0.549373 0.879808
C56   C     C_R   0.543190 0.598408 0.245011 -0.154302
C57   C     C_3   0.697938 0.164548 0.617233 -0.423925
C58   C     C_3   0.637937 0.184534 0.700917 -0.313688
C59   C     C_3   0.690929 0.284811 0.716209 -0.874469
C60   C     C_2   0.144209 0.574836 0.337773 0.867203
C61   C     C_R   0.297673 0.315497 0.865732 -0.195980
C62   C     C_R   0.349095 0.330058 0.780790 -0.193361
C63   C     C_R   0.498627 0.469139 0.812622 -0.262296
H1    H     H_    0.948039 0.646796 0.453338 0.214834
H2    H     H_    0.279094 0.424288 0.123575 0.162244
H3    H     H_    0.586041 0.641610 0.850160 0.144693
H4    H     H_    0.502942 0.220898 0.562211 0.166411
H5    H     H_    0.448525 0.031216 0.275174 0.162972
H6    H     H_    0.721729 0.828843 0.719039 0.168348
H7    H     H_    0.667732 0.681805 0.663323 0.133581
H8    H     H_    0.482111 0.789350 0.448811 0.131572
H9    H     H_    0.523512 0.910505 0.357817 0.183348
H10   H     H_    0.364933 0.163446 0.267479 0.152174
H11   H     H_    0.072054 0.389969 0.419711 0.188730
H12   H     H_    0.153372 0.645372 0.445285 0.133096
H13   H     H_    0.914784 0.582008 0.366246 0.201731
H14   H     H_    0.903122 0.576239 0.609131 0.182573
H15   H     H_    0.875696 0.455038 0.639922 0.171266
H16   H     H_    0.085470 0.460974 0.645220 0.203976
H17   H     H_    0.796868 0.312999 0.228900 0.259651
H18   H     H_    0.648434 0.331191 0.269453 0.265885
H19   H     H_    0.742488 0.414922 0.185305 0.256383
H20   H     H_    0.765118 0.470436 0.327740 0.231281
H21   H     H_    0.917568 0.456983 0.288199 0.229722
H22   H     H_    0.883570 0.302455 0.383209 0.200994
H23   H     H_    0.205811 0.311300 0.026591 0.149968
H24   H     H_    0.734437 0.311819 0.418837 0.227697
H25   H     H_    0.372507 0.722415 0.681698 0.265992
H26   H     H_    0.243816 0.722136 0.756910 0.258786
H27   H     H_    0.368317 0.663711 0.792148 0.254283
H28   H     H_    0.167461 0.550142 0.763627 0.222456
H29   H     H_    0.296154 0.548646 0.690895 0.250558
H30   H     H_    0.207933 0.659918 0.577699 0.231419
H31   H     H_    0.080733 0.649507 0.651392 0.206236
H32   H     H_    0.747104 0.867131 0.323062 0.343342
H33   H     H_    0.742567 0.936796 0.019794 0.357038
H34   H     H_    0.413305 0.480276 0.211289 0.166098
H35   H     H_    0.915853 0.042301 0.775737 0.344103
H36   H     H_    0.070538 0.360068 0.264916 0.292683
H37   H     H_    0.112270 0.300029 0.179379 0.259915
H38   H     H_    0.973704 0.247418 0.248696 0.253829
H39   H     H_    0.157101 0.176594 0.286447 0.231317
H40   H     H_    0.103408 0.224043 0.375140 0.269852
H41   H     H_    0.280605 0.363653 0.350038 0.282563
H42   H     H_    0.332607 0.329367 0.252295 0.173953
H43   H     H_    0.030811 0.245977 0.671314 0.357755
H44   H     H_    0.795555 0.297533 0.727391 0.289541
H45   H     H_    0.668887 0.747673 0.947222 0.185498
H46   H     H_    0.673600 0.333441 0.658987 0.260899
H47   H     H_    0.643009 0.298205 0.774906 0.257154
H48   H     H_    0.531820 0.170213 0.697794 0.220088
H49   H     H_    0.659728 0.139230 0.759073 0.252516
H50   H     H_    0.801475 0.169191 0.627256 0.259646
H51   H     H_    0.700137 0.219834 0.561953 0.183380
H52   H     H_    0.161478 0.636393 0.212252 0.352850
H53   H     H_    0.220642 0.254856 0.885947 0.147767
H54   H     H_    0.307921 0.282864 0.735299 0.173053
H55   H     H_    0.581630 0.524259 0.791172 0.145132
H56   H     H_    0.846808 0.352227 0.536080 0.172030
N1    N     N_R   0.573860 0.731700 0.552730 -0.097995
N2    N     N_R   0.426060 0.268290 0.447230 -0.102824
O1    O     O_R   0.462770 0.383110 0.605620 -0.613394
O2    O     O_R   0.691189 0.835195 0.277821 -0.806954
O3    O     O_2   0.836954 0.829690 0.113268 -0.599574
O4    O     O_R   0.675619 0.876773 0.037798 -0.771515
O5    O     O_2   0.690134 0.970665 0.792899 -0.626850
O6    O     O_R   0.875971 0.040261 0.716165 -0.809557
O7    O     O_2   0.111271 0.261301 0.524873 -0.620671
O8    O     O_R   0.011456 0.303144 0.635736 -0.865587
O9    O     O_2   0.200601 0.516912 0.321351 -0.695863
O10   O     O_R   0.125942 0.643423 0.270924 -0.773842
O11   O     O_R   0.510160 0.531900 0.639510 -0.635434
O12   O     O_R   0.661510 0.425600 0.483070 -0.640410
O13   O     O_R   0.708900 0.574390 0.516960 -0.602952
O14   O     O_R   0.489840 0.468100 0.360490 -0.631342
O15   O     O_R   0.537230 0.616890 0.394380 -0.595783
O16   O     O_R   0.291100 0.425610 0.483040 -0.594385
O17   O     O_R   0.338490 0.574400 0.516930 -0.630435
O18   O     O_2   0.773576 0.711482 0.327524 -0.636154
Zn1   Zn    Zn3+2 0.468350 0.400660 0.477370 0.953026
Zn2   Zn    Zn3+2 0.531650 0.599340 0.522630 0.957129

loop_
_geom_bond_atom_site_label_1
_geom_bond_atom_site_label_2
_ccdc_geom_bond_type
H43   O8    S    
C43   H20   S    
C47   H29   S    
C54   H38   S    
C10   H45   S    
C1    O11   A    
C36   H4    S    
C7    C8    A    
C39   C41   S    
H52   O10   S    
C53   C54   S    
C52   C53   S    
C39   H1    S    
C12   C23   S    
C26   C27   A    
C29   C30   A    
C12   C28   S    
C58   H49   S    
C32   C36   A    
N2    Zn1   S    
C37   C38   S    
C44   H19   S    
C30   C31   A    
C11   C14   A    
C4    C41   S    
C49   O2    S    
C45   C62   A    
C59   H47   S    
C18   C19   A    
C37   C42   S    
C9    H3    S    
C62   H54   S    
C59   H46   S    
C1    O1    A    
C52   H41   S    
C38   C55   S    
C47   C48   S    
C55   O8    S    
C37   H56   S    
C48   H25   S    
C20   H8    S    
C34   C46   S    
C9    C10   A    
C29   H9    S    
C18   H6    S    
C48   H27   S    
C21   C22   A    
C12   C38   S    
C43   H21   S    
C54   H37   S    
C23   C60   S    
C14   C50   S    
C60   O10   S    
C27   C51   S    
C3    C61   A    
O14   Zn1   S    
O16   Zn1   S    
N1    Zn2   S    
C58   H48   S    
C44   H17   S    
C28   O17   A    
C24   C25   A    
C3    C8    A    
C60   O9    D    
C42   H22   S    
C63   H55   S    
C57   H50   S    
C25   C26   A    
C45   C63   A    
C59   H44   S    
C43   C44   S    
C16   C56   S    
C5    C9    A    
O15   Zn2   S    
C34   H16   S    
C7    H2    S    
C31   C32   A    
C46   H31   S    
C35   N2    A    
C53   H39   S    
C61   H53   S    
C31   C33   A    
C50   O3    D    
C50   O4    S    
C39   H13   S    
C20   C21   A    
C17   C56   A    
C6    C7    A    
C33   H10   S    
C40   C41   S    
C19   N1    A    
C44   H18   S    
C48   H26   S    
C49   O18   D    
C40   H15   S    
C54   H36   S    
C2    C5    A    
C42   C43   S    
C12   C34   S    
C16   O15   A    
C20   N1    A    
C2    C63   A    
C4    O13   A    
C38   H11   S    
H32   O2    S    
O11   Zn2   S    
C46   C47   S    
H35   O6    S    
C18   C22   A    
C51   O5    D    
C47   H28   S    
C28   O16   A    
C14   C15   A    
C23   H12   S    
O17   Zn2   S    
C52   H42   S    
C57   H51   S    
C13   C17   A    
C22   C27   A    
C51   O6    S    
C15   C56   A    
C2    C3    A    
C58   C59   S    
O1    Zn1   S    
O13   Zn2   S    
C11   C13   A    
C1    C45   S    
C57   C58   S    
C5    C6    A    
C46   H30   S    
C53   H40   S    
C23   C39   S    
C33   C35   A    
H33   O4    S    
C36   N2    A    
C8    H23   S    
C15   C49   S    
C37   C41   S    
C61   C62   A    
C26   C57   S    
C10   C11   A    
C24   C29   A    
C55   O7    D    
O12   Zn1   S    
C21   C24   A    
C35   C52   S    
C40   H14   S    
C34   C40   S    
C19   H7    S    
C42   H24   S    
C16   O14   A    
C17   H34   S    
C30   H5    S    
C4    O12   A    
C6    C13   A    
C25   C32   A    
