data_mof_unit_15023.cif
_audit_creation_date              2012-12-10T17:50:43-0500
_audit_creation_method            fapswitch 2.2
_symmetry_space_group_name_H-M    P1
_symmetry_Int_Tables_number       1
_space_group_crystal_system       triclinic
_cell_length_a                    14.715721
_cell_length_b                    14.860289
_cell_length_c                    15.82967
_cell_angle_alpha                 75.95748
_cell_angle_beta                  101.977721
_cell_angle_gamma                 115.739255
_cell_volume                      3004.24103802

loop_
_atom_site_label
_atom_site_type_symbol
_atom_type_description
_atom_site_fract_x
_atom_site_fract_y
_atom_site_fract_z
_atom_type_partial_charge
C1    C     C_R   0.879751 0.312477 0.516861 0.785873
C2    C     C_R   0.119658 0.687488 0.487901 0.791959
C3    C     C_R   0.775184 0.035155 0.617683 -0.201077
C4    C     C_R   0.216247 0.972556 0.438412 -0.195576
C5    C     C_R   0.844707 0.132701 0.588594 -0.194757
C6    C     C_R   0.150989 0.870596 0.442804 -0.194285
C7    C     C_R   0.705669 0.179576 0.516685 -0.260516
C8    C     C_R   0.284617 0.823369 0.529207 -0.264551
C9    C     C_R   0.634006 0.083429 0.548617 0.087821
C10   C     C_R   0.353886 0.925642 0.521743 0.085615
C11   C     C_R   0.670345 0.010129 0.598447 0.166819
C12   C     C_R   0.317968 0.000512 0.474988 0.165339
C13   C     C_R   0.527542 0.057518 0.530317 0.064725
C14   C     C_R   0.458866 0.955046 0.553904 0.068000
C15   C     C_R   0.497978 0.885372 0.606842 -0.230315
C16   C     C_R   0.487437 0.130594 0.489449 -0.230494
C17   C     C_R   0.601787 0.912782 0.628800 -0.231435
C18   C     C_R   0.384324 0.102378 0.463242 -0.219978
C19   C     C_R   0.702330 0.636670 0.327935 0.161770
C20   C     C_R   0.268614 0.315530 0.637366 0.159170
C21   C     C_R   0.791401 0.621804 0.364967 -0.016516
C22   C     C_R   0.194428 0.355361 0.618146 -0.025495
C23   C     C_R   0.999295 0.499912 0.659837 0.818009
C24   C     C_R   0.000722 0.500170 0.340142 0.827111
C25   C     C_R   0.713357 0.513017 0.490485 0.369808
C26   C     C_R   0.286582 0.488111 0.509930 0.383698
C27   C     C_R   0.617885 0.516608 0.453436 -0.084856
C28   C     C_R   0.359697 0.445961 0.519494 -0.098184
C29   C     C_R   0.614487 0.582201 0.372247 0.036247
C30   C     C_R   0.352110 0.361730 0.587701 0.039274
C31   C     C_R   0.526284 0.459384 0.495126 0.101064
C32   C     C_R   0.441339 0.485360 0.466076 0.096163
C33   C     C_R   0.437533 0.542420 0.381357 -0.224095
C34   C     C_R   0.512864 0.371910 0.559554 -0.200616
C35   C     C_R   0.521983 0.589555 0.335397 -0.193986
C36   C     C_R   0.427028 0.323225 0.603524 -0.191036
C37   C     C_3   0.976688 0.405587 0.044795 -0.156382
C38   C     C_3   0.022605 0.595170 0.954817 -0.159089
C39   C     C_3   0.906713 0.438772 0.968483 -0.160746
C40   C     C_3   0.092579 0.561985 0.031131 -0.159785
C41   C     C_1   0.998150 0.500280 0.749359 -0.181606
C42   C     C_1   0.001749 0.500020 0.250519 -0.189590
C43   C     C_3   0.068546 0.467328 0.991627 -0.155936
C44   C     C_3   0.930744 0.533430 0.008010 -0.158360
C45   C     C_3   0.998582 0.500507 0.916866 0.192679
C46   C     C_3   0.000724 0.500242 0.082767 0.193467
C47   C     C_1   0.997926 0.500470 0.824955 -0.082237
C48   C     C_1   0.001661 0.500077 0.174792 -0.079181
C49   C     C_R   0.810026 0.205683 0.538616 -0.050033
C50   C     C_R   0.185873 0.795461 0.486250 -0.047079
Cu1   Cu    Cu3+1 0.081740 0.475690 0.522610 0.942043
Cu2   Cu    Cu3+1 0.918260 0.524310 0.477390 0.926267
H1    H     H_    0.830436 0.388295 0.941312 0.128322
H2    H     H_    0.168867 0.612494 0.058251 0.128093
H3    H     H_    0.127814 0.320421 0.652363 0.155566
H4    H     H_    0.858719 0.658510 0.331648 0.156093
H5    H     H_    0.368327 0.548589 0.348019 0.149115
H6    H     H_    0.564770 0.335285 0.573317 0.164004
H7    H     H_    0.957917 0.327802 0.083123 0.129784
H8    H     H_    0.041365 0.672943 0.916464 0.129150
H9    H     H_    0.874218 0.560571 0.016169 0.129299
H10   H     H_    0.125084 0.440194 0.983488 0.130264
H11   H     H_    0.628594 0.856743 0.668765 0.140321
H12   H     H_    0.357003 0.160537 0.430385 0.150437
H13   H     H_    0.306109 0.763231 0.565625 0.156916
H14   H     H_    0.682236 0.235913 0.473843 0.153302
H15   H     H_    0.073907 0.850624 0.410820 0.151139
H16   H     H_    0.925164 0.151549 0.606820 0.146004
H17   H     H_    0.803354 0.979602 0.656342 0.131175
H18   H     H_    0.188248 0.029533 0.403333 0.133770
H19   H     H_    0.450151 0.809223 0.633952 0.139028
H20   H     H_    0.533704 0.210797 0.477273 0.141684
H21   H     H_    0.513906 0.632654 0.270689 0.157123
H22   H     H_    0.420862 0.255396 0.651059 0.162749
N1    N     N_R   0.795440 0.560790 0.443380 -0.221124
N2    N     N_R   0.204560 0.439210 0.556620 -0.214882
O1    O     O_R   0.977900 0.338120 0.529810 -0.587620
O2    O     O_R   0.022100 0.661880 0.470190 -0.589189
O3    O     O_R   0.839850 0.379180 0.491620 -0.598059
O4    O     O_R   0.160150 0.620820 0.508380 -0.547492
O5    O     O_R   0.069010 0.479460 0.640020 -0.578531
O6    O     O_R   0.930990 0.520540 0.359980 -0.579806
O7    O     O_R   0.930960 0.520530 0.601820 -0.575814
O8    O     O_R   0.069040 0.479470 0.398180 -0.577875
N3    N     N_2   0.302017 0.585929 0.460218 -0.396108
H23   H     H_    0.267883 0.592177 0.396579 0.243506
C51   C     C_3   0.389929 0.671768 0.488081 -0.678965
H24   H     H_    0.461089 0.674666 0.472494 0.230108
H25   H     H_    0.395972 0.667041 0.559931 0.219456
H26   H     H_    0.382484 0.743100 0.453515 0.230246
N4    N     N_2   0.725806 0.466757 0.579153 -0.442098
H27   H     H_    0.759648 0.416436 0.593042 0.282768
C52   C     C_3   0.746642 0.529621 0.643667 -0.659426
H28   H     H_    0.753328 0.485739 0.710541 0.217736
H29   H     H_    0.683654 0.553790 0.637802 0.221920
H30   H     H_    0.818601 0.598039 0.634453 0.243025
N5    N     N_2   0.699124 0.704867 0.247051 -0.430573
H31   H     H_    0.672865 0.758032 0.249741 0.249778
C53   C     C_3   0.779356 0.742298 0.191607 -0.717225
H32   H     H_    0.757448 0.783345 0.127806 0.230496
H33   H     H_    0.791075 0.678174 0.178483 0.236868
H34   H     H_    0.850891 0.795921 0.222840 0.215189
N6    N     N_2   0.261058 0.230147 0.705644 -0.428444
H35   H     H_    0.322156 0.243313 0.753836 0.249202
C54   C     C_3   0.163931 0.163910 0.737150 -0.714462
H36   H     H_    0.169455 0.094476 0.779283 0.232322
H37   H     H_    0.104362 0.140593 0.681246 0.231177
H38   H     H_    0.142699 0.202385 0.776977 0.215431

loop_
_geom_bond_atom_site_label_1
_geom_bond_atom_site_label_2
_ccdc_geom_bond_type
C51   H24   S    
C52   H28   S    
C27   C29   A    
C1    O1    A    
C16   H20   S    
C22   N2    A    
Cu2   N1    S    
C4    H18   S    
N5    H31   S    
C19   N5    S    
C22   H3    S    
C20   N6    S    
C20   C30   A    
N3    H23   S    
C36   H22   S    
C40   C46   S    
C54   H37   S    
C23   O7    A    
C3    H17   S    
C24   C42   S    
C15   C17   A    
C9    C13   A    
Cu1   O4    S    
C38   C45   S    
C24   O6    A    
C2    C50   S    
C40   C43   S    
C35   H21   S    
C31   C32   A    
C26   N2    A    
C4    C12   A    
Cu2   O3    S    
Cu1   O5    S    
C39   C45   S    
C45   C47   S    
C8    H13   S    
C52   H29   S    
C13   C14   A    
C5    C49   A    
C5    H16   S    
Cu2   O2    S    
N5    C53   S    
C44   C46   S    
N3    C51   S    
C54   H38   S    
C46   C48   S    
C25   N4    S    
C27   C31   A    
Cu1   Cu2   S    
C28   C32   A    
C3    C11   A    
Cu1   N2    S    
C7    C49   A    
C4    C6    A    
C10   C14   A    
N4    H27   S    
C25   N1    A    
C37   C43   S    
Cu2   O7    S    
Cu1   O1    S    
C38   C44   S    
C2    O2    A    
N4    C52   S    
C9    C11   A    
C53   H32   S    
C41   C47   T    
C31   C34   A    
N6    C54   S    
C42   C48   T    
C6    C50   A    
Cu2   O6    S    
C43   C45   S    
C37   H7    S    
C10   C12   A    
C38   H8    S    
C8    C10   A    
C6    H15   S    
C53   H33   S    
C20   C22   A    
C52   H30   S    
C40   H2    S    
C51   H25   S    
C1    O3    A    
C13   C16   A    
C19   C29   A    
C8    C50   A    
C7    C9    A    
C21   N1    A    
C11   C17   A    
C33   H5    S    
C23   O5    A    
C19   C21   A    
C3    C5    A    
C21   H4    S    
C39   C44   S    
C44   H9    S    
C25   C27   A    
C15   H19   S    
C54   H36   S    
C29   C35   A    
C26   C28   A    
C23   C41   S    
C30   C36   A    
C32   C33   A    
C28   C30   A    
C24   O8    A    
C37   C39   S    
C17   H11   S    
C7    H14   S    
C38   C40   S    
C18   H12   S    
C39   H1    S    
C26   N3    S    
C33   C35   A    
C34   C36   A    
C2    O4    A    
C53   H34   S    
C16   C18   A    
C51   H26   S    
C12   C18   A    
N6    H35   S    
C34   H6    S    
C14   C15   A    
C37   C46   S    
C1    C49   S    
Cu1   O8    S    
C43   H10   S    
