data_mof_unit_42241.cif
_audit_creation_date              2012-12-10T16:36:43-0500
_audit_creation_method            fapswitch 2.2
_symmetry_space_group_name_H-M    P1
_symmetry_Int_Tables_number       1
_space_group_crystal_system       triclinic
_cell_length_a                    14.18077
_cell_length_b                    16.423476
_cell_length_c                    15.101781
_cell_angle_alpha                 89.646955
_cell_angle_beta                  91.901001
_cell_angle_gamma                 89.956694
_cell_volume                      3515.16350499

loop_
_atom_site_label
_atom_site_type_symbol
_atom_type_description
_atom_site_fract_x
_atom_site_fract_y
_atom_site_fract_z
_atom_type_partial_charge
Br1   Br    Br    0.717059 0.085992 0.192857 -0.503830
Br2   Br    Br    0.182164 0.372027 0.199562 -0.485618
Br3   Br    Br    0.284252 0.927258 0.797454 -0.485958
Br4   Br    Br    0.803112 0.605308 0.797842 -0.405048
Br5   Br    Br    0.316334 0.286682 0.644915 -0.501635
Br6   Br    Br    0.368554 0.671729 0.581717 -0.475679
Br7   Br    Br    0.817892 0.787952 0.643726 -0.486442
Br8   Br    Br    0.866911 0.173139 0.586606 -0.596515
C1    C     C_R   0.679418 0.844619 0.520185 0.885314
C2    C     C_R   0.963391 0.530943 0.110232 -0.219513
C3    C     C_R   0.610711 0.043109 0.125937 0.259718
C4    C     C_R   0.094779 0.436492 0.128679 0.244464
C5    C     C_R   0.614523 0.049548 0.034269 -0.167635
C6    C     C_R   0.094526 0.425636 0.037349 -0.160367
C7    C     C_2   0.251076 0.221796 0.471654 0.217806
C8    C     C_2   0.242119 0.786014 0.483860 0.210393
C9    C     C_2   0.750924 0.721723 0.471639 0.205408
C10   C     C_2   0.743037 0.285058 0.482382 0.234097
C11   C     C_2   0.749513 0.782781 0.531095 0.020918
C12   C     C_R   0.679855 0.154881 0.519518 0.922509
C13   C     C_2   0.753613 0.213715 0.526452 -0.008781
C14   C     C_2   0.249427 0.282669 0.531342 -0.017004
C15   C     C_2   0.253589 0.713785 0.525930 0.010150
C16   C     C_R   0.320108 0.156251 0.480828 0.799625
C17   C     C_R   0.319480 0.844287 0.481960 0.798608
C18   C     C_R   0.820091 0.656248 0.480813 0.804839
C19   C     C_R   0.819659 0.344105 0.481716 0.799051
C20   C     C_R   0.520956 0.002084 0.260588 0.844280
C21   C     C_R   0.020691 0.497900 0.260907 0.836323
C22   C     C_R   0.477618 0.999746 0.738454 0.920737
C23   C     C_R   0.179441 0.344625 0.520269 0.922854
C24   C     C_R   0.977449 0.499826 0.738870 0.948357
C25   C     C_R   0.529835 0.009359 0.164391 -0.104049
C26   C     C_R   0.028344 0.489276 0.165379 -0.092334
C27   C     C_R   0.469214 0.998785 0.833749 -0.239268
C28   C     C_R   0.966203 0.500655 0.834594 -0.276310
C29   C     C_R   0.377907 0.970538 0.963542 0.458778
C30   C     C_R   0.899168 0.564652 0.963030 0.428252
C31   C     C_R   0.386649 0.968929 0.871318 0.103359
C32   C     C_R   0.899493 0.553083 0.871293 0.126979
C33   C     C_R   0.544709 0.027590 0.887132 0.377941
C34   C     C_R   0.179725 0.655027 0.519270 0.917441
C35   C     C_R   0.026325 0.453047 0.889744 0.373029
C36   C     C_3   0.227739 0.012346 0.993519 0.115234
C37   C     C_3   0.236422 0.069419 0.073390 -0.392132
C38   C     C_3   0.161705 0.136386 0.068072 -0.906412
C39   C     C_3   0.867469 0.695585 0.001025 0.098768
C40   C     C_3   0.789856 0.752596 0.031559 -0.289206
C41   C     C_3   0.822557 0.841137 0.033134 -0.940343
C42   C     C_3   0.689954 0.006742 0.829707 0.053300
C43   C     C_3   0.778607 0.051195 0.800830 -0.326608
C44   C     C_3   0.853144 0.992091 0.769177 -0.860155
C45   C     C_R   0.538998 0.023305 0.979505 -0.042210
C46   C     C_3   0.045415 0.319666 0.854883 0.081195
C47   C     C_3   0.108437 0.259277 0.807932 -0.260989
C48   C     C_3   0.065598 0.174014 0.806380 -0.948879
C49   C     C_3   0.614276 0.674572 0.406131 0.072674
C50   C     C_3   0.544623 0.688862 0.328137 -0.322232
C51   C     C_3   0.460566 0.631072 0.331220 -0.893573
C52   C     C_3   0.606819 0.359085 0.479587 0.080169
C53   C     C_3   0.511822 0.371577 0.430571 -0.310875
C54   C     C_3   0.452285 0.435507 0.475974 -0.859772
C55   C     C_3   0.113812 0.175530 0.406888 0.067324
C56   C     C_R   0.028365 0.466208 0.981625 -0.046582
C57   C     C_3   0.044075 0.189918 0.329052 -0.310617
C58   C     C_3   0.958203 0.134419 0.334194 -0.874944
C59   C     C_3   0.108801 0.863567 0.487916 0.098461
C60   C     C_3   0.010894 0.877371 0.445012 -0.330598
C61   C     C_3   0.957050 0.943537 0.492960 -0.874682
C62   C     C_R   0.456490 0.992395 0.017766 -0.055458
C63   C     C_R   0.963479 0.521115 0.018408 -0.051027
C64   C     C_R   0.453513 0.984802 0.109824 -0.238198
H1    H     H_    0.391577 0.959169 0.139531 0.210266
H2    H     H_    0.170228 0.176682 0.126516 0.294975
H3    H     H_    0.089813 0.109542 0.067463 0.260396
H4    H     H_    0.889389 0.716039 0.934240 0.183593
H5    H     H_    0.929160 0.699762 0.048403 0.127668
H6    H     H_    0.727132 0.747325 0.985808 0.254550
H7    H     H_    0.768840 0.734345 0.099117 0.230857
H8    H     H_    0.884266 0.848292 0.079664 0.273709
H9    H     H_    0.764470 0.880692 0.055402 0.275716
H10   H     H_    0.842198 0.861128 0.965820 0.263748
H11   H     H_    0.664184 0.966745 0.774860 0.152819
H12   H     H_    0.912625 0.571150 0.139634 0.194822
H13   H     H_    0.708781 0.968332 0.888860 0.142687
H14   H     H_    0.759568 0.094261 0.746029 0.260821
H15   H     H_    0.808564 0.086824 0.857437 0.226527
H16   H     H_    0.871527 0.946605 0.821684 0.266158
H17   H     H_    0.917852 0.026227 0.752659 0.279687
H18   H     H_    0.826540 0.960331 0.708719 0.286203
H19   H     H_    0.974604 0.320191 0.820485 0.173112
H20   H     H_    0.037238 0.298450 0.924392 0.131080
H21   H     H_    0.117956 0.280190 0.738711 0.276038
H22   H     H_    0.178822 0.256849 0.842527 0.237164
H23   H     H_    0.677184 0.075404 0.006187 0.199446
H24   H     H_    0.056012 0.151258 0.874896 0.255213
H25   H     H_    0.113362 0.131708 0.772296 0.286017
H26   H     H_    0.996188 0.174745 0.770080 0.296248
H27   H     H_    0.577835 0.688347 0.468656 0.167946
H28   H     H_    0.636245 0.609484 0.406826 0.168034
H29   H     H_    0.518757 0.752765 0.329546 0.212688
H30   H     H_    0.581139 0.679509 0.264972 0.244926
H31   H     H_    0.484621 0.566910 0.326597 0.269870
H32   H     H_    0.410983 0.644171 0.274469 0.277227
H33   H     H_    0.422511 0.639275 0.393548 0.286985
H34   H     H_    0.145845 0.384519 0.010442 0.200739
H35   H     H_    0.644245 0.418644 0.482687 0.143766
H36   H     H_    0.593459 0.337582 0.548257 0.165424
H37   H     H_    0.523910 0.391682 0.361447 0.240633
H38   H     H_    0.472611 0.312973 0.428363 0.237660
H39   H     H_    0.436779 0.415591 0.544341 0.297221
H40   H     H_    0.384572 0.444120 0.438036 0.292409
H41   H     H_    0.490045 0.494714 0.478861 0.259053
H42   H     H_    0.077788 0.190142 0.469417 0.160570
H43   H     H_    0.134916 0.110219 0.408077 0.159198
H44   H     H_    0.020381 0.254485 0.328965 0.229581
H45   H     H_    0.156066 0.985015 0.991859 0.186555
H46   H     H_    0.079710 0.178197 0.265962 0.247028
H47   H     H_    0.980041 0.069519 0.331940 0.263905
H48   H     H_    0.909224 0.147118 0.276941 0.300243
H49   H     H_    0.920411 0.145620 0.396119 0.293335
H50   H     H_    0.147682 0.922447 0.487727 0.144614
H51   H     H_    0.100043 0.843123 0.557766 0.170466
H52   H     H_    0.018153 0.895917 0.374647 0.230876
H53   H     H_    0.970026 0.819659 0.446793 0.236639
H54   H     H_    0.947302 0.925757 0.563126 0.288590
H55   H     H_    0.886560 0.952360 0.460094 0.293017
H56   H     H_    0.232958 0.048269 0.930901 0.154548
H57   H     H_    0.996004 0.002147 0.490903 0.260761
H58   H     H_    0.228342 0.033809 0.135501 0.243714
H59   H     H_    0.307055 0.098609 0.075479 0.238528
H60   H     H_    0.169877 0.173853 0.007328 0.265513
O1    O     O_3   0.500000 0.000000 0.500000 -0.522387
O2    O     O_R   0.885830 0.337110 0.539910 -0.618044
O3    O     O_R   0.692160 0.095230 0.468550 -0.615219
O4    O     O_R   0.692160 0.904770 0.468550 -0.637195
O5    O     O_R   0.192160 0.595230 0.468550 -0.639127
O6    O     O_R   0.192160 0.404770 0.468550 -0.613661
O7    O     O_R   0.316720 0.904790 0.427870 -0.637402
O8    O     O_R   0.316720 0.095210 0.427870 -0.637840
O9    O     O_R   0.816720 0.404790 0.427870 -0.626492
O10   O     O_R   0.816720 0.595210 0.427870 -0.643220
O11   O     O_R   0.594900 0.000000 0.310900 -0.589021
O12   O     O_3   0.000000 0.500000 0.500000 -0.519952
O13   O     O_R   0.094900 0.500000 0.310900 -0.597383
O14   O     O_R   0.483090 0.932320 0.697550 -0.618328
O15   O     O_R   0.483090 0.067680 0.697550 -0.595647
O16   O     O_R   0.983090 0.432320 0.697550 -0.634518
O17   O     O_R   0.983090 0.567680 0.697550 -0.599276
O18   O     O_R   0.438930 0.000000 0.294000 -0.654007
O19   O     O_R   0.938930 0.500000 0.294000 -0.641756
O20   O     O_3   0.293991 0.947583 0.001157 -0.612445
O21   O     O_3   0.832154 0.615111 0.998675 -0.606402
O22   O     O_3   0.620874 0.065462 0.849042 -0.620574
O23   O     O_R   0.605310 0.837110 0.563680 -0.626512
O24   O     O_3   0.087454 0.397792 0.852927 -0.617834
O25   O     O_3   0.693251 0.725691 0.395609 -0.648750
O26   O     O_3   0.660109 0.301099 0.433761 -0.634695
O27   O     O_3   0.193432 0.225725 0.395635 -0.614541
O28   O     O_3   0.157155 0.804087 0.439464 -0.653277
O29   O     O_R   0.605310 0.162890 0.563680 -0.640593
O30   O     O_R   0.105310 0.337110 0.563680 -0.650654
O31   O     O_R   0.105310 0.662890 0.563680 -0.631648
O32   O     O_R   0.385830 0.162890 0.539910 -0.610137
O33   O     O_R   0.385830 0.837110 0.539910 -0.600171
O34   O     O_R   0.885830 0.662890 0.539910 -0.601476
Zn1   Zn    Zn3+2 0.493670 0.096680 0.574000 1.035399
Zn2   Zn    Zn3+2 0.493670 0.903320 0.574000 1.037030
Zn3   Zn    Zn3+2 0.993670 0.596680 0.574000 1.049049
Zn4   Zn    Zn3+2 0.993670 0.403320 0.574000 1.008800
Zn5   Zn    Zn3+2 0.617760 0.000000 0.438070 1.028829
Zn6   Zn    Zn3+2 0.117760 0.500000 0.438070 1.034670
Zn7   Zn    Zn3+2 0.394920 0.000000 0.413930 0.978956
Zn8   Zn    Zn3+2 0.894920 0.500000 0.413930 0.988786

loop_
_geom_bond_atom_site_label_1
_geom_bond_atom_site_label_2
_ccdc_geom_bond_type
C47   C48   S    
C55   C57   S    
C20   O18   A    
C24   O17   A    
C1    O23   A    
C8    O28   S    
C10   C13   D    
C44   H18   S    
Br1   C3    S    
C55   O27   S    
C47   H21   S    
Br2   C4    S    
C60   H52   S    
C22   O15   A    
O10   Zn8   S    
C37   C38   S    
C16   O8    A    
C46   H20   S    
C51   H33   S    
C15   C34   S    
C22   C27   S    
C5    H23   S    
O17   Zn3   S    
C9    C18   S    
C24   C28   S    
C40   H7    S    
C17   O7    A    
C52   O26   S    
C39   H4    S    
O1    Zn1   S    
C38   H60   S    
C45   C62   A    
C40   H6    S    
C49   H27   S    
O12   Zn4   S    
Br8   C13   S    
C56   C63   A    
C41   H9    S    
O5    Zn6   S    
O14   Zn2   S    
C25   C64   A    
C9    C11   D    
C30   C63   A    
C55   H42   S    
C1    C11   S    
C7    C14   D    
C36   H56   S    
Br5   C14   S    
Br4   C32   S    
C60   C61   S    
C42   H11   S    
O16   Zn4   S    
C57   H46   S    
C59   O28   S    
C50   H30   S    
C48   H26   S    
C9    O25   S    
C52   H36   S    
C55   H43   S    
C2    C63   A    
O13   Zn6   S    
C53   H37   S    
C37   H58   S    
O19   Zn8   S    
C58   H48   S    
C29   C62   A    
C34   O5    A    
C44   H17   S    
C16   O32   A    
C48   H25   S    
C47   H22   S    
C27   C33   A    
C53   H38   S    
C43   H14   S    
C38   H3    S    
C35   C56   A    
C22   O14   A    
C5    C45   A    
C42   H13   S    
C14   C23   S    
C54   H39   S    
O6    Zn6   S    
C43   C44   S    
C3    C25   A    
C46   O24   S    
C54   H41   S    
O1    Zn2   S    
C43   H15   S    
C20   O11   A    
C34   O31   A    
O8    Zn7   S    
C39   O21   S    
C17   O33   A    
C50   C51   S    
C49   H28   S    
O12   Zn3   S    
C59   C60   S    
C52   C53   S    
C41   H10   S    
C27   C31   A    
C7    O27   S    
C10   O26   S    
C21   O19   A    
C12   O29   A    
C39   C40   S    
O30   Zn4   S    
O4    Zn5   S    
C28   C32   A    
O23   Zn2   S    
C6    C56   A    
C42   C43   S    
C58   H49   S    
C2    C26   A    
C50   H29   S    
C36   O20   S    
C23   O6    A    
C33   C45   A    
O29   Zn1   S    
C52   H35   S    
O15   Zn1   S    
C7    C16   S    
C4    C6    A    
C61   H54   S    
C37   H59   S    
C8    C15   D    
Br7   C11   S    
C58   H47   S    
O9    Zn8   S    
C57   H44   S    
O7    Zn7   S    
C39   H5    S    
C29   O20   S    
C4    C26   A    
C35   O24   S    
C59   H50   S    
C38   H2    S    
C36   C37   S    
O3    Zn5   S    
C33   O22   S    
C8    C17   S    
C48   H24   S    
C49   O25   S    
C46   C47   S    
C18   O34   A    
C19   O2    A    
O32   Zn1   S    
C10   C19   S    
C64   H1    S    
C59   H51   S    
C51   H32   S    
C20   C25   S    
C24   O16   A    
O33   Zn2   S    
O12   Zn6   S    
C41   H8    S    
C51   H31   S    
O1    Zn5   S    
O11   Zn5   S    
C46   H19   S    
C29   C31   A    
C30   C32   A    
C3    C5    A    
C49   C50   S    
C36   H45   S    
C42   O22   S    
C40   C41   S    
Br6   C15   S    
C21   C26   S    
C2    H12   S    
C19   O9    A    
C12   O3    A    
C53   C54   S    
O31   Zn3   S    
C44   H16   S    
C23   O30   A    
Br3   C31   S    
C1    O4    A    
C6    H34   S    
O18   Zn7   S    
C54   H40   S    
C12   C13   S    
C61   H55   S    
O34   Zn3   S    
C61   H57   S    
C57   C58   S    
O2    Zn4   S    
O12   Zn8   S    
C28   C35   A    
C62   C64   A    
C30   O21   S    
C18   O10   A    
O1    Zn7   S    
C60   H53   S    
C21   O13   A    
