data_mof_unit_13355.cif
_audit_creation_date              2012-12-10T17:01:46-0500
_audit_creation_method            fapswitch 2.2
_symmetry_space_group_name_H-M    P1
_symmetry_Int_Tables_number       1
_space_group_crystal_system       triclinic
_cell_length_a                    21.872654
_cell_length_b                    21.894449
_cell_length_c                    23.52865
_cell_angle_alpha                 89.948834
_cell_angle_beta                  89.674211
_cell_angle_gamma                 90.065481
_cell_volume                      11267.4342495

loop_
_atom_site_label
_atom_site_type_symbol
_atom_type_description
_atom_site_fract_x
_atom_site_fract_y
_atom_site_fract_z
_atom_type_partial_charge
C1    C     C_R   0.381685 0.999960 0.500969 0.784958
C2    C     C_R   0.999981 0.381804 0.499868 0.789507
C3    C     C_R   0.618321 0.000041 0.500048 0.787671
C4    C     C_R   0.000032 0.618215 0.500070 0.788416
C5    C     C_R   0.881812 0.499975 0.999952 0.788198
C6    C     C_R   0.499969 0.881667 0.999918 0.788166
C7    C     C_R   0.118194 0.500055 0.999894 0.788123
C8    C     C_R   0.500045 0.118343 0.000149 0.788195
C9    C     C_R   0.285228 0.972315 0.452913 -0.007496
C10   C     C_R   0.026571 0.284386 0.453429 -0.012097
C11   C     C_R   0.716695 0.035650 0.459784 -0.005636
C12   C     C_R   0.971154 0.715951 0.455685 -0.007256
C13   C     C_R   0.281755 0.024920 0.544640 0.000572
C14   C     C_R   0.029058 0.715926 0.544452 -0.009514
C15   C     C_R   0.716146 0.964771 0.540513 -0.004354
C16   C     C_R   0.972190 0.283911 0.544676 -0.010062
C17   C     C_R   0.784351 0.470990 0.955400 -0.008542
C18   C     C_R   0.535153 0.783592 0.959416 -0.004373
C19   C     C_R   0.216263 0.530011 0.955932 -0.008450
C20   C     C_R   0.464709 0.216426 0.959987 -0.003796
C21   C     C_R   0.783843 0.529078 0.044294 -0.006445
C22   C     C_R   0.535444 0.216458 0.040395 -0.005450
C23   C     C_R   0.215604 0.470692 0.044187 -0.006203
C24   C     C_R   0.465059 0.783609 0.041061 -0.005170
C25   C     C_R   0.186689 0.997897 0.496813 -0.163552
C26   C     C_R   0.999438 0.186878 0.498945 -0.152532
C27   C     C_R   0.813504 0.000110 0.500157 -0.156238
C28   C     C_R   0.000221 0.813158 0.500003 -0.165247
C29   C     C_R   0.686845 0.500160 0.999728 -0.169017
C30   C     C_R   0.500124 0.686530 0.000310 -0.157744
C31   C     C_R   0.313179 0.500377 0.000219 -0.168182
C32   C     C_R   0.499839 0.313500 0.000210 -0.157102
C33   C     C_R   0.315048 0.999624 0.499327 -0.076179
C34   C     C_R   0.999879 0.315213 0.499455 -0.076814
C35   C     C_R   0.685093 0.000177 0.500131 -0.085985
C36   C     C_R   0.000107 0.684817 0.500063 -0.078755
C37   C     C_R   0.815211 0.499957 0.999903 -0.078232
C38   C     C_R   0.499911 0.814907 0.000026 -0.085475
C39   C     C_R   0.184808 0.500260 0.000001 -0.078853
C40   C     C_R   0.500143 0.185124 0.000143 -0.086436
C41   C     C_R   0.000134 0.119503 0.499797 0.911369
C42   C     C_R   0.880647 0.000075 0.500096 0.926364
C43   C     C_R   0.000331 0.880520 0.499989 0.910702
C44   C     C_R   0.119302 0.996175 0.499304 0.862028
C45   C     C_R   0.499927 0.619368 0.000048 0.925745
C46   C     C_R   0.380532 0.500212 0.000113 0.915934
C47   C     C_R   0.499937 0.380642 0.000045 0.926597
C48   C     C_R   0.619476 0.500020 0.999885 0.915795
C49   C     C_R   0.499994 0.000018 0.392068 0.799338
C50   C     C_R   0.000146 0.500005 0.392048 0.798104
C51   C     C_R   0.499986 0.999978 0.607933 0.798727
C52   C     C_R   0.999853 0.499998 0.607952 0.798519
C53   C     C_R   0.999976 0.500022 0.892066 0.797956
C54   C     C_R   0.500139 0.000008 0.892051 0.801251
C55   C     C_R   0.000028 0.499975 0.107934 0.798475
C56   C     C_R   0.499848 0.999979 0.107950 0.801157
C57   C     C_1   0.499710 0.000028 0.331169 -0.190043
C58   C     C_1   0.000437 0.499943 0.331145 -0.190379
C59   C     C_1   0.500065 0.999945 0.668834 -0.189075
C60   C     C_1   0.999558 0.500009 0.668854 -0.190052
C61   C     C_1   0.999779 0.500057 0.831164 -0.189533
C62   C     C_1   0.500378 0.000001 0.831147 -0.190138
C63   C     C_1   0.000215 0.499916 0.168836 -0.189442
C64   C     C_1   0.499522 0.999955 0.168855 -0.188816
C65   C     C_1   0.499506 0.999989 0.279981 -0.014392
C66   C     C_1   0.000484 0.499902 0.279956 -0.017706
C67   C     C_1   0.500185 0.999958 0.720023 -0.012246
C68   C     C_1   0.999506 0.500026 0.720044 -0.016947
C69   C     C_1   0.999613 0.500049 0.779976 -0.016615
C70   C     C_1   0.500343 0.999985 0.779956 -0.011606
C71   C     C_1   0.000375 0.499890 0.220025 -0.016683
C72   C     C_1   0.499420 0.999954 0.220048 -0.012302
C73   C     C_R   0.320052 0.950852 0.406409 -0.285607
C74   C     C_R   0.047911 0.318586 0.406373 -0.285845
C75   C     C_R   0.683772 0.066364 0.416859 -0.284558
C76   C     C_R   0.947828 0.682335 0.409382 -0.285303
C77   C     C_R   0.310877 0.043090 0.595292 -0.276258
C78   C     C_R   0.052314 0.682295 0.590800 -0.288106
C79   C     C_R   0.682734 0.934470 0.583701 -0.293787
C80   C     C_R   0.950324 0.317338 0.591901 -0.286152
C81   C     C_R   0.818301 0.447531 0.909086 -0.287783
C82   C     C_R   0.565297 0.816705 0.915954 -0.294458
C83   C     C_R   0.182947 0.554141 0.909823 -0.288016
C84   C     C_R   0.434403 0.183230 0.917095 -0.293010
C85   C     C_R   0.817239 0.552470 0.090675 -0.285866
C86   C     C_R   0.566086 0.183250 0.083171 -0.284759
C87   C     C_R   0.181587 0.446492 0.090160 -0.284467
C88   C     C_R   0.434989 0.816908 0.084385 -0.284433
C89   C     C_R   0.295897 0.910904 0.366976 0.225678
C90   C     C_R   0.087793 0.294216 0.366897 0.225871
C91   C     C_R   0.708635 0.115287 0.387654 0.230994
C92   C     C_R   0.905241 0.706827 0.372866 0.226354
C93   C     C_R   0.278028 0.070169 0.639562 0.186316
C94   C     C_R   0.094670 0.706915 0.627510 0.225894
C95   C     C_R   0.706907 0.885256 0.612653 0.246086
C96   C     C_R   0.908299 0.292881 0.629486 0.226999
C97   C     C_R   0.793893 0.405002 0.872394 0.224891
C98   C     C_R   0.614495 0.792408 0.886687 0.246154
C99   C     C_R   0.207817 0.597274 0.873685 0.225977
C100  C     C_R   0.384880 0.207244 0.888689 0.243966
C101  C     C_R   0.792565 0.595186 0.127219 0.225742
C102  C     C_R   0.614806 0.207954 0.112370 0.231050
C103  C     C_R   0.205565 0.402619 0.125690 0.223763
C104  C     C_R   0.386949 0.792164 0.115019 0.227134
C105  C     C_R   0.234463 0.894016 0.371290 0.233885
C106  C     C_R   0.104559 0.233122 0.371557 0.232014
C107  C     C_R   0.770017 0.129792 0.395739 0.230986
C108  C     C_R   0.888150 0.767706 0.379345 0.233641
C109  C     C_R   0.216209 0.085068 0.631485 0.265165
C110  C     C_R   0.111724 0.767868 0.621064 0.233024
C111  C     C_R   0.767968 0.869635 0.603689 0.242524
C112  C     C_R   0.890312 0.232239 0.622979 0.233419
C113  C     C_R   0.732819 0.388080 0.878731 0.233431
C114  C     C_R   0.630265 0.731505 0.895676 0.242366
C115  C     C_R   0.268848 0.613974 0.880175 0.232749
C116  C     C_R   0.369606 0.268399 0.896980 0.242928
C117  C     C_R   0.731675 0.612277 0.120752 0.233427
C118  C     C_R   0.629213 0.269386 0.104394 0.231177
C119  C     C_R   0.266592 0.385760 0.119174 0.233380
C120  C     C_R   0.372500 0.730713 0.107708 0.231659
C121  C     C_R   0.195756 0.922112 0.412428 0.144415
C122  C     C_R   0.075961 0.194669 0.412658 0.144001
C123  C     C_R   0.807607 0.090859 0.428831 0.128046
C124  C     C_R   0.919247 0.805838 0.418796 0.138569
C125  C     C_R   0.189688 0.075145 0.577460 0.221674
C126  C     C_R   0.080808 0.805924 0.581431 0.141064
C127  C     C_R   0.806341 0.908633 0.570591 0.105778
C128  C     C_R   0.920224 0.194152 0.582412 0.141697
C129  C     C_R   0.694482 0.419234 0.918283 0.138101
C130  C     C_R   0.591382 0.693341 0.929112 0.106814
C131  C     C_R   0.306656 0.582146 0.919345 0.137697
C132  C     C_R   0.408593 0.306651 0.929821 0.106218
C133  C     C_R   0.693718 0.581123 0.081223 0.137085
C134  C     C_R   0.590396 0.307148 0.071345 0.128175
C135  C     C_R   0.305210 0.418079 0.080560 0.136860
C136  C     C_R   0.410481 0.692920 0.073453 0.131087
C137  C     C_R   0.220878 0.964086 0.454012 -0.019575
C138  C     C_R   0.033847 0.220094 0.455033 -0.036762
C139  C     C_R   0.780920 0.042093 0.463011 -0.033466
C140  C     C_R   0.963602 0.780078 0.458247 -0.035765
C141  C     C_R   0.218365 0.032937 0.539088 -0.073813
C142  C     C_R   0.036644 0.780071 0.541866 -0.034023
C143  C     C_R   0.780309 0.957984 0.537068 -0.020355
C144  C     C_R   0.964056 0.219898 0.541951 -0.034808
C145  C     C_R   0.720139 0.463532 0.957876 -0.035741
C146  C     C_R   0.542050 0.719511 0.962951 -0.019405
C147  C     C_R   0.280440 0.537477 0.958610 -0.034502
C148  C     C_R   0.457827 0.280511 0.963396 -0.019622
C149  C     C_R   0.719714 0.536742 0.041650 -0.035506
C150  C     C_R   0.541762 0.280693 0.037242 -0.033597
C151  C     C_R   0.279766 0.463161 0.041616 -0.036028
C152  C     C_R   0.458645 0.719360 0.038172 -0.034810
Cu1   Cu    Cu3+1 0.500000 0.061820 0.500000 0.932410
Cu2   Cu    Cu3+1 0.938180 0.500000 0.500000 0.927293
Cu3   Cu    Cu3+1 0.500000 0.938180 0.500000 0.927704
Cu4   Cu    Cu3+1 0.061820 0.500000 0.500000 0.928306
Cu5   Cu    Cu3+1 0.000000 0.561820 0.000000 0.927301
Cu6   Cu    Cu3+1 0.438180 0.000000 0.000000 0.927274
Cu7   Cu    Cu3+1 1.000000 0.438180 0.000000 0.926234
Cu8   Cu    Cu3+1 0.561820 0.000000 0.000000 0.926366
Cu9   Cu    Cu3+1 1.000000 1.000000 0.555810 0.879233
Cu10  Cu    Cu3+1 0.000000 0.000000 0.444190 0.863679
Cu11  Cu    Cu3+1 0.500000 0.500000 0.055810 0.863682
Cu12  Cu    Cu3+1 0.500000 0.500000 0.944190 0.865370
H1    H     H_    0.367879 0.962420 0.401506 0.160829
H2    H     H_    0.036451 0.366300 0.401089 0.157507
H3    H     H_    0.636635 0.055361 0.407726 0.164906
H4    H     H_    0.959741 0.634927 0.402679 0.158978
H5    H     H_    0.359112 0.034799 0.601851 0.154096
H6    H     H_    0.040467 0.634822 0.597445 0.159236
H7    H     H_    0.635608 0.945825 0.592925 0.163501
H8    H     H_    0.962659 0.364689 0.598388 0.157025
H9    H     H_    0.865876 0.459281 0.902509 0.159541
H10   H     H_    0.553915 0.863743 0.906809 0.162819
H11   H     H_    0.135489 0.542420 0.902989 0.159747
H12   H     H_    0.445945 0.136274 0.907765 0.163214
H13   H     H_    0.864640 0.540527 0.097399 0.158811
H14   H     H_    0.555171 0.136044 0.092227 0.165161
H15   H     H_    0.134118 0.458365 0.097035 0.159966
H16   H     H_    0.445824 0.864213 0.092883 0.165138
O1    O     O_R   0.409810 0.052200 0.500010 -0.581657
O2    O     O_R   0.947800 0.409810 0.500010 -0.584622
O3    O     O_R   0.590190 0.947800 0.500010 -0.585036
O4    O     O_R   0.052200 0.590190 0.500010 -0.584367
O5    O     O_R   0.409810 0.947800 0.499990 -0.584691
O6    O     O_R   0.947800 0.590190 0.499990 -0.585059
O7    O     O_R   0.590190 0.052200 0.499990 -0.586406
O8    O     O_R   0.052200 0.409810 0.499990 -0.584759
O9    O     O_R   0.909810 0.552200 0.000010 -0.584802
O10   O     O_R   0.447800 0.909810 0.000010 -0.586375
O11   O     O_R   0.090190 0.447800 0.000010 -0.585480
O12   O     O_R   0.552200 0.090190 0.000010 -0.586391
O13   O     O_R   0.909810 0.447800 0.999990 -0.584692
O14   O     O_R   0.447800 0.090190 0.999990 -0.584836
O15   O     O_R   0.090190 0.552200 0.999990 -0.584560
O16   O     O_R   0.552200 0.909810 0.999990 -0.584864
O17   O     O_R   0.499980 0.052200 0.418610 -0.582849
O18   O     O_R   0.947800 0.499980 0.418610 -0.583188
O19   O     O_R   0.500020 0.947800 0.418610 -0.582453
O20   O     O_R   0.052200 0.500020 0.418610 -0.583190
O21   O     O_R   0.499980 0.947800 0.581390 -0.584310
O22   O     O_R   0.947800 0.500020 0.581390 -0.583129
O23   O     O_R   0.500020 0.052200 0.581390 -0.579558
O24   O     O_R   0.052200 0.499980 0.581390 -0.582983
O25   O     O_R   0.999980 0.552200 0.918610 -0.582903
O26   O     O_R   0.447800 0.999980 0.918610 -0.581811
O27   O     O_R   0.000020 0.447800 0.918610 -0.582724
O28   O     O_R   0.552200 0.000020 0.918610 -0.582586
O29   O     O_R   0.999980 0.447800 0.081390 -0.583742
O30   O     O_R   0.447800 0.000020 0.081390 -0.583182
O31   O     O_R   0.000020 0.552200 0.081390 -0.582683
O32   O     O_R   0.552200 0.999980 0.081390 -0.583009
O33   O     O_R   0.999980 0.090160 0.547150 -0.559233
O34   O     O_R   0.909840 0.999980 0.547150 -0.577955
O35   O     O_R   0.000020 0.909840 0.547150 -0.571076
O36   O     O_R   0.090160 0.000020 0.547150 -0.593092
O37   O     O_R   0.999980 0.909840 0.452850 -0.577109
O38   O     O_R   0.909840 0.000020 0.452850 -0.580108
O39   O     O_R   0.000020 0.090160 0.452850 -0.573980
O40   O     O_R   0.090160 0.999980 0.452850 -0.569708
O41   O     O_R   0.499980 0.590160 0.047150 -0.579158
O42   O     O_R   0.409840 0.499980 0.047150 -0.573770
O43   O     O_R   0.500020 0.409840 0.047150 -0.579140
O44   O     O_R   0.590160 0.500020 0.047150 -0.573350
O45   O     O_R   0.499980 0.409840 0.952850 -0.577102
O46   O     O_R   0.409840 0.500020 0.952850 -0.572245
O47   O     O_R   0.500020 0.590160 0.952850 -0.576834
O48   O     O_R   0.590160 0.499980 0.952850 -0.571633
N1    N     N_2   0.308417 0.085244 0.690963 -0.435294
H17   H     H_    0.339559 0.052616 0.703543 0.259004
C153  C     C_3   0.334945 0.145827 0.690807 -0.709881
H18   H     H_    0.371612 0.149050 0.658018 0.232564
H19   H     H_    0.355170 0.155545 0.732934 0.237381
H20   H     H_    0.299472 0.180855 0.682152 0.229800
N2    N     N_2   0.882990 0.330238 0.673130 -0.415222
H21   H     H_    0.914949 0.357837 0.692517 0.251883
C154  C     C_3   0.829509 0.364345 0.656228 -0.690647
H22   H     H_    0.841541 0.397389 0.622038 0.233561
H23   H     H_    0.811364 0.390051 0.693308 0.228204
H24   H     H_    0.793173 0.333056 0.640976 0.224779
N3    N     N_2   0.668690 0.850106 0.649413 -0.410620
H25   H     H_    0.636166 0.875610 0.670656 0.245341
C155  C     C_3   0.642513 0.796470 0.623175 -0.658030
H26   H     H_    0.616124 0.770229 0.655439 0.212474
H27   H     H_    0.678980 0.766368 0.605920 0.245883
H28   H     H_    0.611225 0.810032 0.588306 0.220731
N4    N     N_2   0.120915 0.669566 0.670472 -0.415306
H29   H     H_    0.089638 0.641099 0.690117 0.251471
C156  C     C_3   0.175076 0.636823 0.652610 -0.688793
H30   H     H_    0.163563 0.603604 0.618590 0.232620
H31   H     H_    0.194144 0.611497 0.689369 0.226572
H32   H     H_    0.210537 0.668999 0.636750 0.224905
N5    N     N_2   0.334248 0.886763 0.323426 -0.417413
H33   H     H_    0.363384 0.918832 0.305879 0.252183
C157  C     C_3   0.366317 0.831603 0.339118 -0.691473
H34   H     H_    0.399227 0.841256 0.373817 0.233580
H35   H     H_    0.391935 0.813988 0.301699 0.223666
H36   H     H_    0.333635 0.795786 0.353245 0.224673
N6    N     N_2   0.878772 0.669401 0.330101 -0.415640
H37   H     H_    0.909984 0.641121 0.310267 0.251827
C158  C     C_3   0.824863 0.636342 0.348372 -0.689855
H38   H     H_    0.836737 0.603235 0.382410 0.232966
H39   H     H_    0.805647 0.610841 0.311804 0.226897
H40   H     H_    0.789390 0.668324 0.364354 0.224963
N7    N     N_2   0.671234 0.150273 0.350590 -0.415543
H41   H     H_    0.640798 0.124201 0.327616 0.249992
C159  C     C_3   0.641558 0.201714 0.377566 -0.688920
H42   H     H_    0.608748 0.185540 0.410573 0.230048
H43   H     H_    0.616176 0.228314 0.345174 0.219263
H44   H     H_    0.675825 0.232350 0.397384 0.226578
N8    N     N_2   0.112000 0.331986 0.322919 -0.415153
H45   H     H_    0.079796 0.360477 0.305096 0.251866
C160  C     C_3   0.166829 0.364862 0.338318 -0.690841
H46   H     H_    0.156787 0.397761 0.373094 0.233204
H47   H     H_    0.184167 0.390583 0.300850 0.227877
H48   H     H_    0.203035 0.332737 0.352187 0.224715
N9    N     N_2   0.829826 0.621799 0.169990 -0.415812
H49   H     H_    0.857896 0.590658 0.189903 0.251674
C161  C     C_3   0.863236 0.675389 0.151640 -0.689711
H50   H     H_    0.896533 0.663155 0.117652 0.233095
H51   H     H_    0.888632 0.694751 0.188176 0.227075
H52   H     H_    0.831445 0.710821 0.135571 0.224989
N10   N     N_2   0.352436 0.829879 0.152505 -0.417082
H53   H     H_    0.379050 0.859720 0.175626 0.253487
C162  C     C_3   0.301727 0.860651 0.125677 -0.694379
H54   H     H_    0.318701 0.892478 0.092273 0.232597
H55   H     H_    0.276004 0.887360 0.157956 0.221297
H56   H     H_    0.270024 0.826984 0.106410 0.226556
N11   N     N_2   0.167211 0.374119 0.166958 -0.416370
H57   H     H_    0.139561 0.404644 0.188401 0.252676
C163  C     C_3   0.132688 0.322853 0.145380 -0.691295
H58   H     H_    0.101531 0.337986 0.110962 0.235493
H59   H     H_    0.104653 0.302811 0.180176 0.225768
H60   H     H_    0.163980 0.287060 0.128834 0.225024
N12   N     N_2   0.649721 0.170330 0.149305 -0.415561
H61   H     H_    0.623560 0.139719 0.172327 0.250095
C164  C     C_3   0.701335 0.140938 0.122152 -0.689764
H62   H     H_    0.685291 0.108400 0.089178 0.230089
H63   H     H_    0.727872 0.115354 0.154446 0.219363
H64   H     H_    0.732039 0.175352 0.102258 0.226439
N13   N     N_2   0.831627 0.378342 0.829657 -0.415864
H65   H     H_    0.859974 0.409498 0.809716 0.251909
C165  C     C_3   0.864791 0.324864 0.848133 -0.688925
H66   H     H_    0.897415 0.337173 0.882339 0.233314
H67   H     H_    0.890948 0.305683 0.811732 0.228220
H68   H     H_    0.832746 0.289272 0.863952 0.224193
N14   N     N_2   0.349270 0.168770 0.852992 -0.417215
H69   H     H_    0.374279 0.134833 0.833290 0.244106
C166  C     C_3   0.294526 0.144776 0.879635 -0.646530
H70   H     H_    0.268240 0.117898 0.848070 0.222287
H71   H     H_    0.264908 0.182395 0.895290 0.244782
H72   H     H_    0.306768 0.114447 0.915732 0.218227
N15   N     N_2   0.170633 0.624632 0.831263 -0.415614
H73   H     H_    0.142257 0.593900 0.811142 0.251729
C167  C     C_3   0.137699 0.678162 0.850221 -0.690104
H74   H     H_    0.104587 0.665711 0.884346 0.232699
H75   H     H_    0.112131 0.697994 0.814000 0.226639
H76   H     H_    0.169843 0.713305 0.866327 0.224865
N16   N     N_2   0.649528 0.830378 0.849628 -0.410662
H77   H     H_    0.623882 0.862643 0.828467 0.245276
C168  C     C_3   0.703205 0.856863 0.875478 -0.657987
H78   H     H_    0.689622 0.888359 0.910353 0.220689
H79   H     H_    0.729350 0.883034 0.842996 0.212513
H80   H     H_    0.733454 0.820643 0.892632 0.246008
N17   N     N_2   0.210877 0.847095 0.335533 -0.416410
H81   H     H_    0.224932 0.803656 0.346091 0.246069
C169  C     C_3   0.210519 0.859112 0.274957 -0.676257
H82   H     H_    0.170605 0.835851 0.255685 0.214524
H83   H     H_    0.252674 0.840874 0.254815 0.255128
H84   H     H_    0.207009 0.908840 0.265968 0.219580
N18   N     N_2   0.151786 0.209342 0.335865 -0.418551
H85   H     H_    0.195250 0.223411 0.346383 0.245790
C170  C     C_3   0.140154 0.207905 0.275309 -0.671013
H86   H     H_    0.160390 0.165789 0.257025 0.213737
H87   H     H_    0.161929 0.247828 0.254320 0.248674
H88   H     H_    0.090317 0.207905 0.266224 0.219931
N19   N     N_2   0.795542 0.183598 0.370820 -0.419759
H89   H     H_    0.786671 0.223348 0.392779 0.242841
C171  C     C_3   0.793623 0.189386 0.309495 -0.651616
H90   H     H_    0.837136 0.209886 0.294243 0.212580
H91   H     H_    0.755480 0.219889 0.297021 0.239083
H92   H     H_    0.787855 0.144234 0.288588 0.223095
N20   N     N_2   0.838517 0.791554 0.347110 -0.417091
H93   H     H_    0.795833 0.778322 0.361258 0.245011
C172  C     C_3   0.845351 0.792517 0.285782 -0.667002
H94   H     H_    0.824949 0.835169 0.268929 0.214336
H95   H     H_    0.821017 0.753127 0.266721 0.244695
H96   H     H_    0.894274 0.791039 0.272755 0.219015
N21   N     N_2   0.180960 0.111728 0.676367 -0.419096
H97   H     H_    0.205333 0.128554 0.710271 0.278185
C173  C     C_3   0.128362 0.076257 0.694310 -0.705307
H98   H     H_    0.103046 0.101388 0.727967 0.215403
H99   H     H_    0.143325 0.031508 0.711669 0.212489
H100  H     H_    0.096635 0.068542 0.658349 0.261682
N22   N     N_2   0.161229 0.791831 0.653429 -0.416571
H101  H     H_    0.203986 0.778836 0.639387 0.245023
C174  C     C_3   0.154200 0.792740 0.714736 -0.666618
H102  H     H_    0.174314 0.835553 0.731575 0.215313
H103  H     H_    0.178682 0.753532 0.733910 0.244883
H104  H     H_    0.105247 0.790872 0.727641 0.218534
N23   N     N_2   0.790912 0.814093 0.627395 -0.423729
H105  H     H_    0.826023 0.792467 0.606084 0.248379
C175  C     C_3   0.791756 0.808087 0.688775 -0.644070
H106  H     H_    0.763794 0.767951 0.701313 0.239721
H107  H     H_    0.773433 0.849392 0.710387 0.231864
H108  H     H_    0.839323 0.800736 0.703508 0.197375
N24   N     N_2   0.840638 0.208784 0.656002 -0.417594
H109  H     H_    0.798018 0.222578 0.642692 0.244869
C176  C     C_3   0.847988 0.207287 0.717194 -0.668492
H110  H     H_    0.827735 0.164431 0.734075 0.214722
H111  H     H_    0.823805 0.246444 0.736977 0.245023
H112  H     H_    0.897015 0.208780 0.729377 0.220238
N25   N     N_2   0.709014 0.338517 0.846290 -0.416471
H113  H     H_    0.722379 0.295901 0.860056 0.245157
C177  C     C_3   0.708287 0.345510 0.785011 -0.668797
H114  H     H_    0.665525 0.325330 0.768163 0.214993
H115  H     H_    0.747631 0.321106 0.765659 0.244440
H116  H     H_    0.710115 0.394409 0.772291 0.218452
N26   N     N_2   0.685911 0.708545 0.871750 -0.423590
H117  H     H_    0.707675 0.673706 0.893043 0.248594
C178  C     C_3   0.691918 0.707249 0.810347 -0.644813
H118  H     H_    0.732066 0.735129 0.797570 0.239693
H119  H     H_    0.650550 0.725347 0.788887 0.231861
H120  H     H_    0.699328 0.659626 0.795679 0.197366
N27   N     N_2   0.293232 0.663797 0.848108 -0.416891
H121  H     H_    0.280156 0.706330 0.862390 0.245180
C179  C     C_3   0.294365 0.657641 0.786754 -0.665939
H122  H     H_    0.337319 0.677897 0.769918 0.214549
H123  H     H_    0.255239 0.682430 0.767819 0.243612
H124  H     H_    0.292454 0.608927 0.773549 0.218262
N28   N     N_2   0.314675 0.291621 0.872400 -0.423011
H125  H     H_    0.292886 0.326997 0.893059 0.248620
C180  C     C_3   0.310126 0.292202 0.810905 -0.647893
H126  H     H_    0.270268 0.264221 0.797884 0.243143
H127  H     H_    0.351984 0.273768 0.790113 0.226145
H128  H     H_    0.303219 0.339673 0.795607 0.198725
N29   N     N_2   0.707634 0.661928 0.153115 -0.416787
H129  H     H_    0.721059 0.704524 0.139129 0.245233
C181  C     C_3   0.706324 0.655196 0.214425 -0.666934
H130  H     H_    0.663488 0.675517 0.231313 0.214297
H131  H     H_    0.745594 0.679608 0.233590 0.244144
H132  H     H_    0.707833 0.606349 0.227311 0.218572
N30   N     N_2   0.682838 0.294769 0.129364 -0.419810
H133  H     H_    0.722826 0.285927 0.107520 0.243044
C182  C     C_3   0.688060 0.292407 0.190701 -0.652108
H134  H     H_    0.708854 0.335582 0.205965 0.212529
H135  H     H_    0.718117 0.253940 0.203261 0.239893
H136  H     H_    0.642617 0.286940 0.211526 0.222975
N31   N     N_2   0.290022 0.335102 0.150373 -0.416334
H137  H     H_    0.276203 0.293067 0.135481 0.246431
C183  C     C_3   0.290220 0.340048 0.211826 -0.667867
H138  H     H_    0.332686 0.319103 0.228444 0.215333
H139  H     H_    0.250518 0.315193 0.230232 0.244502
H140  H     H_    0.288647 0.388511 0.225850 0.218120
N32   N     N_2   0.319501 0.705527 0.134541 -0.418446
H141  H     H_    0.278843 0.716159 0.114964 0.244749
C184  C     C_3   0.316978 0.706677 0.196122 -0.653239
H142  H     H_    0.297552 0.662898 0.211730 0.213490
H143  H     H_    0.286950 0.744393 0.210797 0.238926
H144  H     H_    0.363178 0.712542 0.214854 0.219380
N33   N     N_2   0.133209 0.903929 0.413104 -0.390063
H145  H     H_    0.124932 0.863049 0.433555 0.232617
C185  C     C_3   0.099635 0.912122 0.360263 -0.541592
H146  H     H_    0.055246 0.934470 0.368318 0.225997
H147  H     H_    0.090600 0.867176 0.340112 0.208387
H148  H     H_    0.124588 0.942269 0.329970 0.195636
N34   N     N_2   0.094273 0.132239 0.411682 -0.389535
H149  H     H_    0.138647 0.125899 0.424982 0.235496
C186  C     C_3   0.081416 0.099452 0.359034 -0.541663
H150  H     H_    0.060310 0.054649 0.368097 0.229221
H151  H     H_    0.124416 0.090776 0.335043 0.203947
H152  H     H_    0.048840 0.124781 0.331601 0.191067
N35   N     N_2   0.871349 0.103273 0.427078 -0.387964
H153  H     H_    0.883245 0.141924 0.449452 0.233447
C187  C     C_3   0.899737 0.099780 0.370795 -0.529079
H154  H     H_    0.938702 0.067694 0.370929 0.225667
H155  H     H_    0.916887 0.145460 0.357574 0.203921
H156  H     H_    0.867709 0.082278 0.338076 0.191533
N36   N     N_2   0.902046 0.868531 0.419239 -0.388153
H157  H     H_    0.861528 0.877063 0.440373 0.232184
C188  C     C_3   0.908460 0.900933 0.365203 -0.530311
H158  H     H_    0.934777 0.943558 0.370428 0.225533
H159  H     H_    0.862752 0.912904 0.348153 0.205297
H160  H     H_    0.934265 0.873784 0.333208 0.193532
N37   N     N_2   0.139651 0.112839 0.559613 -0.395632
H161  H     H_    0.126966 0.107174 0.518123 0.237436
C189  C     C_3   0.141463 0.177339 0.574280 -0.634896
H162  H     H_    0.127788 0.205662 0.537308 0.200386
H163  H     H_    0.188065 0.192464 0.586604 0.218740
H164  H     H_    0.108751 0.186362 0.609494 0.255867
N38   N     N_2   0.098055 0.868642 0.580807 -0.389683
H165  H     H_    0.138253 0.877336 0.559150 0.230447
C190  C     C_3   0.091943 0.901192 0.634741 -0.531876
H166  H     H_    0.065201 0.943522 0.629567 0.231835
H167  H     H_    0.137739 0.913647 0.651347 0.205018
H168  H     H_    0.066613 0.873949 0.667069 0.194411
N39   N     N_2   0.870101 0.896603 0.572113 -0.397085
H169  H     H_    0.883173 0.859825 0.547624 0.222621
C191  C     C_3   0.898190 0.898544 0.628258 -0.567480
H170  H     H_    0.936079 0.932009 0.629014 0.237101
H171  H     H_    0.917012 0.853007 0.639422 0.193282
H172  H     H_    0.865495 0.913258 0.661896 0.199968
N40   N     N_2   0.901992 0.131701 0.581547 -0.393012
H173  H     H_    0.861780 0.123725 0.560119 0.230039
C192  C     C_3   0.907530 0.098537 0.635198 -0.515560
H174  H     H_    0.933726 0.055933 0.629524 0.230673
H175  H     H_    0.861527 0.086587 0.652126 0.201391
H176  H     H_    0.933186 0.125082 0.667490 0.197316
N41   N     N_2   0.631670 0.402139 0.918731 -0.388963
H177  H     H_    0.622810 0.361751 0.939810 0.232247
C193  C     C_3   0.599533 0.408618 0.864792 -0.529294
H178  H     H_    0.556957 0.435017 0.870238 0.227173
H179  H     H_    0.587439 0.362980 0.847563 0.205521
H180  H     H_    0.626987 0.434336 0.832865 0.192877
N42   N     N_2   0.603612 0.629663 0.927723 -0.396755
H181  H     H_    0.640380 0.616891 0.952185 0.222506
C194  C     C_3   0.601861 0.601124 0.871660 -0.568361
H182  H     H_    0.568385 0.563254 0.871052 0.236415
H183  H     H_    0.647493 0.582266 0.860461 0.193382
H184  H     H_    0.587188 0.633480 0.837958 0.200010
N43   N     N_2   0.369605 0.598680 0.919517 -0.388582
H185  H     H_    0.378616 0.638940 0.940592 0.232295
C195  C     C_3   0.401930 0.592256 0.865324 -0.527354
H186  H     H_    0.444066 0.565138 0.870300 0.226919
H187  H     H_    0.414792 0.637879 0.848332 0.205089
H188  H     H_    0.374278 0.567276 0.833374 0.192324
N44   N     N_2   0.396707 0.370377 0.927962 -0.396623
H189  H     H_    0.359544 0.383446 0.952137 0.222879
C196  C     C_3   0.399466 0.398531 0.871700 -0.567555
H190  H     H_    0.432788 0.436546 0.871030 0.236147
H191  H     H_    0.354005 0.417178 0.860070 0.192805
H192  H     H_    0.414879 0.365960 0.838356 0.200492
N45   N     N_2   0.630938 0.598200 0.080909 -0.388294
H193  H     H_    0.622444 0.638716 0.060040 0.232452
C197  C     C_3   0.598300 0.591650 0.134944 -0.529061
H194  H     H_    0.555854 0.565021 0.129662 0.226859
H195  H     H_    0.585922 0.637254 0.152146 0.204571
H196  H     H_    0.625501 0.566119 0.166853 0.192574
N46   N     N_2   0.602845 0.370819 0.073012 -0.388306
H197  H     H_    0.641593 0.382886 0.050497 0.234027
C198  C     C_3   0.599060 0.398880 0.129257 -0.527956
H198  H     H_    0.567412 0.438199 0.129007 0.225673
H199  H     H_    0.644833 0.415417 0.142598 0.204683
H200  H     H_    0.580840 0.366853 0.161929 0.191320
N47   N     N_2   0.368082 0.401415 0.080358 -0.388915
H201  H     H_    0.377138 0.361189 0.059187 0.232863
C199  C     C_3   0.399626 0.407300 0.134641 -0.531809
H202  H     H_    0.442101 0.434129 0.129808 0.226632
H203  H     H_    0.411839 0.361491 0.151416 0.205574
H204  H     H_    0.371665 0.432188 0.166685 0.192663
N48   N     N_2   0.397482 0.629321 0.074832 -0.388597
H205  H     H_    0.358577 0.617699 0.052775 0.234070
C200  C     C_3   0.401623 0.600450 0.130690 -0.529845
H206  H     H_    0.432354 0.560451 0.129285 0.225767
H207  H     H_    0.355751 0.584715 0.145043 0.204782
H208  H     H_    0.421180 0.631653 0.163128 0.191633

loop_
_geom_bond_atom_site_label_1
_geom_bond_atom_site_label_2
_ccdc_geom_bond_type
C117  N29   S    
N34   H149  S    
C157  H35   S    
C174  H102  S    
C5    C37   S    
C183  H139  S    
C175  H107  S    
N39   H169  S    
C30   C45   S    
C197  H194  S    
C191  H170  S    
C179  H124  S    
C117  C133  A    
C6    O16   A    
N19   H89   S    
C50   O18   A    
C165  H67   S    
Cu4   O20   S    
C170  H86   S    
C113  N25   S    
C114  N26   S    
C135  C151  A    
C16   C144  A    
C12   C36   A    
C80   C96   A    
N29   C181  S    
C20   C40   A    
C199  H203  S    
C130  C146  A    
N8    H45   S    
C86   H14   S    
C160  H48   S    
C62   C70   T    
C4    O6    A    
N43   C195  S    
C184  H143  S    
C82   H10   S    
N46   C198  S    
C27   C143  A    
C121  N33   S    
C94   N4    S    
C129  C145  A    
N9    C161  S    
Cu8   O16   S    
C176  H112  S    
C31   C147  A    
C2    C34   S    
C177  H115  S    
Cu9   O35   S    
Cu10  O37   S    
Cu5   O15   S    
C82   C98   A    
C108  C124  A    
C136  C152  A    
C185  H148  S    
Cu11  O41   S    
C129  N41   S    
C130  N42   S    
C167  H75   S    
N40   H173  S    
C84   C100  A    
C91   C107  A    
Cu5   O25   S    
C122  N34   S    
C1    O1    A    
C188  H160  S    
Cu1   O7    S    
N6    C158  S    
C106  N18   S    
N13   H65   S    
C16   C80   A    
C190  H168  S    
C189  H163  S    
C13   C33   A    
N1    H17   S    
C107  N19   S    
C55   O29   A    
C41   O33   A    
C136  N48   S    
C165  H66   S    
C123  N35   S    
N38   C190  S    
C180  H127  S    
N44   C196  S    
C127  C143  A    
C172  H96   S    
C128  C144  A    
C95   N3    S    
C87   C103  A    
C63   C71   T    
C174  H104  S    
N45   C197  S    
C178  H118  S    
C32   C47   S    
C80   H8    S    
C179  H122  S    
N42   H181  S    
C158  H39   S    
C170  H88   S    
C181  H131  S    
C47   O43   A    
N30   C182  S    
C44   O36   A    
C42   O38   A    
C3    O7    A    
C120  N32   S    
C177  H114  S    
Cu7   O27   S    
C128  N40   S    
C1    O5    A    
C180  H126  S    
C46   O42   A    
C74   C90   A    
C11   C35   A    
C18   C38   A    
C5    O9    A    
C194  H183  S    
C182  H134  S    
C99   C115  A    
C56   C64   S    
C135  N47   S    
C154  H22   S    
C18   C82   A    
C76   H4    S    
C153  H20   S    
C161  H51   S    
N37   H161  S    
C98   C114  A    
C29   C149  A    
C195  H188  S    
C32   C150  A    
C162  H55   S    
C168  H78   S    
C7    C39   S    
C10   C138  A    
N3    C155  S    
N31   H137  S    
C91   N7    S    
C187  H155  S    
N4    C156  S    
C14   C142  A    
N21   H97   S    
N30   H133  S    
C131  N43   S    
C173  H98   S    
C44   O40   A    
C192  H176  S    
C173  H100  S    
N12   C164  S    
C49   O17   A    
C186  H150  S    
C191  H171  S    
C156  H30   S    
C163  H59   S    
C78   C94   A    
Cu6   O10   S    
C104  N10   S    
C14   C36   A    
C158  H38   S    
C48   O48   A    
C159  H44   S    
Cu3   O3    S    
C103  N11   S    
C181  H130  S    
C123  C139  A    
C78   H6    S    
C49   C57   S    
N3    H25   S    
C45   O47   A    
C121  C137  A    
N17   C169  S    
C52   C60   S    
C59   C67   T    
C53   C61   S    
C92   C108  A    
C15   C79   A    
C125  C141  A    
C31   C46   S    
C55   C63   S    
C178  H120  S    
C20   C148  A    
C131  C147  A    
Cu12  O45   S    
C21   C149  A    
C118  C134  A    
C75   C91   A    
C155  H28   S    
C198  H198  S    
C164  H63   S    
C19   C83   A    
C105  N17   S    
C88   C104  A    
N11   H57   S    
C170  H87   S    
C2    O8    A    
C110  N22   S    
C166  H71   S    
C180  H128  S    
Cu10  O40   S    
N47   C199  S    
C73   H1    S    
Cu3   O5    S    
C182  H136  S    
C169  H83   S    
C125  N37   S    
C48   O44   A    
C54   O26   A    
C27   C139  A    
C200  H207  S    
C81   H9    S    
C25   C137  A    
Cu8   O28   S    
N7    C159  S    
C30   C152  A    
C195  H186  S    
C116  C132  A    
C3    C35   S    
C175  H106  S    
C168  H80   S    
C106  C122  A    
N43   H185  S    
C109  N21   S    
C196  H191  S    
C110  C126  A    
C10   C34   A    
C15   C143  A    
N22   C174  S    
Cu5   O31   S    
C54   O28   A    
C20   C84   A    
C175  H108  S    
C172  H95   S    
N48   H205  S    
C86   C102  A    
C92   N6    S    
Cu3   O19   S    
C49   O19   A    
C186  H152  S    
N28   C180  S    
N22   H101  S    
C167  H76   S    
C193  H179  S    
C111  N23   S    
C126  N38   S    
C179  H123  S    
N41   H177  S    
C158  H40   S    
C159  H42   S    
C65   C72   S    
C8    C40   S    
C67   C70   S    
C45   O41   A    
N20   C172  S    
C119  N31   S    
C11   C75   A    
N29   H129  S    
C27   C42   S    
C77   H5    S    
C160  H47   S    
C96   N2    S    
Cu12  O47   S    
C52   O22   A    
N38   H165  S    
C171  H92   S    
C97   N13   S    
C124  N36   S    
Cu5   Cu7   S    
C154  H24   S    
C89   C105  A    
N44   H189  S    
C188  H159  S    
Cu1   O23   S    
C6    C38   S    
Cu3   O21   S    
C3    O3    A    
N6    H37   S    
C93   C109  A    
C176  H111  S    
Cu6   Cu8   S    
Cu9   O34   S    
Cu10  O38   S    
C114  C130  A    
C90   N8    S    
C100  C116  A    
C107  C123  A    
N16   C168  S    
Cu9   Cu10  S    
Cu4   O4    S    
N26   H117  S    
C185  H147  S    
Cu11  O44   S    
N23   C175  S    
Cu6   O14   S    
C101  N9    S    
N25   C177  S    
C29   C145  A    
C177  H116  S    
Cu2   O22   S    
C61   C69   T    
C155  H26   S    
Cu7   O13   S    
C115  N27   S    
C79   H7    S    
C190  H167  S    
C11   C139  A    
C23   C151  A    
C24   C152  A    
N19   C171  S    
C100  N14   S    
C9    C137  A    
Cu11  Cu12  S    
C68   C69   S    
N35   C187  S    
N2    H21   S    
C12   C140  A    
C8    O14   A    
C13   C141  A    
Cu1   Cu3   S    
Cu2   Cu4   S    
Cu4   O8    S    
C157  H36   S    
C167  H74   S    
C174  H103  S    
C83   C99   A    
N45   H193  S    
C183  H140  S    
C9    C33   A    
N39   C191  S    
C7    O11   A    
C41   O39   A    
C51   O23   A    
C88   H16   S    
C165  H68   S    
N13   C165  S    
C21   C85   A    
C134  N46   S    
C189  H162  S    
C50   C58   S    
Cu7   O11   S    
C99   N15   S    
Cu8   O12   S    
N12   H61   S    
C199  H204  S    
C54   C62   S    
C94   C110  A    
C119  C135  A    
N14   H69   S    
C120  C136  A    
Cu6   O26   S    
N31   C183  S    
C17   C145  A    
N36   H157  S    
C56   O30   A    
Cu7   O29   S    
C169  H84   S    
N34   C186  S    
C171  H90   S    
C47   O45   A    
N24   C176  S    
C24   C88   A    
C122  C138  A    
C118  N30   S    
C195  H187  S    
Cu9   O36   S    
Cu1   O1    S    
C12   C76   A    
C108  N20   S    
C7    O15   A    
C74   H2    S    
C5    O13   A    
N27   H121  S    
Cu11  O42   S    
N27   C179  S    
C124  C140  A    
C25   C141  A    
C57   C65   T    
C26   C138  A    
C173  H99   S    
C32   C148  A    
C162  H56   S    
C28   C43   S    
C112  N24   S    
C101  C117  A    
N36   C188  S    
C189  H164  S    
C73   C89   A    
C169  H82   S    
N1    C153  S    
N18   H85   S    
C159  H43   S    
N15   H73   S    
N5    H33   S    
C133  N45   S    
Cu2   O18   S    
C77   C93   A    
C126  C142  A    
C17   C81   A    
C22   C86   A    
N33   H145  S    
N17   H81   S    
C8    O12   A    
C89   N5    S    
C19   C147  A    
C112  C128  A    
N15   C167  S    
C90   C106  A    
N16   H77   S    
C21   C37   A    
C22   C150  A    
C60   C68   T    
C85   H13   S    
C183  H138  S    
C178  H119  S    
Cu12  O46   S    
C52   O24   A    
C84   H12   S    
C51   O21   A    
C104  C120  A    
Cu6   O30   S    
C181  H132  S    
N20   H93   S    
N48   C200  S    
C83   H11   S    
N10   C162  S    
C164  H62   S    
N24   H109  S    
C28   C140  A    
C193  H178  S    
C43   O35   A    
C184  H142  S    
C192  H174  S    
C1    C33   S    
N28   H125  S    
C115  C131  A    
C166  H70   S    
C79   C95   A    
C96   C112  A    
N47   H201  S    
C162  H54   S    
C113  C129  A    
C56   O32   A    
C194  H184  S    
C182  H135  S    
N26   C178  S    
Cu1   O17   S    
N46   H197  S    
C134  C150  A    
C132  N44   S    
Cu2   O6    S    
C200  H206  S    
C2    O2    A    
C161  H52   S    
N37   C189  S    
C192  H175  S    
C58   C66   T    
C66   C71   S    
C155  H27   S    
C24   C38   A    
C197  H196  S    
C196  H190  S    
C197  H195  S    
C102  C118  A    
C187  H156  S    
C16   C34   A    
C163  H58   S    
C14   C78   A    
N33   C185  S    
C23   C87   A    
N2    C154  S    
C43   O37   A    
C9    C73   A    
C26   C144  A    
C25   C44   S    
C15   C35   A    
C30   C146  A    
C186  H151  S    
C154  H23   S    
Cu8   O32   S    
C191  H172  S    
C13   C77   A    
C156  H31   S    
C199  H202  S    
C29   C48   S    
C132  C148  A    
C163  H60   S    
C133  C149  A    
C4    C36   S    
C127  N39   S    
C194  H182  S    
C153  H19   S    
C193  H180  S    
C185  H146  S    
N5    C157  S    
C50   O20   A    
C53   O27   A    
C168  H79   S    
C87   H15   S    
C98   N16   S    
N14   C166  S    
C42   O34   A    
C53   O25   A    
N32   H141  S    
C22   C40   A    
C161  H50   S    
C6    O10   A    
N32   C184  S    
C31   C151  A    
C46   O46   A    
C105  C121  A    
Cu12  O48   S    
C116  N28   S    
C17   C37   A    
C4    O4    A    
N18   C170  S    
C19   C39   A    
C76   C92   A    
C109  C125  A    
C171  H91   S    
C198  H199  S    
C111  C127  A    
C164  H64   S    
C198  H200  S    
C51   C59   S    
C97   C113  A    
C157  H34   S    
Cu4   O24   S    
N10   H53   S    
C184  H144  S    
C85   C101  A    
C176  H110  S    
N7    H41   S    
C166  H72   S    
C93   N1    S    
N8    C160  S    
Cu9   O33   S    
Cu10  O39   S    
C103  C119  A    
C18   C146  A    
C28   C142  A    
N4    H29   S    
C102  N12   S    
Cu11  O43   S    
N23   H105  S    
N42   C194  S    
C200  H208  S    
N41   C193  S    
C95   C111  A    
N25   H113  S    
C10   C74   A    
C188  H158  S    
C81   C97   A    
C23   C39   A    
Cu2   O2    S    
N11   C163  S    
C64   C72   T    
C190  H166  S    
C196  H192  S    
Cu5   O9    S    
C156  H32   S    
C55   O31   A    
C187  H154  S    
N21   C173  S    
N35   H153  S    
C153  H18   S    
N40   C192  S    
C75   H3    S    
C172  H94   S    
N9    H49   S    
C26   C41   S    
C160  H46   S    
