data_mof_unit_23866.cif
_audit_creation_date              2012-12-10T17:02:12-0500
_audit_creation_method            fapswitch 2.2
_symmetry_space_group_name_H-M    P1
_symmetry_Int_Tables_number       1
_space_group_crystal_system       triclinic
_cell_length_a                    10.688996
_cell_length_b                    10.725189
_cell_length_c                    10.02518
_cell_angle_alpha                 90.627059
_cell_angle_beta                  90.995494
_cell_angle_gamma                 90.47756
_cell_volume                      1149.0176343

loop_
_atom_site_label
_atom_site_type_symbol
_atom_type_description
_atom_site_fract_x
_atom_site_fract_y
_atom_site_fract_z
_atom_type_partial_charge
C1    C     C_R   0.495225 0.262722 0.499270 0.933816
C2    C     C_2   0.477386 0.131531 0.498543 -0.340314
C3    C     C_2   0.510596 0.599990 0.929330 0.027460
C4    C     C_R   0.261337 0.515430 0.499517 0.915897
C5    C     C_2   0.483150 0.597805 0.075629 -0.184863
C6    C     C_R   0.500650 0.737417 0.500205 0.950814
C7    C     C_R   0.740677 0.492585 0.501799 0.870178
C8    C     C_R   0.121251 0.611691 0.737100 0.565804
C9    C     C_R   0.069715 0.588970 0.861710 -0.215154
C10   C     C_R   0.962076 0.516176 0.871082 -0.272585
C11   C     C_R   0.898851 0.475874 0.755381 -0.193355
C12   C     C_R   0.065960 0.554515 0.620746 -0.026636
C13   C     C_R   0.944411 0.506431 0.627905 0.048236
C14   C     C_R   0.556495 0.720874 0.879714 0.221754
C15   C     C_R   0.484750 0.829127 0.896040 -0.151722
C16   C     C_R   0.535633 0.946196 0.867461 -0.194424
C17   C     C_R   0.658433 0.956160 0.822711 -0.136089
C18   C     C_R   0.729922 0.848893 0.805035 -0.165990
C19   C     C_R   0.679438 0.731893 0.834387 -0.112053
C20   C     C_3   0.192243 0.801466 0.670800 -0.365165
C21   C     C_R   0.128858 0.536346 0.499250 -0.124241
C22   C     C_R   0.062729 0.511396 0.380698 -0.225676
C23   C     C_R   0.936054 0.493366 0.383764 -0.207680
C24   C     C_R   0.875556 0.490243 0.506285 -0.099188
C25   C     C_2   0.479247 0.931389 0.387667 -0.170927
C26   C     C_2   0.505967 0.869424 0.499410 -0.341735
C27   C     C_2   0.486906 0.065611 0.385735 -0.156720
H1    H     H_    0.108983 0.502044 0.285811 0.172907
H2    H     H_    0.455552 0.883436 0.294443 0.166912
H3    H     H_    0.536213 0.914522 0.591047 0.174056
H4    H     H_    0.502181 0.109852 0.290310 0.171203
H5    H     H_    0.390347 0.823002 0.933125 0.141523
H6    H     H_    0.480107 0.029221 0.880583 0.135093
H7    H     H_    0.697719 0.046811 0.800673 0.135020
H8    H     H_    0.825054 0.856479 0.770513 0.133844
H9    H     H_    0.736968 0.650402 0.825590 0.150051
H10   H     H_    0.111326 0.845927 0.720585 0.153959
H11   H     H_    0.171736 0.787238 0.562616 0.162735
H12   H     H_    0.453225 0.090247 0.593033 0.146658
H13   H     H_    0.272674 0.867222 0.679919 0.200680
H14   H     H_    0.464726 0.422426 0.894680 0.154029
H15   H     H_    0.459459 0.684493 0.125441 0.163016
H16   H     H_    0.535897 0.423299 0.101051 0.157808
H17   H     H_    0.114248 0.626719 0.951385 0.153801
H18   H     H_    0.925123 0.494339 0.968027 0.162103
H19   H     H_    0.816739 0.418188 0.768023 0.175410
H20   H     H_    0.886148 0.479100 0.289744 0.167343
N1    N     N_2   0.501340 0.501330 0.852150 -0.217498
N2    N     N_2   0.501380 0.501360 0.147810 -0.200051
O1    O     O_R   0.499980 0.319060 0.613040 -0.634114
O2    O     O_R   0.500020 0.319100 0.386900 -0.616291
O3    O     O_R   0.316750 0.499980 0.613090 -0.570933
O4    O     O_R   0.316790 0.500020 0.386950 -0.628268
O5    O     O_R   0.499980 0.680900 0.613100 -0.579044
O6    O     O_R   0.500020 0.680940 0.386960 -0.624712
O7    O     O_R   0.683210 0.499980 0.613050 -0.639995
O8    O     O_R   0.683250 0.500020 0.386910 -0.612805
O9    O     O_3   0.225685 0.688669 0.732398 -0.597395
Zn1   Zn    Zn3+2 0.499970 0.499970 0.650990 0.959869
Zn2   Zn    Zn3+2 0.500030 0.500030 0.349010 0.933643

loop_
_geom_bond_atom_site_label_1
_geom_bond_atom_site_label_2
_ccdc_geom_bond_type
C5    H15   S    
C2    C27   D    
C20   H10   S    
O3    Zn1   S    
C16   H6    S    
C25   C27   S    
C20   H11   S    
C1    O1    A    
C1    C2    S    
O5    Zn1   S    
C14   C15   A    
O7    Zn1   S    
C6    O6    A    
C8    C12   A    
C10   C11   A    
C10   H18   S    
C17   C18   A    
O8    Zn2   S    
N2    Zn2   S    
C15   H5    S    
C22   H1    S    
O6    Zn2   S    
C4    C21   S    
C1    O2    A    
C5    N2    D    
C6    C26   S    
C3    C14   S    
C7    O7    A    
C6    O5    A    
C20   H13   S    
O1    Zn1   S    
C12   C21   A    
C18   H8    S    
O4    Zn2   S    
C4    O3    A    
C26   H3    S    
C19   H9    S    
C25   H2    S    
C4    O4    A    
C7    O8    A    
C23   H20   S    
C17   H7    S    
C2    H12   S    
C23   C24   A    
C27   H4    S    
C7    C24   S    
C16   C17   A    
C3    C5    S    
C3    N1    D    
C11   C13   A    
C12   C13   A    
N1    Zn1   S    
C18   C19   A    
C9    C10   A    
C22   C23   A    
H16   N2    S    
C11   H19   S    
O2    Zn2   S    
C8    O9    S    
C25   C26   D    
C21   C22   A    
C20   O9    S    
C14   C19   A    
H14   N1    S    
C15   C16   A    
C13   C24   A    
C8    C9    A    
C9    H17   S    
