data_mof_unit_57735.cif
_audit_creation_date              2012-12-10T16:56:36-0500
_audit_creation_method            fapswitch 2.2
_symmetry_space_group_name_H-M    P1
_symmetry_Int_Tables_number       1
_space_group_crystal_system       triclinic
_cell_length_a                    7.824022
_cell_length_b                    8.592312
_cell_length_c                    15.713625
_cell_angle_alpha                 90.786324
_cell_angle_beta                  87.770195
_cell_angle_gamma                 92.949993
_cell_volume                      1054.09963978

loop_
_atom_site_label
_atom_site_type_symbol
_atom_type_description
_atom_site_fract_x
_atom_site_fract_y
_atom_site_fract_z
_atom_type_partial_charge
C1    C     C_R   0.544591 0.793924 0.499339 0.909354
C2    C     C_3   0.445221 0.358723 0.026223 0.014769
C3    C     C_1   0.516979 0.499952 0.749875 -0.085713
C4    C     C_1   0.483002 0.499966 0.250114 -0.087775
C5    C     C_3   0.345818 0.461760 0.967645 -0.077179
C6    C     C_3   0.654270 0.538009 0.032331 -0.079800
C7    C     C_3   0.514889 0.499359 0.915788 0.007509
C8    C     C_3   0.485097 0.500595 0.084177 0.029564
C9    C     C_1   0.522118 0.499718 0.824931 0.014436
C10   C     C_1   0.477838 0.500163 0.175053 0.032351
C11   C     C_2   0.819262 0.583469 0.073536 0.941493
C12   C     C_R   0.455410 0.206076 0.500669 0.906870
C13   C     C_2   0.178548 0.421266 0.927433 1.015781
C14   C     C_2   0.692972 0.008992 0.576345 0.977913
C15   C     C_2   0.307009 0.990974 0.423716 0.976725
C16   C     C_2   0.007005 0.447624 0.390965 1.141131
C17   C     C_2   0.993149 0.552115 0.609076 1.142452
C18   C     C_R   0.504993 0.500191 0.661553 0.910832
C19   C     C_R   0.495004 0.499799 0.338443 0.910899
C20   C     C_2   0.562918 0.955890 0.513564 -0.287348
C21   C     C_2   0.437075 0.044107 0.486478 -0.285933
C22   C     C_3   0.388002 0.604037 0.025536 0.095900
C23   C     C_3   0.611983 0.395645 0.974455 0.045237
C24   C     C_3   0.554904 0.641033 0.973818 0.020707
H1    H     H_    0.628068 0.867608 0.996479 0.214861
H2    H     H_    0.989540 0.492584 0.855907 0.358983
H3    H     H_    0.939575 0.014540 0.609352 0.380265
H4    H     H_    0.060276 0.984882 0.390896 0.378680
H5    H     H_    0.078809 0.309755 0.292608 0.331563
H6    H     H_    0.922663 0.689765 0.707762 0.329976
H7    H     H_    0.733400 0.785073 0.913891 0.211016
H8    H     H_    0.372512 0.131676 0.004232 0.210230
H9    H     H_    0.269152 0.214096 0.087673 0.232391
H10   H     H_    0.228168 0.775495 0.001471 0.224860
H11   H     H_    0.334404 0.801329 0.091730 0.204066
H12   H     H_    0.765844 0.219523 0.997927 0.241900
H13   H     H_    0.664705 0.200780 0.905929 0.204679
H14   H     H_    0.950675 0.742331 0.144447 0.369895
N1    N     N_2   0.950320 0.457950 0.477300 -0.191460
N2    N     N_2   0.049680 0.542050 0.522700 -0.191440
N3    N     N_3   0.612176 0.794981 0.943193 -0.436762
N4    N     N_3   0.389438 0.204672 0.057295 -0.438129
N5    N     N_3   0.267238 0.718201 0.055059 -0.407588
N6    N     N_3   0.731533 0.280673 0.944693 -0.376704
O1    O     O_R   0.389250 0.738570 0.505570 -0.614089
O2    O     O_R   0.836067 0.726156 0.116849 -0.798900
O3    O     O_2   0.111409 0.290486 0.935213 -0.617741
O4    O     O_R   0.101791 0.533150 0.880084 -0.797382
O5    O     O_2   0.650429 0.085271 0.639282 -0.616792
O6    O     O_R   0.863119 0.969958 0.563408 -0.702059
O7    O     O_2   0.349646 0.915077 0.360655 -0.616423
O8    O     O_R   0.136728 0.029459 0.436843 -0.702100
O9    O     O_2   0.017871 0.564632 0.347149 -0.611344
O10   O     O_R   0.041295 0.302648 0.354991 -0.792368
O11   O     O_2   0.981585 0.434843 0.652673 -0.614047
O12   O     O_R   0.610750 0.261430 0.494430 -0.614192
O13   O     O_R   0.960027 0.697094 0.645366 -0.789374
O14   O     O_R   0.678390 0.711630 0.491020 -0.587436
O15   O     O_R   0.321610 0.288370 0.508980 -0.587804
O16   O     O_R   0.355460 0.513480 0.630490 -0.621041
O17   O     O_R   0.644540 0.486520 0.369510 -0.624935
O18   O     O_R   0.644600 0.486540 0.615950 -0.614526
O19   O     O_R   0.355400 0.513460 0.384050 -0.612377
O20   O     O_2   0.935431 0.493837 0.071818 -0.608303
Zn1   Zn    Zn3+2 0.306940 0.517990 0.509710 1.051830
Zn2   Zn    Zn3+2 0.693060 0.482010 0.490290 1.049948

loop_
_geom_bond_atom_site_label_1
_geom_bond_atom_site_label_2
_ccdc_geom_bond_type
C13   O4    S    
C8    C22   S    
O19   Zn1   S    
C3    C9    T    
C15   O7    D    
H11   N5    S    
C17   O11   D    
C5    C13   S    
C22   N5    S    
H3    O6    S    
H2    O4    S    
C6    C24   S    
C19   O19   A    
C2    C23   S    
H13   N6    S    
C5    C7    S    
C5    C22   S    
C12   O12   A    
C15   O8    S    
O15   Zn1   S    
C24   N3    S    
H4    O8    S    
C1    O1    A    
C14   O6    S    
C12   C21   S    
C19   O17   A    
O12   Zn2   S    
H9    N4    S    
C6    C8    S    
C22   C24   S    
C18   O16   A    
C12   O15   A    
C2    N4    S    
O16   Zn1   S    
C16   O10   S    
N2    Zn1   S    
C6    C11   S    
O1    Zn1   S    
N1    Zn2   S    
C7    C23   S    
H12   N6    S    
C2    C5    S    
H14   O2    S    
H5    O10   S    
C23   N6    S    
C16   N1    S    
C4    C10   T    
C7    C24   S    
C14   O5    D    
H6    O13   S    
C14   C20   S    
C15   C21   S    
C20   C21   D    
C3    C18   S    
C13   O3    D    
C11   O20   D    
H1    N3    S    
N1    N2    D    
C7    C9    S    
C6    C23   S    
O18   Zn2   S    
C16   O9    D    
C18   O18   A    
C11   O2    S    
H8    N4    S    
H7    N3    S    
C1    O14   A    
C4    C19   S    
O17   Zn2   S    
O14   Zn2   S    
C8    C10   S    
C2    C8    S    
H10   N5    S    
C17   O13   S    
C1    C20   S    
C17   N2    S    
