data_mof_unit_58580.cif
_audit_creation_date              2012-12-10T17:46:29-0500
_audit_creation_method            fapswitch 2.2
_symmetry_space_group_name_H-M    P1
_symmetry_Int_Tables_number       1
_space_group_crystal_system       triclinic
_cell_length_a                    20.716592
_cell_length_b                    21.80107
_cell_length_c                    14.806804
_cell_angle_alpha                 90.084545
_cell_angle_beta                  129.69565
_cell_angle_gamma                 90.019426
_cell_volume                      5145.59591232

loop_
_atom_site_label
_atom_site_type_symbol
_atom_type_description
_atom_site_fract_x
_atom_site_fract_y
_atom_site_fract_z
_atom_type_partial_charge
C1    C     C_R   0.601202 0.912722 0.629374 0.807382
C2    C     C_R   0.400492 0.088645 0.373080 0.791267
C3    C     C_R   0.399848 0.911983 0.371786 0.811462
C4    C     C_R   0.599305 0.088755 0.626662 0.793565
C5    C     C_R   0.101059 0.412592 0.629175 0.803141
C6    C     C_R   0.900653 0.588639 0.373194 0.797178
C7    C     C_R   0.899139 0.412443 0.371064 0.807693
C8    C     C_R   0.101893 0.587436 0.629728 0.789975
C9    C     C_R   0.317533 0.787893 0.907671 -0.226573
C10   C     C_R   0.663819 0.229852 0.063996 -0.207744
C11   C     C_R   0.704423 0.798133 0.114034 -0.229811
C12   C     C_R   0.334610 0.228991 0.933880 -0.208905
C13   C     C_R   0.804512 0.293333 0.896139 -0.230869
C14   C     C_R   0.252718 0.684003 0.147369 -0.209179
C15   C     C_R   0.196735 0.293844 0.105185 -0.230305
C16   C     C_R   0.828366 0.724722 0.927416 -0.203586
C17   C     C_R   0.319666 0.979661 0.656983 -0.309935
C18   C     C_R   0.680893 0.981671 0.343513 -0.308889
C19   C     C_R   0.819273 0.479189 0.656293 -0.307866
C20   C     C_R   0.180618 0.480720 0.343105 -0.312262
C21   C     C_R   0.350278 0.990126 0.597634 0.108760
C22   C     C_R   0.649934 0.991319 0.402620 0.110360
C23   C     C_R   0.850135 0.490377 0.597318 0.100812
C24   C     C_R   0.149879 0.491089 0.402397 0.106716
C25   C     C_R   0.489304 0.000036 0.779443 0.120909
C26   C     C_R   0.510764 0.999441 0.220575 0.119699
C27   C     C_R   0.988833 0.498799 0.779207 0.138139
C28   C     C_R   0.010607 0.498627 0.220429 0.123076
C29   C     C_R   0.462309 0.983716 0.844507 -0.079891
C30   C     C_R   0.538245 0.983711 0.155881 -0.079293
C31   C     C_R   0.961718 0.481909 0.843871 -0.081549
C32   C     C_R   0.037896 0.482325 0.155593 -0.078566
C33   C     C_R   0.375124 0.975888 0.779770 0.141136
C34   C     C_R   0.625606 0.977325 0.220788 0.140633
C35   C     C_R   0.874571 0.474435 0.779021 0.140373
C36   C     C_R   0.125229 0.475958 0.220369 0.143377
C37   C     C_R   0.517449 0.977054 0.970994 0.084855
C38   C     C_R   0.483341 0.976490 0.029513 0.086252
C39   C     C_R   0.016864 0.475155 0.970424 0.088785
C40   C     C_R   0.982846 0.474772 0.029068 0.088484
C41   C     C_R   0.396818 0.963714 0.960186 -0.192424
C42   C     C_R   0.604356 0.965915 0.040585 -0.191870
C43   C     C_R   0.896231 0.462125 0.959557 -0.189968
C44   C     C_R   0.103767 0.464084 0.039921 -0.203343
C45   C     C_R   0.343990 0.963375 0.838098 -0.206585
C46   C     C_R   0.657125 0.965905 0.162650 -0.206599
C47   C     C_R   0.843390 0.461839 0.837321 -0.200877
C48   C     C_R   0.156624 0.464252 0.162073 -0.210517
C49   C     C_R   0.649063 0.145033 0.688097 -0.117134
C50   C     C_R   0.352661 0.855182 0.310463 -0.108125
C51   C     C_R   0.350488 0.144746 0.311196 -0.116757
C52   C     C_R   0.657461 0.861171 0.700620 -0.110991
C53   C     C_R   0.160256 0.639229 0.700184 -0.110601
C54   C     C_R   0.842635 0.360878 0.299658 -0.110528
C55   C     C_R   0.851333 0.644929 0.311868 -0.115716
C56   C     C_R   0.157637 0.361159 0.700675 -0.109198
C57   C     C_R   0.745064 0.226444 0.730406 -0.250548
C58   C     C_R   0.295617 0.755746 0.300754 -0.236072
C59   C     C_R   0.255289 0.226547 0.269746 -0.250129
C60   C     C_R   0.752364 0.779012 0.744439 -0.237773
C61   C     C_R   0.252650 0.722898 0.737133 -0.249507
C62   C     C_R   0.743366 0.281163 0.251377 -0.237012
C63   C     C_R   0.764711 0.731153 0.280108 -0.248499
C64   C     C_R   0.255936 0.281011 0.747757 -0.237221
C65   C     C_R   0.693639 0.177212 0.659660 0.000548
C66   C     C_R   0.331887 0.811466 0.358996 -0.017549
C67   C     C_R   0.306149 0.177118 0.339839 -0.000145
C68   C     C_R   0.693826 0.823199 0.666102 -0.010701
C69   C     C_R   0.198783 0.674653 0.665386 -0.000535
C70   C     C_R   0.804538 0.323660 0.332510 -0.008008
C71   C     C_R   0.814828 0.681064 0.348633 -0.000448
C72   C     C_R   0.195319 0.323775 0.667336 -0.008330
C73   C     C_R   0.650845 0.167438 0.778160 -0.287739
C74   C     C_R   0.336334 0.841718 0.205073 -0.271249
C75   C     C_R   0.348366 0.166861 0.220663 -0.286596
C76   C     C_R   0.674607 0.850026 0.807118 -0.268741
C77   C     C_R   0.179078 0.652863 0.806950 -0.300067
C78   C     C_R   0.826075 0.349519 0.193727 -0.267496
C79   C     C_R   0.842936 0.663787 0.214706 -0.291640
C80   C     C_R   0.174494 0.349962 0.806909 -0.267419
C81   C     C_R   0.699087 0.218573 0.846036 0.092289
C82   C     C_R   0.306085 0.784165 0.150897 0.075602
C83   C     C_R   0.300481 0.218131 0.153159 0.091931
C84   C     C_R   0.726733 0.801911 0.881026 0.079722
C85   C     C_R   0.235646 0.699514 0.881472 0.091629
C86   C     C_R   0.772213 0.302453 0.118074 0.080159
C87   C     C_R   0.798997 0.717001 0.151575 0.091361
C88   C     C_R   0.227884 0.302606 0.881963 0.080054
C89   C     C_R   0.749198 0.246493 0.823695 0.151099
C90   C     C_R   0.283839 0.741486 0.198962 0.137504
C91   C     C_R   0.251167 0.246513 0.176484 0.150432
C92   C     C_R   0.769232 0.768483 0.850925 0.139055
C93   C     C_R   0.269161 0.736675 0.842367 0.152512
C94   C     C_R   0.726340 0.271044 0.144538 0.138356
C95   C     C_R   0.756087 0.748971 0.182097 0.151885
C96   C     C_R   0.272949 0.270796 0.854512 0.138827
C97   C     C_R   0.702901 0.240059 0.940196 0.056347
C98   C     C_R   0.296921 0.767929 0.050049 0.070095
C99   C     C_R   0.296477 0.239532 0.058783 0.056794
C100  C     C_R   0.737665 0.785863 0.983441 0.072928
C101  C     C_R   0.256187 0.712020 0.991261 0.053865
C102  C     C_R   0.762675 0.285813 0.017099 0.072039
C103  C     C_R   0.793387 0.737373 0.055507 0.055312
C104  C     C_R   0.237604 0.285903 0.983081 0.071643
C105  C     C_R   0.329536 0.804284 0.008223 -0.232517
C106  C     C_R   0.650005 0.216532 0.961366 -0.190845
C107  C     C_R   0.693478 0.815297 0.014817 -0.228044
C108  C     C_R   0.348384 0.215407 0.036325 -0.193007
C109  C     C_R   0.813079 0.311503 0.992986 -0.227547
C110  C     C_R   0.239769 0.669335 0.045794 -0.194785
C111  C     C_R   0.188247 0.312160 0.008515 -0.227802
C112  C     C_R   0.842115 0.710907 0.029586 -0.201628
Cu1   Cu    Cu3+1 0.526640 0.000000 0.436960 0.972620
Cu2   Cu    Cu3+1 0.473360 0.000000 0.563040 0.972113
Cu3   Cu    Cu3+1 0.026640 0.500000 0.436960 0.973668
Cu4   Cu    Cu3+1 0.973360 0.500000 0.563040 0.975586
H1    H     H_    0.344179 0.816574 0.879045 0.141347
H2    H     H_    0.624813 0.208098 0.079887 0.149455
H3    H     H_    0.670252 0.822500 0.135673 0.142082
H4    H     H_    0.372909 0.206841 0.917094 0.149408
H5    H     H_    0.844060 0.314484 0.880681 0.141334
H6    H     H_    0.238832 0.649946 0.186160 0.149280
H7    H     H_    0.157932 0.315428 0.121586 0.141932
H8    H     H_    0.864680 0.701142 0.908573 0.152351
H9    H     H_    0.369006 0.950867 0.998823 0.151862
H10   H     H_    0.632710 0.954087 0.002345 0.152279
H11   H     H_    0.868289 0.449669 0.998190 0.151873
H12   H     H_    0.131921 0.452236 0.001344 0.154606
H13   H     H_    0.348424 0.877080 0.166926 0.190268
H14   H     H_    0.615787 0.142811 0.796453 0.196305
H15   H     H_    0.646911 0.880197 0.831218 0.190380
H16   H     H_    0.383050 0.141992 0.201965 0.195970
H17   H     H_    0.854719 0.379178 0.170446 0.191590
H18   H     H_    0.146291 0.628201 0.828960 0.200210
H19   H     H_    0.146308 0.379891 0.830668 0.189828
H20   H     H_    0.869479 0.635043 0.187449 0.197843
H21   H     H_    0.280306 0.750736 0.709179 0.140659
H22   H     H_    0.711201 0.254169 0.273488 0.140375
H23   H     H_    0.733762 0.757146 0.304944 0.139582
H24   H     H_    0.287615 0.253831 0.725036 0.140683
H25   H     H_    0.781957 0.249415 0.712205 0.139959
H26   H     H_    0.279930 0.722211 0.338079 0.140409
H27   H     H_    0.218851 0.249774 0.288514 0.140296
H28   H     H_    0.782533 0.751057 0.720207 0.141603
H29   H     H_    0.367527 0.844415 0.053844 0.137585
H30   H     H_    0.597001 0.187678 0.900067 0.175994
H31   H     H_    0.648931 0.851451 0.964200 0.134160
H32   H     H_    0.400588 0.185848 0.096417 0.177333
H33   H     H_    0.861801 0.344647 0.048786 0.133856
H34   H     H_    0.221265 0.622951 0.014632 0.185337
H35   H     H_    0.140477 0.345967 0.953942 0.135422
H36   H     H_    0.892426 0.679772 0.087609 0.186569
H37   H     H_    0.277807 0.954084 0.788897 0.142876
H38   H     H_    0.723557 0.957816 0.211963 0.143773
H39   H     H_    0.777133 0.452832 0.788025 0.144004
H40   H     H_    0.223059 0.456228 0.211329 0.142790
H41   H     H_    0.692569 0.991414 0.497542 0.132666
H42   H     H_    0.307571 0.989708 0.502716 0.132014
H43   H     H_    0.192661 0.491455 0.497323 0.131781
H44   H     H_    0.807478 0.490603 0.502399 0.132233
H45   H     H_    0.252899 0.972753 0.606687 0.132102
H46   H     H_    0.747840 0.975930 0.393950 0.131844
H47   H     H_    0.752429 0.472576 0.605725 0.132814
H48   H     H_    0.247532 0.474824 0.393458 0.131488
N1    N     N_R   0.433280 1.000000 0.657760 -0.213826
N2    N     N_R   0.566720 1.000000 0.342240 -0.214667
N3    N     N_R   0.933280 0.500000 0.657760 -0.213752
N4    N     N_R   0.066720 0.500000 0.342240 -0.213150
O1    O     O_R   0.600040 0.935040 0.546740 -0.586196
O2    O     O_R   0.399960 0.064960 0.453260 -0.581191
O3    O     O_R   0.399960 0.935040 0.453260 -0.587250
O4    O     O_R   0.600040 0.064960 0.546740 -0.581936
O5    O     O_R   0.100040 0.435040 0.546740 -0.586960
O6    O     O_R   0.899960 0.564960 0.453260 -0.578704
O7    O     O_R   0.899960 0.435040 0.453260 -0.587131
O8    O     O_R   0.100040 0.564960 0.546740 -0.579829
O9    O     O_R   0.555010 0.935070 0.653220 -0.542549
O10   O     O_R   0.444990 0.064930 0.346780 -0.567080
O11   O     O_R   0.444990 0.935070 0.346780 -0.539345
O12   O     O_R   0.555010 0.064930 0.653220 -0.566163
O13   O     O_R   0.055010 0.435070 0.653220 -0.546114
O14   O     O_R   0.944990 0.564930 0.346780 -0.563722
O15   O     O_R   0.944990 0.435070 0.346780 -0.542713
O16   O     O_R   0.055010 0.564930 0.653220 -0.559943
C113  C     C_R   0.351956 0.819775 0.473510 0.124621
C114  C     C_R   0.435160 0.814761 0.578025 -0.094460
C115  C     C_R   0.453612 0.820131 0.686488 -0.110241
C116  C     C_R   0.389170 0.829892 0.691180 -0.121038
C117  C     C_R   0.306067 0.834093 0.587349 -0.149857
C118  C     C_R   0.287344 0.828839 0.478720 -0.138143
H49   H     H_    0.485380 0.806309 0.575291 0.097121
H50   H     H_    0.517712 0.816286 0.766861 0.125317
H51   H     H_    0.403652 0.834188 0.775244 0.122150
H52   H     H_    0.256156 0.841715 0.591010 0.125312
H53   H     H_    0.222715 0.831816 0.398842 0.128712
C119  C     C_R   0.686283 0.163401 0.555347 0.135210
C120  C     C_R   0.757565 0.146792 0.568870 -0.155205
C121  C     C_R   0.751372 0.136746 0.470259 -0.141634
C122  C     C_R   0.674213 0.143415 0.357656 -0.121352
C123  C     C_R   0.603230 0.160502 0.343471 -0.132446
C124  C     C_R   0.609175 0.171005 0.441753 -0.093487
H54   H     H_    0.817801 0.141733 0.655671 0.127856
H55   H     H_    0.806383 0.123749 0.481120 0.132503
H56   H     H_    0.669419 0.135330 0.281403 0.138790
H57   H     H_    0.543721 0.165787 0.256300 0.133433
H58   H     H_    0.553861 0.184948 0.429532 0.108718
C125  C     C_R   0.669263 0.825743 0.547780 0.127821
C126  C     C_R   0.585619 0.814768 0.447402 -0.094479
C127  C     C_R   0.562665 0.816580 0.335832 -0.112288
C128  C     C_R   0.622999 0.828659 0.323709 -0.122717
C129  C     C_R   0.706537 0.838601 0.423265 -0.147888
C130  C     C_R   0.729781 0.836960 0.534978 -0.147133
H59   H     H_    0.538332 0.804989 0.455652 0.096661
H60   H     H_    0.498189 0.808486 0.258844 0.131567
H61   H     H_    0.605001 0.830411 0.237206 0.121855
H62   H     H_    0.753226 0.848261 0.413872 0.125053
H63   H     H_    0.794640 0.845006 0.611308 0.125821
C131  C     C_R   0.312957 0.163139 0.443566 0.135665
C132  C     C_R   0.241486 0.145790 0.429050 -0.154359
C133  C     C_R   0.247129 0.135360 0.527069 -0.141816
C134  C     C_R   0.323915 0.142412 0.640056 -0.121082
C135  C     C_R   0.395071 0.160254 0.655213 -0.132756
C136  C     C_R   0.389685 0.171112 0.557525 -0.094188
H64   H     H_    0.181539 0.140419 0.341933 0.127729
H65   H     H_    0.191980 0.121772 0.515449 0.132341
H66   H     H_    0.328286 0.134046 0.715853 0.138552
H67   H     H_    0.454280 0.165820 0.742684 0.133562
H68   H     H_    0.445136 0.185570 0.570483 0.108540
C137  C     C_R   0.830061 0.325210 0.451654 0.128734
C138  C     C_R   0.914437 0.315807 0.551224 -0.087914
C139  C     C_R   0.938586 0.317020 0.663533 -0.114751
C140  C     C_R   0.878644 0.326519 0.677296 -0.122939
C141  C     C_R   0.794366 0.334511 0.578712 -0.141779
C142  C     C_R   0.770005 0.333816 0.466260 -0.149748
H69   H     H_    0.961487 0.307885 0.541826 0.089289
H70   H     H_    0.003730 0.310490 0.739843 0.125775
H71   H     H_    0.897525 0.327760 0.764348 0.118975
H72   H     H_    0.747971 0.341930 0.589487 0.126722
H73   H     H_    0.704599 0.340569 0.390791 0.123848
C143  C     C_R   0.182307 0.665235 0.553307 0.133391
C144  C     C_R   0.247367 0.646129 0.553977 -0.143716
C145  C     C_R   0.232548 0.638349 0.448351 -0.161343
C146  C     C_R   0.153013 0.650026 0.341638 -0.113199
C147  C     C_R   0.088386 0.669855 0.340546 -0.109293
C148  C     C_R   0.102822 0.677734 0.445851 -0.106736
H74   H     H_    0.309296 0.637024 0.636186 0.128139
H75   H     H_    0.282663 0.623165 0.449192 0.126527
H76   H     H_    0.141514 0.643823 0.259876 0.137701
H77   H     H_    0.027241 0.679356 0.258177 0.128817
H78   H     H_    0.052246 0.693323 0.443802 0.105655
C149  C     C_R   0.169945 0.325456 0.548304 0.129421
C150  C     C_R   0.085657 0.315723 0.448556 -0.088087
C151  C     C_R   0.061643 0.317171 0.336341 -0.114731
C152  C     C_R   0.121629 0.327273 0.322842 -0.122221
C153  C     C_R   0.205831 0.335602 0.421606 -0.142056
C154  C     C_R   0.230065 0.334641 0.533982 -0.150031
H79   H     H_    0.038572 0.307393 0.457751 0.089338
H80   H     H_    0.996569 0.310361 0.259900 0.125022
H81   H     H_    0.102847 0.328694 0.235862 0.119121
H82   H     H_    0.252260 0.343446 0.411026 0.126842
H83   H     H_    0.295409 0.341646 0.609619 0.123868
C155  C     C_R   0.831200 0.670703 0.460518 0.131392
C156  C     C_R   0.765150 0.656144 0.460514 -0.145727
C157  C     C_R   0.780999 0.647075 0.566622 -0.150552
C158  C     C_R   0.862580 0.652943 0.673162 -0.121548
C159  C     C_R   0.928334 0.668544 0.673865 -0.108440
C160  C     C_R   0.912786 0.677698 0.568064 -0.103693
H84   H     H_    0.701707 0.651438 0.378520 0.128485
H85   H     H_    0.730056 0.635409 0.566285 0.135313
H86   H     H_    0.874781 0.645592 0.755137 0.139883
H87   H     H_    0.991348 0.673658 0.756344 0.163163
H88   H     H_    0.964249 0.689921 0.569747 0.104212
C161  C     C_2   0.426494 0.026286 0.156590 0.833607
O17   O     O_2   0.408025 0.071659 0.096141 -0.656568
O18   O     O_R   0.365491 0.997256 0.154498 -0.764727
H89   H     H_    0.309833 0.019693 0.104069 0.319003
C162  C     C_2   0.573088 0.027771 0.842977 0.831171
O19   O     O_2   0.590867 0.073405 0.902848 -0.656394
O20   O     O_R   0.634525 0.999226 0.845491 -0.763669
H90   H     H_    0.689889 0.022184 0.895741 0.320252
C163  C     C_2   0.926283 0.525397 0.155746 0.827380
O21   O     O_2   0.907308 0.569498 0.092439 -0.657788
O22   O     O_R   0.865560 0.497362 0.155382 -0.763516
H91   H     H_    0.809639 0.519411 0.103486 0.317933
C164  C     C_2   0.071010 0.528157 0.843036 0.820700
O23   O     O_2   0.085058 0.574516 0.899451 -0.663513
O24   O     O_R   0.134699 0.500595 0.849425 -0.770342
H92   H     H_    0.189932 0.523501 0.902843 0.304859

loop_
_geom_bond_atom_site_label_1
_geom_bond_atom_site_label_2
_ccdc_geom_bond_type
C114  H49   S    
C148  H78   S    
C88   C96   A    
C78   H17   S    
C126  H59   S    
C14   H6    S    
C29   C33   A    
C33   C45   A    
C21   H42   S    
C153  H82   S    
C5    C56   S    
C53   C77   A    
O18   H89   S    
C6    C55   S    
C141  H72   S    
C61   H21   S    
C78   C86   A    
C76   C84   A    
C79   C87   A    
C131  C132  A    
C24   H43   S    
C21   N1    A    
C131  C136  A    
C138  H69   S    
C79   H20   S    
C157  C158  A    
C30   C38   A    
C123  H57   S    
C80   H19   S    
C57   C89   A    
C6    O14   A    
C10   H2    S    
C106  H30   S    
C32   C36   A    
Cu3   N4    S    
C24   N4    A    
C161  O17   D    
C51   C75   A    
C159  H87   S    
C50   C74   A    
Cu4   O6    S    
C151  C152  A    
C76   H15   S    
C61   C93   A    
C130  H63   S    
C10   C94   A    
C9    C105  A    
C146  C147  A    
C20   H48   S    
C63   C95   A    
C37   C42   A    
C158  C159  A    
C55   C79   A    
C147  C148  A    
C62   C70   A    
C164  O23   D    
Cu2   O2    S    
C144  C145  A    
C42   C46   A    
C5    O13   A    
C137  C142  A    
C3    O11   A    
C14   C90   A    
C13   C109  A    
C86   C94   A    
C59   C67   A    
C132  H64   S    
C12   H4    S    
C1    O9    A    
C117  H52   S    
C58   C66   A    
C40   C43   A    
C26   N2    A    
C20   C24   A    
C123  C124  A    
C56   C72   A    
C122  H56   S    
C87   C95   A    
C66   C113  S    
C124  H58   S    
C112  H36   S    
Cu4   N3    S    
C121  C122  A    
C34   C46   A    
C120  C121  A    
C141  C142  A    
C97   C102  A    
C52   C68   A    
C142  H73   S    
C65   C119  S    
C81   C89   A    
C8    O16   A    
C71   C155  S    
C64   C72   A    
Cu1   O10   S    
C48   H40   S    
C114  C115  A    
C59   H27   S    
C122  C123  A    
C83   C99   A    
C154  H83   S    
C23   H44   S    
C82   C98   A    
Cu2   O3    S    
C17   C33   A    
C74   C82   A    
C151  H80   S    
C139  H70   S    
C73   C81   A    
C133  C134  A    
C88   C104  A    
C3    C50   S    
C150  H79   S    
C127  C128  A    
Cu1   O4    S    
C60   C92   A    
C25   C29   A    
C28   C163  S    
C46   H38   S    
C161  O18   S    
C100  C107  A    
C147  H77   S    
C30   C34   A    
C39   C40   A    
C27   C31   A    
C125  C126  A    
C84   C100  A    
C75   C83   A    
C15   C111  A    
C113  C118  A    
C129  H62   S    
C80   C88   A    
C64   C96   A    
C38   C41   A    
C149  C150  A    
C69   C143  S    
C2    C51   S    
C43   H11   S    
C132  C133  A    
C12   C108  A    
C28   N4    A    
C136  H68   S    
C126  C127  A    
Cu1   O1    S    
C6    O6    A    
C25   N1    A    
C163  O21   D    
C19   H47   S    
C134  H66   S    
C100  C103  A    
C35   C47   A    
C144  H74   S    
C7    O7    A    
C103  C112  A    
C22   N2    A    
C109  H33   S    
C158  H86   S    
C116  C117  A    
C37   C38   A    
C49   C65   A    
C41   H9    S    
C27   C164  S    
C134  C135  A    
C13   H5    S    
C160  H88   S    
C58   H26   S    
C84   C92   A    
C98   C105  A    
C129  C130  A    
C54   C70   A    
C28   C32   A    
O20   H90   S    
Cu2   O9    S    
C105  H29   S    
Cu4   O13   S    
C68   C125  S    
C8    O8    A    
C145  C146  A    
C52   C76   A    
C120  H54   S    
C108  H32   S    
C51   C67   A    
C82   C90   A    
C62   H22   S    
C152  H81   S    
C18   C34   A    
C53   C69   A    
C115  H50   S    
C155  C156  A    
C17   H45   S    
C118  H53   S    
C2    O2    A    
C23   N3    A    
C97   C106  A    
C25   C162  S    
Cu1   O11   S    
C121  H55   S    
C99   C108  A    
C116  H51   S    
C146  H76   S    
Cu2   O12   S    
C62   C94   A    
O24   H92   S    
C11   C107  A    
C143  C148  A    
C87   C103  A    
C59   C91   A    
C10   C106  A    
C45   H37   S    
C77   H18   S    
C153  C154  A    
C86   C102  A    
C9    C93   A    
C155  C160  A    
Cu3   O14   S    
C85   C101  A    
C75   H16   S    
C16   C112  A    
Cu2   N1    S    
Cu1   Cu2   S    
C64   H24   S    
C11   C95   A    
C14   C110  A    
C73   H14   S    
C44   H12   S    
C107  H31   S    
C99   C104  A    
C4    O4    A    
C11   H3    S    
C13   C89   A    
C18   C22   A    
C5    O5    A    
C157  H85   S    
C127  H60   S    
C101  C110  A    
C63   C71   A    
C119  C120  A    
C110  H34   S    
C111  H35   S    
C8    C53   S    
C104  C111  A    
Cu3   O15   S    
C125  C130  A    
C50   C66   A    
C16   C92   A    
C39   C44   A    
C22   H41   S    
C63   H23   S    
C163  O22   S    
C98   C101  A    
C83   C91   A    
Cu4   O7    S    
C113  C114  A    
C145  H75   S    
C56   C80   A    
C57   H25   S    
C4    C49   S    
C58   C90   A    
C156  H84   S    
C61   C69   A    
O22   H91   S    
C152  C153  A    
C162  O20   S    
C4    O12   A    
C70   C137  S    
C138  C139  A    
Cu3   O5    S    
C19   C35   A    
C60   H28   S    
C18   H46   S    
Cu3   O8    S    
C3    O3    A    
C149  C154  A    
C140  H71   S    
C47   H39   S    
C135  H67   S    
C77   C85   A    
C156  C157  A    
C57   C65   A    
Cu4   O16   S    
C31   C35   A    
C1    O1    A    
C143  C144  A    
C81   C97   A    
C54   C78   A    
C31   C39   A    
C133  H65   S    
C36   C48   A    
C49   C73   A    
C7    O15   A    
C32   C40   A    
C72   C149  S    
C16   H8    S    
C117  C118  A    
C1    C52   S    
C17   C21   A    
C159  C160  A    
C42   H10   S    
C15   C91   A    
C20   C36   A    
C44   C48   A    
C19   C23   A    
C115  C116  A    
C85   C93   A    
C60   C68   A    
C164  O24   S    
C128  C129  A    
Cu1   N2    S    
C74   H13   S    
C29   C37   A    
C139  C140  A    
C67   C131  S    
C41   C45   A    
C137  C138  A    
C12   C96   A    
C102  C109  A    
C2    O10   A    
C7    C54   S    
Cu3   Cu4   S    
C119  C124  A    
C162  O19   D    
C43   C47   A    
C135  C136  A    
C27   N3    A    
C55   C71   A    
C9    H1    S    
C128  H61   S    
C140  C141  A    
C150  C151  A    
C15   H7    S    
C26   C30   A    
C26   C161  S    
