data_mof_unit_34267.cif
_audit_creation_date              2012-12-10T20:44:50-0500
_audit_creation_method            fapswitch 2.2
_symmetry_space_group_name_H-M    P1
_symmetry_Int_Tables_number       1
_space_group_crystal_system       triclinic
_cell_length_a                    9.869464
_cell_length_b                    10.66959
_cell_length_c                    16.554945
_cell_angle_alpha                 89.43733
_cell_angle_beta                  93.809435
_cell_angle_gamma                 88.78208
_cell_volume                      1738.9326658

loop_
_atom_site_label
_atom_site_type_symbol
_atom_type_description
_atom_site_fract_x
_atom_site_fract_y
_atom_site_fract_z
_atom_type_partial_charge
C1    C     C_R   0.500864 0.259849 0.496761 0.883332
C2    C     C_R   0.500938 0.129401 0.479463 -0.162459
C3    C     C_R   0.378983 0.071401 0.455103 -0.262821
C4    C     C_R   0.517167 0.497025 0.653709 1.020233
C5    C     C_R   0.375307 0.941417 0.449854 0.372894
C6    C     C_R   0.495416 0.871585 0.474301 -0.256944
C7    C     C_R   0.618958 0.933277 0.478690 0.116036
C8    C     C_3   0.742973 0.918963 0.535273 -0.336592
C9    C     C_3   0.746422 0.060834 0.536415 -0.488304
C10   C     C_R   0.079481 0.468095 0.568449 0.227570
C11   C     C_R   0.064631 0.546245 0.436106 -0.078630
C12   C     C_R   0.618326 0.535445 0.793412 0.354388
C13   C     C_R   0.921463 0.550894 0.437028 0.380372
C14   C     C_R   0.937208 0.468041 0.568429 0.216186
C15   C     C_3   0.939047 0.347756 0.614629 -0.474083
C16   C     C_R   0.497851 0.740002 0.493218 0.977669
C17   C     C_3   0.093126 0.346929 0.614106 -0.461868
C18   C     C_R   0.483106 0.498502 0.346065 0.919178
C19   C     C_R   0.528790 0.470030 0.739718 -0.288469
C20   C     C_R   0.460746 0.364735 0.765639 -0.355861
C21   C     C_R   0.478342 0.323182 0.845277 0.357434
C22   C     C_R   0.566064 0.388013 0.899330 0.042782
C23   C     C_R   0.582767 0.402564 0.142395 -0.163160
C24   C     C_R   0.640803 0.489619 0.873117 0.290998
C25   C     C_R   0.588610 0.427148 0.224145 -0.164122
C26   C     C_R   0.463183 0.429978 0.093496 0.248690
C27   C     C_R   0.475360 0.478405 0.259219 -0.088861
C28   C     C_R   0.354561 0.502745 0.211921 -0.297925
C29   C     C_R   0.348097 0.479837 0.128846 0.360392
C30   C     C_R   0.621978 0.060743 0.480050 0.140016
Cl1   Cl    Cl    0.832665 0.633421 0.357379 -0.527634
Cl2   Cl    Cl    0.759900 0.557901 0.943101 -0.368558
H1    H     H_    0.682189 0.405317 0.259951 0.198520
H2    H     H_    0.673926 0.365952 0.117309 0.203669
H3    H     H_    0.134875 0.269749 0.577819 0.217002
H4    H     H_    0.266689 0.541228 0.239584 0.212142
H5    H     H_    0.395071 0.313672 0.723071 0.207220
H6    H     H_    0.286056 0.126356 0.443493 0.208938
H7    H     H_    0.313059 0.799730 0.306204 0.359639
H8    H     H_    0.762618 0.849329 0.816832 0.389954
H9    H     H_    0.562484 0.086582 0.929284 0.367770
H10   H     H_    0.041508 0.507135 0.155464 0.360224
H11   H     H_    0.722089 0.877270 0.594705 0.251311
H12   H     H_    0.829830 0.875347 0.505571 0.253921
H13   H     H_    0.727653 0.101160 0.596471 0.210741
H14   H     H_    0.834996 0.097771 0.506434 0.224633
H15   H     H_    0.112632 0.581027 0.383951 0.233451
H16   H     H_    0.901633 0.359880 0.676006 0.240147
H17   H     H_    0.891452 0.271727 0.578790 0.200418
H18   H     H_    0.144410 0.358061 0.675353 0.237866
N1    N     N_2   0.562395 0.368250 0.982775 -0.094499
N2    N     N_2   0.462176 0.424507 0.008209 -0.055911
N3    N     N_R   0.142860 0.499130 0.500540 -0.144974
N4    N     N_R   0.857210 0.499170 0.500530 -0.161758
O1    O     O_R   0.614690 0.316790 0.499990 -0.631180
O2    O     O_2   0.131717 0.971439 0.367198 -0.269176
O3    O     O_3   0.257668 0.759668 0.346571 -0.545284
O4    O     O_2   0.829651 0.644624 0.730348 -0.275495
O5    O     O_2   0.604915 0.740912 0.696751 -0.346488
O6    O     O_3   0.716708 0.776643 0.839647 -0.435495
O7    O     O_2   0.254709 0.235388 0.905089 -0.166141
O8    O     O_2   0.362599 0.104191 0.806445 -0.268006
O9    O     O_3   0.476786 0.114044 0.952331 -0.468175
O10   O     O_2   0.226960 0.610047 0.004632 -0.173859
O11   O     O_2   0.143559 0.400288 0.029726 -0.218243
O12   O     O_R   0.385350 0.316760 0.500000 -0.637181
O13   O     O_3   0.077836 0.579259 0.126284 -0.466437
O14   O     O_R   0.627460 0.498860 0.616130 -0.586841
O15   O     O_R   0.398120 0.498820 0.616130 -0.610159
O16   O     O_R   0.614650 0.683240 0.500000 -0.583763
O17   O     O_R   0.385310 0.683210 0.500010 -0.535042
O18   O     O_R   0.601880 0.501180 0.383870 -0.579811
O19   O     O_R   0.372540 0.501140 0.383870 -0.615732
O20   O     O_2   0.148158 0.821308 0.479920 -0.259662
S1    S     S_3+6 0.222035 0.874292 0.411268 0.055640
S2    S     S_3+6 0.694275 0.676571 0.762278 0.087626
S3    S     S_3+6 0.388586 0.191428 0.876276 0.106389
S4    S     S_3+6 0.196835 0.517037 0.069432 0.122892
Zn1   Zn    Zn3+2 0.653130 0.500020 0.499990 1.024433
Zn2   Zn    Zn3+2 0.346870 0.499980 0.500010 1.022892

loop_
_geom_bond_atom_site_label_1
_geom_bond_atom_site_label_2
_ccdc_geom_bond_type
C9    H13   S    
H8    O6    S    
O8    S3    D    
C11   H15   S    
C19   C20   A    
C8    H11   S    
O4    S2    D    
C7    C8    S    
O13   S4    S    
C28   C29   A    
N4    Zn1   S    
O18   Zn1   S    
C5    C6    A    
C10   C17   S    
H7    O3    S    
C1    C2    S    
C23   C26   A    
C10   N3    A    
O17   Zn2   S    
C4    C19   S    
C29   S4    S    
C3    H6    S    
O7    S3    D    
C8    C9    S    
C11   N3    A    
O14   Zn1   S    
C23   C25   A    
C9    H14   S    
C7    C30   A    
C21   C22   A    
C16   O17   A    
C15   H16   S    
C4    O15   A    
C18   O18   A    
O20   S1    D    
N1    N2    D    
N3    Zn2   S    
C16   O16   A    
C10   C14   A    
C4    O14   A    
O6    S2    S    
C5    S1    S    
C24   Cl2   S    
C26   N2    S    
O1    Zn1   S    
C23   H2    S    
C1    O12   A    
C9    C30   S    
C14   N4    A    
C18   O19   A    
C12   S2    S    
H10   O13   S    
C22   C24   A    
H9    O9    S    
C13   N4    A    
O9    S3    S    
C15   C17   S    
O11   S4    D    
O16   Zn1   S    
O10   S4    D    
C13   Cl1   S    
C18   C27   S    
C8    H12   S    
C3    C5    A    
C17   H18   S    
C6    C7    A    
C25   C27   A    
O12   Zn2   S    
C12   C24   A    
C2    C30   A    
O3    S1    S    
C2    C3    A    
C1    O1    A    
C20   H5    S    
C11   C13   A    
C12   C19   A    
O19   Zn2   S    
C15   H17   S    
C6    C16   S    
C20   C21   A    
C28   H4    S    
C26   C29   A    
C21   S3    S    
C27   C28   A    
O2    S1    D    
C14   C15   S    
O15   Zn2   S    
C17   H3    S    
O5    S2    D    
C25   H1    S    
C22   N1    S    
