data_mof_unit_54435.cif
_audit_creation_date              2012-12-10T18:57:08-0500
_audit_creation_method            fapswitch 2.2
_symmetry_space_group_name_H-M    P1
_symmetry_Int_Tables_number       1
_space_group_crystal_system       triclinic
_cell_length_a                    8.767209
_cell_length_b                    10.851637
_cell_length_c                    9.556527
_cell_angle_alpha                 90.961703
_cell_angle_beta                  97.617558
_cell_angle_gamma                 90.68853
_cell_volume                      900.950651889

loop_
_atom_site_label
_atom_site_type_symbol
_atom_type_description
_atom_site_fract_x
_atom_site_fract_y
_atom_site_fract_z
_atom_type_partial_charge
C1    C     C_R   0.496337 0.262628 0.498294 0.789657
C2    C     C_R   0.540408 0.935159 0.384862 -0.169722
C3    C     C_R   0.491481 0.871703 0.498558 -0.112284
C4    C     C_R   0.419289 0.938559 0.597038 0.078312
C5    C     C_3   0.445484 0.942954 0.755459 -0.057008
C6    C     C_3   0.433762 0.082244 0.749479 -0.433461
C7    C     C_R   0.620489 0.551747 0.089319 0.245825
C8    C     C_R   0.388875 0.439041 0.059654 -0.068560
C9    C     C_R   0.388640 0.439316 0.910880 -0.061431
C10   C     C_R   0.621843 0.548937 0.941693 0.209772
C11   C     C_3   0.676087 0.678212 0.940089 -0.520800
C12   C     C_R   0.204160 0.499533 0.464708 0.904151
C13   C     C_3   0.667047 0.685171 0.096844 -0.064274
C14   C     C_R   0.499394 0.737932 0.500780 0.815931
C15   C     C_R   0.795556 0.502469 0.536258 0.835703
C16   C     C_2   0.038827 0.493567 0.448477 -0.322975
C17   C     C_2   0.960498 0.513229 0.558404 -0.022854
C18   C     C_R   0.414613 0.065778 0.593095 0.065387
C19   C     C_R   0.482846 0.129834 0.491865 -0.084317
C20   C     C_R   0.535692 0.063348 0.381128 -0.199953
Cu1   Cu    Cu3+1 0.499990 0.499980 0.640670 0.945169
Cu2   Cu    Cu3+1 0.500010 0.500020 0.359330 0.965712
H1    H     H_    0.979969 0.469340 0.344129 0.160021
H2    H     H_    0.297077 0.391780 0.843268 0.144536
H3    H     H_    0.794203 0.685301 0.910510 0.212054
H4    H     H_    0.589574 0.734609 0.878505 0.203546
H5    H     H_    0.572341 0.745134 0.122145 0.165583
H6    H     H_    0.582562 0.110175 0.296754 0.167259
H7    H     H_    0.590214 0.886755 0.302790 0.175674
H8    H     H_    0.562096 0.914663 0.801256 0.162069
H9    H     H_    0.328838 0.120255 0.787032 0.195994
H10   H     H_    0.543080 0.130600 0.792054 0.189975
H11   H     H_    0.297517 0.391244 0.103206 0.144281
N1    N     N_R   0.500980 0.500930 0.148050 -0.201654
N2    N     N_R   0.500990 0.500890 0.852140 -0.187164
O1    O     O_R   0.500000 0.319640 0.618810 -0.588432
O2    O     O_R   0.500020 0.319680 0.381230 -0.590665
O3    O     O_R   0.274830 0.499980 0.591380 -0.548409
O4    O     O_R   0.274850 0.500020 0.353800 -0.587809
O5    O     O_R   0.499980 0.680320 0.618770 -0.596721
O6    O     O_R   0.500000 0.680360 0.381190 -0.570768
O7    O     O_R   0.725150 0.499980 0.646200 -0.591527
O8    O     O_R   0.725170 0.500020 0.408620 -0.570972
I1    I     I_    0.886027 0.725614 0.216840 -0.431747
N3    N     N_3   0.034975 0.549568 0.696651 -0.550030
H12   H     H_    0.990364 0.634150 0.724362 0.219070
H13   H     H_    0.008152 0.484075 0.768955 0.219349
N4    N     N_3   0.320153 0.885199 0.819352 -0.562978
H14   H     H_    0.325964 0.789863 0.804119 0.245227
H15   H     H_    0.213798 0.912217 0.766638 0.236258

loop_
_geom_bond_atom_site_label_1
_geom_bond_atom_site_label_2
_ccdc_geom_bond_type
C8    C9    A    
C7    C10   A    
C6    H10   S    
C9    H2    S    
C10   N2    A    
Cu1   N2    S    
Cu2   O8    S    
C19   C20   A    
C1    O2    A    
C4    C18   A    
C12   O4    A    
N4    H15   S    
C2    C3    A    
C15   O8    A    
Cu1   O1    S    
C8    N1    A    
N3    H12   S    
C11   C13   S    
C3    C14   S    
C14   O6    A    
C6    C18   S    
Cu2   O4    S    
N4    H14   S    
C5    N4    S    
C17   N3    S    
C6    H9    S    
C16   H1    S    
C8    H11   S    
C2    H7    S    
C12   O3    A    
C5    C6    S    
Cu2   N1    S    
C7    N1    A    
C1    C19   S    
Cu2   O6    S    
C10   C11   S    
C11   H3    S    
C2    C20   A    
C3    C4    A    
C12   C16   S    
C7    C13   S    
C15   O7    A    
C15   C17   S    
C18   C19   A    
C5    H8    S    
N3    H13   S    
C9    N2    A    
C4    C5    S    
C20   H6    S    
C11   H4    S    
Cu1   Cu2   S    
Cu2   O2    S    
C14   O5    A    
C13   I1    S    
C13   H5    S    
Cu1   O3    S    
Cu1   O7    S    
C1    O1    A    
C16   C17   D    
Cu1   O5    S    
