data_mof_unit_41117.cif
_audit_creation_date              2013-03-05T15:59:38-0500
_audit_creation_method            fapswitch 2.2
_symmetry_space_group_name_H-M    P1
_symmetry_Int_Tables_number       1
_space_group_crystal_system       triclinic
_cell_length_a                    15.116166
_cell_length_b                    13.691482
_cell_length_c                    27.822251
_cell_angle_alpha                 89.843175
_cell_angle_beta                  90.187808
_cell_angle_gamma                 91.12582
_cell_volume                      5757.00553705

loop_
_atom_site_label
_atom_site_type_symbol
_atom_site_description
_atom_site_fract_x
_atom_site_fract_y
_atom_site_fract_z
_atom_type_partial_charge
O1    O     O_R   0.370260 0.582280 0.500010 -0.602859
O2    O     O_R   0.629740 0.417720 0.499990 -0.587900
O3    O     O_R   0.629740 0.582280 0.499990 -0.563301
O4    O     O_R   0.370260 0.417720 0.500010 -0.542050
C1    C     C_R   0.328610 0.499002 0.499833 0.816446
C2    C     C_R   0.671609 0.501106 0.500707 0.847205
O5    O     O_R   0.500020 0.582260 0.430260 -0.556950
O6    O     O_R   0.499980 0.417740 0.569740 -0.559128
O7    O     O_R   0.499980 0.582260 0.569740 -0.546685
O8    O     O_R   0.500020 0.417740 0.430260 -0.545482
C3    C     C_R   0.501167 0.499852 0.407264 0.847062
C4    C     C_R   0.500527 0.499862 0.592547 0.891346
Cu1   Cu    Cu3+1 0.500000 0.597420 0.500000 1.003388
Cu2   Cu    Cu3+1 0.500000 0.402580 0.500000 1.031582
C5    C     C_R   0.427094 0.515941 0.177390 0.568206
C6    C     C_R   0.570975 0.530701 0.822122 0.570131
O9    O     O_2   0.351159 0.523629 0.202394 -0.521771
O10   O     O_2   0.643853 0.558946 0.797409 -0.506364
N1    N     N_R   0.505795 0.510016 0.201240 -0.454311
N2    N     N_R   0.496162 0.502177 0.797982 -0.456854
C7    C     C_R   0.584314 0.503900 0.177204 0.634417
C8    C     C_R   0.420845 0.473809 0.821780 0.637020
C9    C     C_R   0.541754 0.584538 0.279272 -0.166569
C10   C     C_R   0.448503 0.569661 0.720505 -0.158707
C11   C     C_R   0.544035 0.580405 0.329501 0.419079
C12   C     C_R   0.448214 0.568491 0.670236 0.412023
C13   C     C_R   0.471942 0.419529 0.326659 0.294054
C14   C     C_R   0.548568 0.430919 0.671938 0.310692
C15   C     C_R   0.472085 0.424370 0.276573 -0.119618
C16   C     C_R   0.546615 0.432118 0.722063 -0.112145
C17   C     C_R   0.505652 0.506933 0.252811 0.193891
C18   C     C_R   0.496943 0.501264 0.746416 0.195441
C19   C     C_R   0.504362 0.506532 0.101216 -0.106537
C20   C     C_R   0.495473 0.502519 0.897989 -0.106514
C21   C     C_R   0.424811 0.514120 0.127139 0.012476
C22   C     C_R   0.572215 0.531255 0.872408 0.010661
C23   C     C_R   0.344628 0.521562 0.102438 -0.152179
C24   C     C_R   0.648485 0.560499 0.897469 -0.157663
C25   C     C_R   0.585949 0.502011 0.126250 -0.197499
C26   C     C_R   0.419094 0.471237 0.872689 -0.186011
C27   C     C_R   0.505002 0.499696 0.354021 -0.243580
C28   C     C_R   0.499445 0.499622 0.645459 -0.231993
H1    H     H_    0.446397 0.363258 0.255782 0.193313
H2    H     H_    0.584454 0.379635 0.742335 0.193726
H3    H     H_    0.283162 0.532206 0.121474 0.195809
H4    H     H_    0.707086 0.586507 0.878703 0.198918
C29   C     C_R   0.417035 0.485901 0.974837 -0.111275
C30   C     C_R   0.581478 0.506197 0.024027 -0.134604
C31   C     C_R   0.577377 0.520819 0.973609 0.105067
C32   C     C_R   0.419055 0.500972 0.025616 0.128953
C33   C     C_R   0.496438 0.502891 0.948905 0.010227
C34   C     C_R   0.501733 0.504274 0.050206 0.013408
C35   C     C_R   0.340543 0.451209 0.949269 0.394645
C36   C     C_R   0.662217 0.491295 0.049063 0.387094
C37   C     C_R   0.345065 0.436447 0.899035 0.337282
C38   C     C_R   0.664980 0.492856 0.099468 0.358229
O11   O     O_2   0.347925 0.450294 0.795960 -0.452825
O12   O     O_2   0.659719 0.498640 0.202946 -0.456724
C39   C     C_R   0.342012 0.516153 0.052689 -0.128736
C40   C     C_R   0.651029 0.555497 0.947231 -0.145467
H5    H     H_    0.410584 0.623649 0.739444 0.182688
H6    H     H_    0.570165 0.647366 0.260786 0.188657
H7    H     H_    0.279305 0.529803 0.036213 0.174300
H8    H     H_    0.710447 0.582752 0.964646 0.208244
C41   C     C_R   0.812761 0.419696 0.487655 -0.249626
C42   C     C_R   0.188221 0.574547 0.521278 -0.285351
C43   C     C_R   0.768693 0.503148 0.502227 -0.184594
C44   C     C_R   0.231934 0.496524 0.500547 -0.182161
C45   C     C_R   0.817357 0.586328 0.518197 0.465385
C46   C     C_R   0.183463 0.416913 0.481013 0.468516
C47   C     C_R   0.910612 0.582175 0.522565 -0.072310
C48   C     C_R   0.090211 0.413807 0.484609 -0.074185
C49   C     C_R   0.953994 0.498640 0.504817 -0.040584
C50   C     C_R   0.046860 0.495707 0.504161 -0.038327
C51   C     C_R   0.904517 0.417752 0.487653 0.071656
C52   C     C_R   0.096393 0.575119 0.522864 0.080824
C53   C     C_R   0.961255 0.659461 0.543597 0.500057
C54   C     C_R   0.039426 0.332220 0.468259 0.503763
C55   C     C_R   0.054027 0.653884 0.543835 -0.284020
C56   C     C_R   0.946889 0.334763 0.471069 -0.270112
H9    H     H_    0.775349 0.356443 0.474858 0.187421
H10   H     H_    0.226044 0.635536 0.536133 0.177024
H11   H     H_    0.093764 0.710743 0.560843 0.165795
H12   H     H_    0.907584 0.271431 0.460389 0.170113
C57   C     C_R   0.446721 0.791587 0.531133 0.118383
C58   C     C_R   0.553568 0.208475 0.469070 0.148544
C59   C     C_R   0.552309 0.794367 0.468445 0.096962
C60   C     C_R   0.446103 0.205828 0.530831 0.161715
N3    N     N_R   0.500000 0.743810 0.500000 -0.213722
N4    N     N_R   0.500000 0.256190 0.500000 -0.211887
C61   C     C_R   0.554383 0.897733 0.467644 -0.120028
C62   C     C_R   0.444358 0.102475 0.531840 -0.116726
C63   C     C_R   0.444619 0.894866 0.531952 -0.115397
C64   C     C_R   0.554984 0.105282 0.467980 -0.112631
C65   C     C_R   0.499627 0.948242 0.499875 -0.011851
C66   C     C_R   0.499669 0.051916 0.499910 -0.022204
C67   C     C_R   0.609389 0.951498 0.435665 0.320806
C68   C     C_R   0.389047 0.048861 0.563688 0.340765
C69   C     C_R   0.389221 0.945697 0.563771 0.329956
C70   C     C_R   0.609905 0.054588 0.435949 0.344849
H13   H     H_    0.405793 0.748164 0.555095 0.193504
H14   H     H_    0.594891 0.251949 0.445322 0.178041
H15   H     H_    0.592253 0.753124 0.444016 0.187843
H16   H     H_    0.404706 0.247294 0.554523 0.178336
Cl1   Cl    Cl    0.430992 0.310020 0.352383 -0.592390
Cl2   Cl    Cl    0.617170 0.345185 0.644143 -0.534089
O13   O     O_3   0.773277 0.670198 0.530624 -0.515829
C71   C     C_3   0.775422 0.734685 0.490894 -0.168110
H17   H     H_    0.741404 0.701981 0.459231 0.129499
H18   H     H_    0.844123 0.756230 0.480727 0.146486
H19   H     H_    0.740420 0.802157 0.500734 0.197124
O14   O     O_3   0.227357 0.343485 0.457457 -0.519052
C72   C     C_3   0.235719 0.370019 0.408598 -0.147277
H20   H     H_    0.287948 0.427555 0.403986 0.150194
H21   H     H_    0.172303 0.395033 0.392655 0.113284
H22   H     H_    0.255224 0.304633 0.388118 0.235186
O15   O     O_3   0.918519 0.733305 0.568209 -0.522698
C73   C     C_3   0.956815 0.826373 0.558786 -0.222895
H23   H     H_    0.978796 0.835010 0.520783 0.133047
H24   H     H_    0.012524 0.841530 0.583965 0.190996
H25   H     H_    0.906133 0.882277 0.565315 0.206947
O16   O     O_3   0.081146 0.247224 0.454464 -0.521005
C74   C     C_3   0.049722 0.214537 0.409285 -0.234007
H26   H     H_    0.038262 0.275709 0.383622 0.138582
H27   H     H_    0.988643 0.169030 0.413596 0.180147
H28   H     H_    0.100566 0.167507 0.393141 0.204900
Cl3   Cl    Cl    0.678746 0.891132 0.394755 -0.571733
Cl4   Cl    Cl    0.318688 0.109923 0.603974 -0.485578
Cl5   Cl    Cl    0.318893 0.881133 0.604077 -0.536868
Cl6   Cl    Cl    0.680215 0.119326 0.395656 -0.530216
O17   O     O_3   0.400132 0.637383 0.645536 -0.544592
C75   C     C_3   0.312626 0.601450 0.640184 -0.213914
H29   H     H_    0.280683 0.587879 0.675645 0.183661
H30   H     H_    0.310312 0.533878 0.618004 0.130538
H31   H     H_    0.273457 0.657396 0.621227 0.207571
O18   O     O_3   0.587119 0.654745 0.354205 -0.541043
C76   C     C_3   0.676790 0.629415 0.359102 -0.223774
H32   H     H_    0.708066 0.615420 0.323640 0.184453
H33   H     H_    0.683980 0.565000 0.383195 0.118772
H34   H     H_    0.713782 0.691321 0.375572 0.213034
Cl7   Cl    Cl    0.263438 0.359898 0.871772 -0.471411
Cl8   Cl    Cl    0.770630 0.480650 0.126349 -0.456587
O19   O     O_3   0.267315 0.415310 0.974164 -0.548492
C77   C     C_3   0.191882 0.471440 0.963269 -0.219668
H35   H     H_    0.152827 0.438136 0.933602 0.234813
H36   H     H_    0.208044 0.549469 0.954801 0.127117
H37   H     H_    0.147961 0.470859 0.995144 0.182385
O20   O     O_3   0.739355 0.470298 0.024820 -0.560030
C78   C     C_3   0.738163 0.369908 0.013436 -0.200996
H38   H     H_    0.683084 0.350799 0.988333 0.151561
H39   H     H_    0.733747 0.323827 0.046411 0.182629
H40   H     H_    0.801011 0.352676 0.995132 0.201407

loop_
_geom_bond_atom_site_label_1
_geom_bond_atom_site_label_2
_geom_bond_distance
_ccdc_geom_bond_type
C42   C44   1.394299 A    
C10   H5    1.083220 S    
C37   Cl7   1.773045 S    
C59   C61   1.415082 A    
C13   C15   1.394906 A    
C49   C50   1.405314 A    
C24   C40   1.386430 A    
C65   C66   1.419436 A    
C52   C55   1.395205 A    
C67   Cl3   1.767722 S    
O3    C2    1.289801 A    
N1    C17   1.435356 S    
C8    O11   1.347899 S    
C45   O13   1.384146 S    
C62   C68   1.414285 A    
C74   H26   1.114843 S    
C19   C34   1.420066 A    
C30   C36   1.421195 A    
C76   H33   1.113116 S    
C20   C33   1.416647 A    
C19   C25   1.416705 A    
C31   C40   1.409344 A    
C50   C52   1.407865 A    
C20   C26   1.410268 A    
C32   C39   1.408163 A    
C6    N2    1.364403 A    
C21   C23   1.396708 A    
C10   C12   1.398721 A    
C30   C34   1.410203 A    
C53   O15   1.393114 S    
C78   H39   1.113455 S    
C70   Cl6   1.771238 S    
C74   H27   1.110294 S    
C13   Cl1   1.761810 S    
O19   C77   1.419007 S    
C62   C66   1.413646 A    
C71   H17   1.109556 S    
C14   C28   1.413864 A    
C45   C47   1.416745 A    
C11   O18   1.381074 S    
O7    Cu1   1.950827 S    
C73   H23   1.114614 S    
Cu2   N4    2.004296 S    
C48   C54   1.418035 A    
C58   C64   1.413861 A    
C57   C63   1.415268 A    
C9    H6    1.083242 S    
C60   C62   1.414993 A    
C14   Cl2   1.763323 S    
C75   H29   1.113382 S    
C41   C43   1.395646 A    
C4    C28   1.472253 S    
O13   C71   1.412863 S    
C16   C18   1.397804 A    
C51   C56   1.395557 A    
C63   C69   1.414373 A    
O3    Cu1   1.976141 S    
C56   H12   1.083139 S    
C29   C35   1.429489 A    
C72   H22   1.107839 S    
C38   Cl8   1.771928 S    
C68   Cl4   1.770392 S    
C42   C52   1.389104 A    
C63   C65   1.413987 A    
Cu1   Cu2   2.667647 S    
C15   H1    1.083451 S    
C49   C51   1.407806 A    
C16   H2    1.083254 S    
O2    C2    1.294618 A    
C77   H37   1.109497 S    
O2    Cu2   1.968041 S    
C5    C21   1.398690 A    
O14   C72   1.411530 S    
C60   H16   1.080335 S    
C1    C44   1.461295 S    
O5    C3    1.299026 A    
C29   C32   1.428478 A    
C35   C37   1.414767 A    
C76   H34   1.105845 S    
C36   C38   1.403060 A    
C69   Cl5   1.770494 S    
O20   C78   1.411114 S    
C48   C50   1.420316 A    
C58   N4    1.360678 A    
C78   H40   1.109136 S    
C11   C27   1.416873 A    
C47   C49   1.420085 A    
C57   N3    1.362052 A    
C77   H35   1.107245 S    
C74   H28   1.109220 S    
C29   C33   1.417422 A    
C31   C33   1.418857 A    
C35   O19   1.388671 S    
C73   H25   1.109278 S    
C9    C17   1.395566 A    
C5    N1    1.363991 A    
C10   C18   1.397348 A    
N1    C7    1.368339 A    
C42   H10   1.084690 S    
C13   C27   1.419366 A    
C32   C34   1.422806 A    
C25   C38   1.417865 A    
C7    C25   1.418278 A    
C64   C70   1.412825 A    
O6    C4    1.292461 A    
C26   C37   1.413846 A    
C8    C26   1.417051 A    
C53   C55   1.405914 A    
C61   C67   1.414946 A    
C64   C66   1.414031 A    
C54   C56   1.402367 A    
C23   C39   1.386715 A    
C46   O14   1.383171 S    
C75   H30   1.113414 S    
C59   H15   1.078690 S    
C77   H36   1.115921 S    
C2    C43   1.467726 S    
C60   N4    1.361718 A    
C59   N3    1.361935 A    
O8    Cu2   1.950832 S    
O1    C1    1.291612 A    
O1    Cu1   1.968042 S    
C23   H3    1.083514 S    
O17   C75   1.409761 S    
C58   H14   1.080268 S    
C47   C53   1.420127 A    
C67   C70   1.411358 A    
C57   H13   1.080177 S    
C12   C28   1.414134 A    
C36   O20   1.384406 S    
C72   H20   1.111756 S    
N2    C18   1.434874 S    
C5    O9    1.350167 S    
C30   C31   1.417756 A    
O6    Cu2   1.951958 S    
Cu1   N3    2.004296 S    
N2    C8    1.368069 A    
O4    C1    1.289331 A    
C76   H32   1.114142 S    
C39   H7    1.071073 S    
C41   C51   1.387771 A    
C71   H19   1.108976 S    
C40   H8    1.079681 S    
C22   C24   1.397784 A    
C7    O12   1.347198 S    
C15   C17   1.395676 A    
O15   C73   1.413409 S    
C6    C22   1.399162 A    
C55   H11   1.082829 S    
C75   H31   1.108633 S    
C14   C16   1.395159 A    
C19   C21   1.409959 A    
C71   H18   1.111288 S    
C3    C27   1.482665 S    
C20   C22   1.411730 A    
C9    C11   1.398817 A    
O4    Cu2   1.976143 S    
C54   O16   1.390018 S    
O7    C4    1.293000 A    
C73   H24   1.110430 S    
C24   H4    1.083368 S    
O8    C3    1.291858 A    
C61   C65   1.413558 A    
O5    Cu1   1.951963 S    
C6    O10   1.350077 S    
C68   C69   1.412518 A    
C44   C46   1.410524 A    
C41   H9    1.085222 S    
O18   C76   1.411786 S    
C46   C48   1.413273 A    
C43   C45   1.415361 A    
O16   C74   1.413064 S    
C78   H38   1.112688 S    
C12   O17   1.382144 S    
C72   H21   1.114571 S    
