data_mof_unit_49276.cif
_audit_creation_date              2012-12-10T16:39:40-0500
_audit_creation_method            fapswitch 2.2
_symmetry_space_group_name_H-M    P1
_symmetry_Int_Tables_number       1
_space_group_crystal_system       triclinic
_cell_length_a                    16.685049
_cell_length_b                    16.859788
_cell_length_c                    17.057441
_cell_angle_alpha                 65.815245
_cell_angle_beta                  65.54576
_cell_angle_gamma                 66.039065
_cell_volume                      3819.49525161

loop_
_atom_site_label
_atom_site_type_symbol
_atom_type_description
_atom_site_fract_x
_atom_site_fract_y
_atom_site_fract_z
_atom_type_partial_charge
C1    C     C_R   0.328017 0.945306 0.457957 -0.019348
C2    C     C_R   0.328166 0.459370 0.943666 0.014977
C3    C     C_R   0.525113 0.405146 0.026607 0.028142
C4    C     C_R   0.971453 0.475027 0.594498 0.030096
C5    C     C_R   0.028472 0.524971 0.405535 0.030350
C6    C     C_R   0.054362 0.672410 0.541898 0.018230
C7    C     C_R   0.945558 0.327595 0.458128 0.021075
C8    C     C_R   0.455096 0.985619 0.454921 -0.030368
C9    C     C_R   0.546062 0.014095 0.545014 -0.032236
C10   C     C_R   0.989903 0.451815 0.454601 -0.031096
C11   C     C_R   0.010018 0.548186 0.545431 -0.030581
C12   C     C_R   0.451425 0.454969 0.989561 -0.031038
C13   C     C_R   0.548331 0.544750 0.011109 -0.031104
C14   C     C_R   0.961595 0.179307 0.438414 0.878870
C15   C     C_R   0.671972 0.056382 0.541752 0.018968
C16   C     C_R   0.038383 0.820692 0.561596 0.892166
C17   C     C_R   0.179669 0.439435 0.959454 0.902030
C18   C     C_R   0.820333 0.560525 0.040617 0.902553
C19   C     C_R   0.432490 0.974474 0.177725 0.913988
C20   C     C_R   0.568098 0.024346 0.822533 0.965546
C21   C     C_R   0.568879 0.822829 0.022632 0.950338
C22   C     C_R   0.431075 0.177116 0.977506 0.969754
C23   C     C_R   0.021350 0.569110 0.823272 0.952482
C24   C     C_R   0.978634 0.430892 0.176734 0.951792
C25   C     C_R   0.820614 0.039400 0.561287 0.885089
C26   C     C_R   0.001394 0.433411 0.314242 -0.028826
C27   C     C_R   0.179387 0.961359 0.438434 0.930969
C28   C     C_R   0.409720 0.971368 0.409669 0.063073
C29   C     C_R   0.591407 0.028315 0.590287 0.067397
C30   C     C_R   0.978113 0.404877 0.409114 0.068182
C31   C     C_R   0.021814 0.595124 0.590915 0.068169
C32   C     C_R   0.404623 0.409843 0.976800 0.068437
C33   C     C_R   0.595187 0.589917 0.023756 0.067326
C34   C     C_R   0.279461 0.939799 0.409369 -0.171009
C35   C     C_R   0.720241 0.062682 0.590081 -0.262107
C36   C     C_R   0.973487 0.394655 0.271826 -0.165617
C37   C     C_R   0.998555 0.566582 0.685785 -0.028486
C38   C     C_R   0.026474 0.605342 0.728189 -0.165727
C39   C     C_R   0.394479 0.272275 0.971535 -0.167744
C40   C     C_R   0.605411 0.727596 0.028772 -0.166058
C41   C     C_R   0.601854 0.033163 0.727125 -0.161685
C42   C     C_R   0.400179 0.963934 0.273466 -0.217391
C43   C     C_R   0.720156 0.589259 0.063106 -0.254208
C44   C     C_R   0.279823 0.410632 0.937108 -0.254490
C45   C     C_R   0.059572 0.721157 0.590609 -0.252135
C46   C     C_R   0.940369 0.278844 0.409409 -0.255447
C47   C     C_R   0.483349 0.972377 0.731434 -0.213705
C48   C     C_R   0.432293 0.314670 0.999910 -0.032620
C49   C     C_R   0.519346 0.024826 0.268720 -0.211624
C50   C     C_R   0.082400 0.696883 0.446728 -0.205779
C51   C     C_R   0.917508 0.303122 0.553300 -0.209535
C52   C     C_R   0.696983 0.444780 0.082432 -0.213105
C53   C     C_R   0.302898 0.555002 0.918054 -0.212414
C54   C     C_R   0.297321 0.926195 0.552609 -0.207755
C55   C     C_R   0.702458 0.075819 0.447098 -0.207779
C56   C     C_R   0.498810 0.266272 0.047182 -0.214903
C57   C     C_R   0.500776 0.733426 0.953606 -0.217892
C58   C     C_R   0.049292 0.500593 0.266489 -0.215042
C59   C     C_R   0.567474 0.685100 0.000641 -0.033175
C60   C     C_R   0.950669 0.499387 0.733544 -0.214781
C61   C     C_R   0.324575 0.930299 0.324378 0.335356
C62   C     C_R   0.675631 0.069085 0.676780 0.358278
C63   C     C_R   0.935321 0.322761 0.322372 0.358616
C64   C     C_R   0.064636 0.677237 0.677638 0.357463
C65   C     C_R   0.323836 0.322787 0.932415 0.359897
C66   C     C_R   0.676144 0.677130 0.067771 0.357266
C67   C     C_R   0.659283 0.059427 0.402646 0.111443
C68   C     C_R   0.341237 0.941414 0.597187 0.115689
C69   C     C_R   0.940169 0.451769 0.688956 0.108544
C70   C     C_R   0.558942 0.010080 0.684608 -0.024416
C71   C     C_R   0.059773 0.548219 0.311077 0.108979
C72   C     C_R   0.450758 0.689274 0.945750 0.111810
C73   C     C_R   0.548755 0.310415 0.055224 0.112287
C74   C     C_R   0.568525 0.031296 0.313769 0.103462
C75   C     C_R   0.433394 0.967179 0.686354 0.111030
C76   C     C_R   0.351324 0.600164 0.927633 0.101654
C77   C     C_R   0.648375 0.399570 0.073124 0.101699
C78   C     C_R   0.924085 0.352836 0.598682 0.107501
C79   C     C_R   0.075830 0.647166 0.401348 0.103924
C80   C     C_R   0.695143 0.070873 0.309905 -0.197777
C81   C     C_R   0.443229 0.987684 0.315545 0.006988
C82   C     C_R   0.305705 0.929499 0.690027 -0.200421
C83   C     C_R   0.899737 0.380186 0.737639 -0.200910
C84   C     C_R   0.100206 0.619801 0.262393 -0.202054
C85   C     C_R   0.375869 0.738843 0.911435 -0.199918
C86   C     C_R   0.623399 0.260849 0.089913 -0.198666
C87   C     C_R   0.651305 0.054493 0.266429 -0.209394
C88   C     C_R   0.350389 0.944503 0.733694 -0.209220
C89   C     C_R   0.326623 0.695051 0.901875 -0.203542
C90   C     C_R   0.672803 0.304665 0.099256 -0.203815
C91   C     C_R   0.892636 0.330680 0.693032 -0.199635
C92   C     C_R   0.671747 0.540437 0.056732 0.014408
C93   C     C_R   0.107289 0.669316 0.306998 -0.198784
C94   C     C_R   0.534869 0.014728 0.406944 0.030836
C95   C     C_R   0.466504 0.984642 0.593047 0.030125
C96   C     C_R   0.962124 0.426358 0.549201 0.023623
C97   C     C_R   0.037794 0.573643 0.450831 0.024318
C98   C     C_R   0.425550 0.549835 0.964054 0.022957
C99   C     C_R   0.574171 0.449876 0.036677 0.023023
C100  C     C_R   0.580281 0.029067 0.451679 0.024644
C101  C     C_R   0.420681 0.971006 0.548223 0.025444
C102  C     C_R   0.474562 0.594553 0.974176 0.028310
H1    H     H_    0.318400 0.941683 0.803839 0.130387
H2    H     H_    0.353700 0.811376 0.895433 0.130832
H3    H     H_    0.124989 0.638605 0.189529 0.145606
H4    H     H_    0.874967 0.361373 0.810503 0.145882
H5    H     H_    0.462110 0.942640 0.802928 0.165799
H6    H     H_    0.541598 0.053731 0.197198 0.168212
H7    H     H_    0.113731 0.751734 0.407387 0.175100
H8    H     H_    0.886175 0.248269 0.592634 0.158606
H9    H     H_    0.751824 0.404997 0.113198 0.175705
H10   H     H_    0.248146 0.594824 0.887174 0.175907
H11   H     H_    0.240814 0.896842 0.593045 0.162165
H12   H     H_    0.683629 0.057033 0.196343 0.129778
H13   H     H_    0.758630 0.105703 0.406753 0.160558
H14   H     H_    0.512562 0.194310 0.079643 0.159322
H15   H     H_    0.486951 0.805344 0.921107 0.160395
H16   H     H_    0.080686 0.516315 0.194587 0.177952
H17   H     H_    0.919300 0.483649 0.805449 0.177908
H18   H     H_    0.342592 0.851662 0.258726 0.337502
H19   H     H_    0.739595 0.148739 0.666159 0.324902
H20   H     H_    0.852261 0.262060 0.333333 0.323057
H21   H     H_    0.147721 0.737920 0.666667 0.324480
H22   H     H_    0.262814 0.332864 0.851768 0.336504
H23   H     H_    0.137531 0.724975 0.267572 0.151033
H24   H     H_    0.737302 0.667166 0.148242 0.335824
H25   H     H_    0.862393 0.275021 0.732458 0.149855
H26   H     H_    0.730357 0.264381 0.126187 0.143412
H27   H     H_    0.268937 0.735332 0.875136 0.143494
H28   H     H_    0.242600 0.910317 0.728503 0.139213
H29   H     H_    0.757938 0.090623 0.271390 0.138566
H30   H     H_    0.645212 0.188270 0.106458 0.131105
O1    O     O_R   0.982940 0.138950 0.510160 -0.629079
O2    O     O_R   0.982940 0.510160 0.138950 -0.666190
O3    O     O_R   0.861050 0.017060 0.489840 -0.631968
O4    O     O_R   0.138950 0.982940 0.510160 -0.652723
O5    O     O_R   0.867700 0.025880 0.612340 -0.589769
O6    O     O_R   0.132300 0.974120 0.387660 -0.554539
O7    O     O_R   0.025880 0.612340 0.867700 -0.557211
O8    O     O_R   0.974120 0.387660 0.132300 -0.557265
O9    O     O_R   0.612340 0.867700 0.025880 -0.555715
O10   O     O_R   0.387660 0.132300 0.974120 -0.553126
O11   O     O_R   0.387660 0.974120 0.132300 -0.596735
O12   O     O_R   0.017060 0.861050 0.489840 -0.625031
O13   O     O_R   0.612340 0.025880 0.867700 -0.557815
O14   O     O_R   0.132300 0.387660 0.974120 -0.593428
O15   O     O_R   0.867700 0.612340 0.025880 -0.593325
O16   O     O_R   0.974120 0.132300 0.387660 -0.594624
O17   O     O_R   0.025880 0.867700 0.612340 -0.593341
O18   O     O_3   0.289824 0.893180 0.291080 -0.738579
O19   O     O_3   0.706389 0.105290 0.714974 -0.729222
O20   O     O_3   0.897249 0.293633 0.284436 -0.740728
O21   O     O_3   0.102729 0.706357 0.715562 -0.740320
O22   O     O_3   0.295312 0.283891 0.894839 -0.723359
O23   O     O_R   0.138950 0.510160 0.982940 -0.643073
O24   O     O_3   0.704765 0.716102 0.105183 -0.725372
O25   O     O_R   0.861050 0.489840 0.017060 -0.643045
O26   O     O_R   0.510160 0.982940 0.138950 -0.656540
O27   O     O_R   0.489840 0.017060 0.861050 -0.670426
O28   O     O_R   0.489840 0.861050 0.017060 -0.673018
O29   O     O_R   0.510160 0.138950 0.982940 -0.663649
O30   O     O_R   0.017060 0.489840 0.861050 -0.666013
Zn1   Zn    Zn3+2 0.004880 0.004880 0.583590 0.976791
Zn2   Zn    Zn3+2 0.995120 0.995120 0.416410 0.993375
Zn3   Zn    Zn3+2 0.004880 0.583590 0.004880 0.981772
Zn4   Zn    Zn3+2 0.995120 0.416410 0.995120 0.982071
Zn5   Zn    Zn3+2 0.583590 0.004880 0.004880 0.996503
Zn6   Zn    Zn3+2 0.416410 0.995120 0.995120 0.981444

loop_
_geom_bond_atom_site_label_1
_geom_bond_atom_site_label_2
_ccdc_geom_bond_type
C6    C45   A    
H22   O22   S    
C32   C48   A    
O3    Zn2   S    
C74   C94   A    
C50   C79   A    
C72   C85   A    
C75   C95   A    
C14   C46   S    
C24   O8    A    
C24   C36   S    
C91   H25   S    
C27   O4    A    
C23   O7    A    
C16   O12   A    
C85   C89   A    
C35   C62   A    
C79   C93   A    
C80   C87   A    
H21   O21   S    
C58   C71   A    
C57   C59   A    
C54   C68   A    
C76   C98   A    
C54   H11   S    
C14   O16   A    
C58   H16   S    
C89   H27   S    
O27   Zn6   S    
C60   H17   S    
C2    C32   A    
C49   C81   A    
O7    Zn3   S    
C87   H12   S    
C3    C12   A    
O15   Zn3   S    
C4    C96   A    
C3    C73   A    
C78   C96   A    
C20   O27   A    
O26   Zn5   S    
C1    C28   A    
C16   O17   A    
O17   Zn1   S    
C10   C96   A    
C74   C87   A    
C82   H28   S    
C36   C63   A    
C61   O18   S    
C9    C95   A    
C12   C98   A    
C19   C42   S    
C9    C29   A    
C76   C89   A    
C23   O30   A    
C6    C31   A    
O14   Zn4   S    
C11   C31   A    
C33   C59   A    
C40   C59   A    
C40   C66   A    
C12   C32   A    
C39   C65   A    
C44   C65   A    
C42   C81   A    
C41   C62   A    
C20   C41   S    
O1    Zn1   S    
C15   C35   A    
C4    C69   A    
C1    C34   A    
C15   C29   A    
C49   H6    S    
C38   C64   A    
C27   C34   S    
O8    Zn4   S    
C63   O20   S    
C77   C90   A    
O9    Zn5   S    
C27   O6    A    
C62   O19   S    
O16   Zn2   S    
C7    C46   A    
C8    C94   A    
C68   C101  A    
C80   H29   S    
C18   O15   A    
C86   C90   A    
C33   C92   A    
C2    C44   A    
O5    Zn1   S    
C22   O29   A    
O30   Zn4   S    
C52   H9    S    
C98   C102  A    
O10   Zn6   S    
C64   O21   S    
C50   H7    S    
H19   O19   S    
C15   C55   A    
C13   C99   A    
C25   O5    A    
C1    C54   A    
C47   C70   A    
C13   C33   A    
C37   C38   A    
C69   C83   A    
C3    C99   A    
C10   C30   A    
C94   C100  A    
C22   O10   A    
C84   H3    S    
C56   H14   S    
O2    Zn3   S    
C6    C50   A    
C4    C11   A    
C26   C58   A    
C42   C61   A    
O29   Zn5   S    
C85   H2    S    
C67   C100  A    
C25   C35   S    
C53   H10   S    
C26   C36   A    
C14   O1    A    
C5    C97   A    
C26   C30   A    
C51   H8    S    
C47   H5    S    
C8    C28   A    
C21   O28   A    
C52   C92   A    
C53   C76   A    
C52   C77   A    
C17   O23   A    
C88   H1    S    
C57   H15   S    
C71   C84   A    
O13   Zn5   S    
C24   O2    A    
C48   C56   A    
C19   O11   A    
C56   C73   A    
C28   C81   A    
C49   C74   A    
C19   O26   A    
C79   C97   A    
C67   C80   A    
C2    C53   A    
O25   Zn4   S    
C55   C67   A    
C8    C101  A    
C78   C91   A    
C9    C100  A    
C23   C38   S    
C83   C91   A    
C45   C64   A    
H18   O18   S    
C43   C92   A    
C83   H4    S    
C46   C63   A    
C11   C97   A    
C68   C82   A    
C17   O14   A    
C17   C44   S    
C47   C75   A    
C5    C10   A    
C5    C71   A    
C18   O25   A    
C18   C43   S    
C66   O24   S    
C55   H13   S    
C86   H30   S    
C21   C40   S    
C72   C102  A    
C60   C69   A    
O23   Zn3   S    
C43   C66   A    
C82   C88   A    
C22   C39   S    
C77   C99   A    
C29   C70   A    
C84   C93   A    
O28   Zn6   S    
C57   C72   A    
C25   O3    A    
C93   H23   S    
C73   C86   A    
C51   C78   A    
C37   C60   A    
C16   C45   S    
C7    C51   A    
C31   C37   A    
C75   C88   A    
C21   O9    A    
C34   C61   A    
C7    C30   A    
C90   H26   S    
C20   O13   A    
C41   C70   A    
O6    Zn2   S    
O11   Zn6   S    
C65   O22   S    
C13   C102  A    
O12   Zn2   S    
C95   C101  A    
H20   O20   S    
C39   C48   A    
O4    Zn1   S    
H24   O24   S    
