data_mof_unit_27910.cif
_audit_creation_date              2012-12-11T15:27:06-0500
_audit_creation_method            fapswitch 2.2
_symmetry_space_group_name_H-M    P1
_symmetry_Int_Tables_number       1
_space_group_crystal_system       triclinic
_cell_length_a                    13.952024
_cell_length_b                    13.941614
_cell_length_c                    27.411783
_cell_angle_alpha                 89.992728
_cell_angle_beta                  89.92604
_cell_angle_gamma                 119.936924
_cell_volume                      4620.54641192

loop_
_atom_site_label
_atom_site_type_symbol
_atom_type_description
_atom_site_fract_x
_atom_site_fract_y
_atom_site_fract_z
_atom_type_partial_charge
C1    C     C_R   0.234156 0.787309 0.568614 0.536488
C2    C     C_R   0.212663 0.446828 0.568613 0.539685
C3    C     C_R   0.553075 0.765779 0.568639 0.540142
C4    C     C_3   0.704993 0.757367 0.784960 -0.237145
C5    C     C_3   0.242720 0.947504 0.784918 -0.236942
C6    C     C_3   0.052457 0.294935 0.785038 -0.237120
C7    C     C_3   0.684279 0.745057 0.729206 -0.272677
C8    C     C_3   0.254839 0.939107 0.729134 -0.272827
C9    C     C_3   0.060776 0.315465 0.729256 -0.272572
C10   C     C_1   0.711427 0.864049 0.858050 -0.075428
C11   C     C_1   0.136309 0.847410 0.858084 -0.075474
C12   C     C_1   0.152728 0.288834 0.858062 -0.075453
C13   C     C_1   0.631089 0.816691 0.657836 -0.009482
C14   C     C_1   0.183068 0.814433 0.657824 -0.010148
C15   C     C_1   0.185435 0.368586 0.657811 -0.010039
C16   C     C_1   0.602409 0.797706 0.615877 0.024755
C17   C     C_1   0.202072 0.804725 0.615850 0.022570
C18   C     C_1   0.195147 0.397311 0.615842 0.023265
C19   C     C_R   0.106811 0.219849 0.948809 0.550387
C20   C     C_R   0.780261 0.887057 0.948787 0.550470
C21   C     C_R   0.113049 0.893248 0.948807 0.550535
C22   C     C_R   0.617054 0.808570 0.386055 0.050168
C23   C     C_R   0.211364 0.794615 0.380473 0.050989
C24   C     C_R   0.194745 0.387861 0.384988 0.034304
C25   C     C_R   0.611841 0.893952 0.361119 -0.114855
C26   C     C_R   0.121268 0.805273 0.365795 -0.180579
C27   C     C_R   0.287699 0.402165 0.358779 -0.165502
C28   C     C_R   0.639583 0.912688 0.312125 -0.120042
C29   C     C_R   0.100685 0.807171 0.316089 -0.126008
C30   C     C_R   0.278703 0.375096 0.309781 -0.137141
C31   C     C_R   0.676228 0.848703 0.287730 -0.026743
C32   C     C_R   0.169657 0.797147 0.281448 -0.030544
C33   C     C_R   0.176295 0.331237 0.286441 -0.026848
C34   C     C_R   0.234399 0.786942 0.431239 0.570061
C35   C     C_R   0.212665 0.445868 0.431481 0.579387
C36   C     C_R   0.555124 0.767146 0.431736 0.601968
C37   C     C_R   0.694556 0.772968 0.314038 -0.085058
C38   C     C_R   0.256808 0.782127 0.296656 -0.085423
C39   C     C_R   0.081273 0.306415 0.313601 -0.079886
C40   C     C_R   0.664714 0.752369 0.362949 0.371019
C41   C     C_R   0.277402 0.780530 0.345850 0.372777
C42   C     C_R   0.090224 0.334931 0.362674 0.382056
C43   C     C_R   0.656461 0.760458 0.206761 -0.116666
C44   C     C_R   0.249155 0.883211 0.201846 -0.118823
C45   C     C_R   0.102406 0.344627 0.205983 -0.118186
C46   C     C_R   0.677080 0.768432 0.156922 -0.130750
C47   C     C_R   0.236580 0.904776 0.153626 -0.129701
C48   C     C_R   0.088895 0.322418 0.156334 -0.130772
C49   C     C_R   0.753804 0.967405 0.161379 -0.126382
C50   C     C_R   0.039490 0.774169 0.159171 -0.128740
C51   C     C_R   0.217920 0.253632 0.160315 -0.126671
C52   C     C_R   0.735169 0.959692 0.211312 -0.117849
C53   C     C_R   0.051984 0.753368 0.207670 -0.116603
C54   C     C_R   0.230175 0.274333 0.210063 -0.115875
C55   C     C_R   0.689535 0.856560 0.234575 0.037240
C56   C     C_R   0.156464 0.809928 0.229459 0.034198
C57   C     C_R   0.169664 0.316542 0.233455 0.037984
C58   C     C_R   0.729375 0.872383 0.134358 0.021868
C59   C     C_R   0.131255 0.852984 0.132536 0.021585
C60   C     C_R   0.143379 0.272946 0.133700 0.021808
C61   C     C_R   0.106524 0.221705 0.086042 0.547598
C62   C     C_R   0.778447 0.885112 0.086199 0.546825
C63   C     C_R   0.114698 0.893660 0.086211 0.550221
C64   C     C_3   0.548548 0.812983 0.738401 0.256331
C65   C     C_3   0.186990 0.735456 0.738246 0.256518
C66   C     C_3   0.264108 0.451475 0.738180 0.256399
C67   C     C_3   0.750558 0.948477 0.722476 -0.199164
C68   C     C_3   0.051543 0.802396 0.722696 -0.199216
C69   C     C_3   0.198036 0.249287 0.722584 -0.199410
C70   C     C_3   0.771532 0.961101 0.778349 -0.220385
C71   C     C_3   0.039102 0.810740 0.778600 -0.220322
C72   C     C_3   0.189773 0.228495 0.778486 -0.220261
C73   C     C_1   0.736977 0.873653 0.900440 -0.020249
C74   C     C_1   0.126686 0.863381 0.900478 -0.020099
C75   C     C_1   0.136760 0.263274 0.900464 -0.020113
C76   C     C_3   0.653686 0.831256 0.710502 0.082034
C77   C     C_3   0.168642 0.822464 0.710501 0.082286
C78   C     C_3   0.177467 0.346119 0.710482 0.082230
C79   C     C_3   0.570164 0.826334 0.794205 -0.166182
C80   C     C_3   0.173829 0.743724 0.794084 -0.166243
C81   C     C_3   0.255923 0.430041 0.794013 -0.166258
C82   C     C_3   0.689586 0.852612 0.805318 0.029046
C83   C     C_3   0.147604 0.837000 0.805346 0.029047
C84   C     C_3   0.163071 0.310533 0.805323 0.029081
Cr1   Cr    Cr6+3 0.164410 0.584450 0.499910 1.100671
Cr2   Cr    Cr6+3 0.415550 0.579960 0.499910 1.085603
Cr3   Cr    Cr6+3 0.420040 0.835590 0.499910 1.069614
Cr4   Cr    Cr6+3 0.156760 0.076070 0.017830 1.021697
Cr5   Cr    Cr6+3 0.923930 0.080690 0.017830 1.021831
Cr6   Cr    Cr6+3 0.919310 0.843240 0.017830 1.022865
H1    H     H_    0.557271 0.893833 0.808432 0.158409
H2    H     H_    0.106425 0.663444 0.808373 0.158323
H3    H     H_    0.336273 0.443065 0.808199 0.158302
H4    H     H_    0.478888 0.728089 0.730917 0.156472
H5    H     H_    0.271797 0.750477 0.730586 0.156302
H6    H     H_    0.248727 0.521114 0.730588 0.156756
H7    H     H_    0.509732 0.748652 0.813099 0.075979
H8    H     H_    0.251516 0.760778 0.812821 0.076150
H9    H     H_    0.238542 0.490525 0.812816 0.076101
H10   H     H_    0.790337 0.774151 0.792637 0.123362
H11   H     H_    0.225974 0.016153 0.792719 0.123283
H12   H     H_    0.984107 0.209526 0.792873 0.123336
H13   H     H_    0.577103 0.939992 0.378084 0.174549
H14   H     H_    0.068370 0.813190 0.392511 0.132667
H15   H     H_    0.369421 0.442413 0.374920 0.173261
H16   H     H_    0.617437 0.679507 0.223748 0.111199
H17   H     H_    0.330466 0.927852 0.218277 0.108315
H18   H     H_    0.057948 0.380860 0.223140 0.113275
H19   H     H_    0.657385 0.694308 0.136502 0.119161
H20   H     H_    0.308146 0.965900 0.133592 0.120873
H21   H     H_    0.031488 0.338331 0.136197 0.120394
H22   H     H_    0.625348 0.972122 0.292753 0.123273
H23   H     H_    0.033105 0.819177 0.304667 0.136176
H24   H     H_    0.353102 0.394824 0.289590 0.129303
H25   H     H_    0.761415 0.034975 0.231942 0.109036
H26   H     H_    0.980066 0.695531 0.228490 0.115720
H27   H     H_    0.282686 0.252254 0.230543 0.110271
H28   H     H_    0.795089 0.048738 0.144692 0.130304
H29   H     H_    0.957313 0.733645 0.143473 0.127397
H30   H     H_    0.260347 0.214821 0.143527 0.128582
H31   H     H_    0.727683 0.726370 0.296223 0.129070
H32   H     H_    0.309118 0.771950 0.270353 0.133679
H33   H     H_    0.000713 0.268543 0.296401 0.130171
H34   H     H_    0.826976 0.962714 0.703328 0.093350
H35   H     H_    0.037265 0.864681 0.703652 0.092986
H36   H     H_    0.136020 0.172725 0.703576 0.092962
H37   H     H_    0.731395 0.012560 0.709339 0.175298
H38   H     H_    0.987472 0.719267 0.709603 0.175332
H39   H     H_    0.281213 0.268500 0.709388 0.174888
H40   H     H_    0.762023 0.031054 0.792042 0.127171
H41   H     H_    0.969248 0.731390 0.792358 0.127159
H42   H     H_    0.269207 0.238140 0.792140 0.127148
H43   H     H_    0.858244 0.981967 0.785849 0.108755
H44   H     H_    0.018268 0.876681 0.786226 0.108822
H45   H     H_    0.124137 0.141721 0.786146 0.108825
H46   H     H_    0.616307 0.659776 0.720949 0.170052
H47   H     H_    0.340031 0.956213 0.720700 0.170352
H48   H     H_    0.043319 0.383408 0.720894 0.170288
H49   H     H_    0.759848 0.756466 0.710196 0.120920
H50   H     H_    0.243367 0.003353 0.710227 0.120125
H51   H     H_    0.996792 0.239746 0.710384 0.120833
H52   H     H_    0.646660 0.678136 0.803389 0.135683
H53   H     H_    0.321946 0.968182 0.803192 0.136029
H54   H     H_    0.031452 0.353326 0.803381 0.135899
O1    O     O_R   0.137310 0.468260 0.552980 -0.499727
O2    O     O_R   0.531740 0.669050 0.552980 -0.500571
O3    O     O_R   0.330950 0.862690 0.552980 -0.506738
O4    O     O_R   0.180530 0.983530 0.965090 -0.510875
O5    O     O_R   0.016470 0.197000 0.965090 -0.510926
O6    O     O_R   0.803000 0.819470 0.965090 -0.510921
O7    O     O_R   0.174120 0.688790 0.549730 -0.495037
O8    O     O_R   0.311210 0.485330 0.549730 -0.496094
O9    O     O_R   0.514670 0.825880 0.549730 -0.496239
O10   O     O_R   0.139940 0.470480 0.446230 -0.431656
O11   O     O_R   0.529520 0.669460 0.446230 -0.440803
O12   O     O_R   0.330540 0.860060 0.446230 -0.485953
O13   O     O_R   0.176560 0.690850 0.450770 -0.487941
O14   O     O_R   0.309150 0.485710 0.450770 -0.519773
O15   O     O_R   0.514290 0.823440 0.450770 -0.495458
O16   O     O_3   0.333333 0.666667 0.499990 -0.285238
O17   O     O_3   0.000000 1.000000 0.017910 -0.217957
O18   O     O_R   0.149710 0.171070 0.967700 -0.496591
O19   O     O_R   0.828930 0.978640 0.967700 -0.496636
O20   O     O_R   0.021360 0.850290 0.967700 -0.496752
O21   O     O_R   0.178510 0.985930 0.071830 -0.520492
O22   O     O_R   0.014070 0.192580 0.071830 -0.520009
O23   O     O_R   0.807420 0.821490 0.071830 -0.517808
O24   O     O_R   0.147830 0.173300 0.066650 -0.500686
O25   O     O_R   0.826700 0.974530 0.066650 -0.501127
O26   O     O_R   0.025470 0.852170 0.066650 -0.500488
F1    F     F_    0.516857 0.887470 0.722416 -0.674832
F2    F     F_    0.112499 0.629410 0.722306 -0.674728
F3    F     F_    0.370182 0.483217 0.722113 -0.674756
F4    F     F_    0.676699 0.673404 0.386576 -0.619367
F5    F     F_    0.360184 0.762220 0.359866 -0.650244
F6    F     F_    0.997947 0.315775 0.387410 -0.612650

loop_
_geom_bond_atom_site_label_1
_geom_bond_atom_site_label_2
_ccdc_geom_bond_type
C58   C62   S    
C15   C18   T    
C40   F4    S    
Cr6   O23   S    
C2    C18   S    
C53   H26   S    
C24   C42   A    
C35   O10   A    
C70   H40   S    
Cr6   O6    S    
C67   H34   S    
C6    C9    S    
C28   H22   S    
C25   C28   A    
C45   C57   A    
C33   C39   A    
Cr3   O3    S    
C50   C59   A    
Cr1   O1    S    
C37   C40   A    
Cr2   O8    S    
C4    C7    S    
C4    H52   S    
C5    C83   S    
C10   C73   T    
C23   C26   A    
C15   C78   S    
C27   H15   S    
Cr4   O17   S    
C3    O9    A    
C39   H33   S    
Cr3   O16   S    
C12   C84   S    
C45   H18   S    
C61   O22   A    
C14   C77   S    
C36   O15   A    
C26   H14   S    
C20   O6    A    
Cr4   O24   S    
C22   C25   A    
C70   H43   S    
C24   C27   A    
C66   F3    S    
C72   H42   S    
Cr1   O16   S    
C32   C38   A    
C68   H38   S    
C79   H1    S    
C44   C47   A    
Cr1   O10   S    
C49   C52   A    
Cr5   O5    S    
C62   O23   A    
C41   F5    S    
C21   O20   A    
C46   C58   A    
C27   C30   A    
C32   C56   S    
C64   H4    S    
C14   C17   T    
Cr6   O26   S    
C69   C78   S    
Cr1   O13   S    
C71   H44   S    
C80   C83   S    
Cr2   O2    S    
Cr5   O17   S    
C48   C60   A    
C39   C42   A    
C71   C83   S    
C2    O8    A    
C66   C78   S    
C5    H11   S    
C52   H25   S    
C24   C35   S    
C6    C84   S    
C65   F2    S    
C50   H29   S    
C50   C53   A    
C21   O4    A    
C65   C77   S    
C38   C41   A    
C9    H51   S    
C25   H13   S    
C63   O26   A    
C81   H9    S    
C11   C83   S    
C20   O19   A    
C71   H41   S    
C21   C74   S    
C10   C82   S    
C49   C58   A    
C31   C37   A    
Cr6   O20   S    
C60   C61   S    
C2    O1    A    
C19   O18   A    
C80   H2    S    
C69   C72   S    
Cr2   O11   S    
Cr1   O7    S    
C67   H37   S    
C5    C8    S    
C81   H3    S    
C9    H48   S    
C44   C56   A    
C49   H28   S    
C13   C76   S    
C63   O21   A    
C23   C34   S    
C22   C40   A    
C44   H17   S    
Cr3   O9    S    
C51   H30   S    
C64   C76   S    
C72   C84   S    
Cr2   O14   S    
C38   H32   S    
C26   C29   A    
C37   H31   S    
C43   C55   A    
C69   H36   S    
C4    H10   S    
C8    C77   S    
C64   C79   S    
C1    O3    A    
C6    H54   S    
C81   C84   S    
C66   H6    S    
C30   H24   S    
C45   C48   A    
C68   C77   S    
C62   O25   A    
C29   H23   S    
C33   C57   S    
C30   C33   A    
C80   H8    S    
C1    C17   S    
C79   H7    S    
C28   C31   A    
C72   H45   S    
C11   C74   T    
C79   C82   S    
C52   C55   A    
C13   C16   T    
C7    C76   S    
C51   C60   A    
C34   O12   A    
C29   C32   A    
C47   H20   S    
C22   C36   S    
C59   C63   S    
C23   C41   A    
C8    H50   S    
C51   C54   A    
C67   C70   S    
C64   F1    S    
C19   C75   S    
C43   H16   S    
C35   O14   A    
Cr5   O25   S    
C7    H46   S    
C42   F6    S    
C66   C81   S    
C7    H49   S    
Cr4   O4    S    
C61   O24   A    
C68   C71   S    
Cr4   O18   S    
C19   O5    A    
Cr3   O15   S    
C20   C73   S    
C1    O7    A    
C9    C78   S    
C6    H12   S    
C70   C82   S    
C43   C46   A    
C53   C56   A    
Cr5   O22   S    
C5    H53   S    
C12   C75   T    
C47   C59   A    
C34   O13   A    
Cr6   O17   S    
C65   H5    S    
C48   H21   S    
C4    C82   S    
C3    O2    A    
C69   H39   S    
Cr4   O21   S    
C54   H27   S    
C46   H19   S    
C65   C80   S    
Cr3   O12   S    
C8    H47   S    
C67   C76   S    
C31   C55   S    
Cr2   O16   S    
C68   H35   S    
Cr5   O19   S    
C3    C16   S    
C36   O11   A    
C54   C57   A    
