data_mof_unit_17996.cif
_audit_creation_date              2013-03-05T15:50:32-0500
_audit_creation_method            fapswitch 2.2
_symmetry_space_group_name_H-M    P1
_symmetry_Int_Tables_number       1
_space_group_crystal_system       triclinic
_cell_length_a                    18.922746
_cell_length_b                    7.209059
_cell_length_c                    18.025486
_cell_angle_alpha                 89.997853
_cell_angle_beta                  108.760941
_cell_angle_gamma                 89.997126
_cell_volume                      2328.30299269

loop_
_atom_site_label
_atom_site_type_symbol
_atom_site_description
_atom_site_fract_x
_atom_site_fract_y
_atom_site_fract_z
_atom_type_partial_charge
O1    O     O_R   0.562310 0.505770 0.439670 -0.581504
O2    O     O_R   0.437690 0.005770 0.560330 -0.581527
O3    O     O_R   0.411650 0.169150 0.405330 -0.536562
O4    O     O_R   0.588350 0.669150 0.594670 -0.536654
C1    C     C_R   0.384021 0.346070 0.384124 0.894990
C2    C     C_R   0.615979 0.846060 0.615880 0.895044
O5    O     O_R   0.560140 0.175610 0.430010 -0.605844
O6    O     O_R   0.439860 0.675610 0.569990 -0.605836
O7    O     O_R   0.587240 0.012100 0.585200 -0.599251
O8    O     O_R   0.412760 0.512100 0.414800 -0.599219
C3    C     C_R   0.581481 0.344344 0.415762 0.962795
C4    C     C_R   0.418527 0.844346 0.584245 0.962853
O9    O     O_3   0.508720 0.341420 0.550890 -0.281247
O10   O     O_3   0.491280 0.841420 0.449110 -0.281181
V1    V     V_3+5 0.498380 0.063930 0.490560 1.215459
V2    V     V_3+5 0.501620 0.563930 0.509440 1.215447
C5    C     C_R   0.180024 0.061275 0.863868 0.303690
C6    C     C_R   0.820091 0.561348 0.136261 0.303463
C7    C     C_R   0.129211 0.916648 0.863254 -0.294498
C8    C     C_R   0.870852 0.416654 0.136812 -0.294509
C9    C     C_R   0.125961 0.761901 0.814580 -0.186977
C10   C     C_R   0.874087 0.261863 0.185464 -0.186977
C11   C     C_R   0.173030 0.748769 0.768161 0.158463
C12   C     C_R   0.827027 0.248746 0.231896 0.158400
C13   C     C_R   0.222641 0.895088 0.768233 0.001934
C14   C     C_R   0.777454 0.395126 0.231867 0.002001
C15   C     C_R   0.225526 0.053137 0.815359 -0.037631
C16   C     C_R   0.774606 0.553231 0.184784 -0.037490
C17   C     C_R   0.171984 0.590762 0.722183 -0.169932
C18   C     C_R   0.828035 0.090689 0.277834 -0.170157
C19   C     C_R   0.220238 0.576632 0.677530 -0.224949
C20   C     C_R   0.779769 0.076559 0.322474 -0.224977
C21   C     C_R   0.270162 0.720762 0.677527 0.143798
C22   C     C_R   0.729868 0.220732 0.322504 0.143837
C23   C     C_R   0.270910 0.881355 0.722553 0.070508
C24   C     C_R   0.729172 0.381390 0.277533 0.070577
C25   C     C_R   0.320521 0.027581 0.722648 0.147439
C26   C     C_R   0.679594 0.527674 0.277472 0.147397
C27   C     C_R   0.322422 0.184577 0.768832 -0.215606
C28   C     C_R   0.677744 0.684742 0.231342 -0.215700
C29   C     C_R   0.276182 0.196541 0.815253 -0.101716
C30   C     C_R   0.723995 0.696710 0.184933 -0.101805
C31   C     C_R   0.319393 0.707387 0.633481 -0.214177
C32   C     C_R   0.680607 0.207335 0.366517 -0.214286
C33   C     C_R   0.368289 0.854426 0.632639 -0.123364
C34   C     C_R   0.631742 0.354429 0.367392 -0.123323
C35   C     C_R   0.368039 0.014181 0.677197 -0.213056
C36   C     C_R   0.632057 0.514262 0.322900 -0.212884
H1    H     H_    0.086969 0.650800 0.813199 0.169181
H2    H     H_    0.913049 0.150710 0.186806 0.169269
H3    H     H_    0.134445 0.476793 0.721506 0.144184
H4    H     H_    0.865543 0.976670 0.278478 0.144199
H5    H     H_    0.405790 0.127568 0.677492 0.145650
H6    H     H_    0.594338 0.627705 0.322637 0.145643
H7    H     H_    0.280619 0.319362 0.850919 0.196893
H8    H     H_    0.719608 0.819598 0.149312 0.196826
C37   C     C_3   0.746304 0.822403 0.835744 0.275882
C38   C     C_3   0.253713 0.322400 0.164267 0.276002
H9    H     H_    0.766827 0.684790 0.860740 0.186743
H10   H     H_    0.233230 0.184704 0.139360 0.186864
C39   C     C_3   0.676969 0.787066 0.761379 -0.420763
C40   C     C_3   0.323081 0.287296 0.238616 -0.420938
H11   H     H_    0.625786 0.850417 0.768095 0.184080
H12   H     H_    0.374195 0.350973 0.231876 0.184076
H13   H     H_    0.843248 0.654816 0.771498 0.260215
H14   H     H_    0.156751 0.154765 0.228479 0.260130
C41   C     C_3   0.826954 0.796443 0.748342 -0.582111
C42   C     C_3   0.173058 0.296370 0.251648 -0.582320
C43   C     C_3   0.781167 0.110115 0.771972 0.291133
C44   C     C_3   0.218806 0.610090 0.228027 0.291160
C45   C     C_3   0.810802 0.919924 0.812679 -0.303110
C46   C     C_3   0.189201 0.419897 0.187319 -0.303060
H15   H     H_    0.823070 0.160018 0.744936 0.092151
H16   H     H_    0.176868 0.660019 0.255013 0.091990
C47   C     C_3   0.687882 0.869151 0.686405 -0.189978
C48   C     C_3   0.312119 0.369168 0.313600 -0.189926
C49   C     C_3   0.758558 0.787548 0.671672 0.314613
C50   C     C_3   0.241463 0.287376 0.328306 0.314770
C51   C     C_3   0.706474 0.079193 0.703773 -0.424478
C52   C     C_3   0.293466 0.579196 0.296276 -0.424289
H17   H     H_    0.658607 0.148223 0.715380 0.240933
H18   H     H_    0.341332 0.648390 0.284737 0.241083
H19   H     H_    0.711901 0.144185 0.649926 0.205444
H20   H     H_    0.287969 0.644049 0.350120 0.205284
H21   H     H_    0.875766 0.853007 0.734018 0.140278
H22   H     H_    0.124255 0.352944 0.265991 0.140304
H23   H     H_    0.771784 0.876791 0.627318 0.055536
H24   H     H_    0.228224 0.376444 0.372702 0.055439
O11   O     O_R   0.087220 0.271820 0.085230 -0.578435
O12   O     O_R   0.912780 0.771820 0.914770 -0.578572
O13   O     O_R   0.939860 0.595540 0.069990 -0.572164
O14   O     O_R   0.060140 0.095540 0.930010 -0.572015
C53   C     C_R   0.919724 0.426245 0.085931 0.998328
C54   C     C_R   0.080288 0.926245 0.914082 0.998649
O15   O     O_R   0.088340 0.601930 0.094680 -0.554062
O16   O     O_R   0.911660 0.101930 0.905320 -0.554019
O17   O     O_R   0.062310 0.765410 0.939660 -0.563212
O18   O     O_R   0.937690 0.265410 0.060340 -0.563140
C55   C     C_R   0.116417 0.433199 0.117143 0.971501
C56   C     C_R   0.883585 0.933210 0.882854 0.971350
O19   O     O_3   0.991270 0.429630 0.949130 -0.264015
O20   O     O_3   0.008730 0.929630 0.050870 -0.263983
V3    V     V_3+5 0.001620 0.707150 0.009440 1.322336
V4    V     V_3+5 0.998380 0.207150 0.990560 1.322440
N1    N     N_R   0.192152 0.204200 0.921131 0.247747
O21   O     O_R   0.170688 0.373032 0.900195 -0.394024
O22   O     O_R   0.213724 0.158159 0.994627 -0.349901
N2    N     N_R   0.807913 0.704192 0.078961 0.247615
O23   O     O_R   0.829523 0.872977 0.099780 -0.393975
O24   O     O_R   0.785813 0.658130 0.005438 -0.349573
N3    N     N_R   0.724112 0.924495 0.895698 0.277756
O25   O     O_R   0.662652 0.879072 0.908965 -0.325399
O26   O     O_R   0.772818 0.022007 0.948853 -0.295578
N4    N     N_R   0.275857 0.424320 0.104241 0.277720
O27   O     O_R   0.337228 0.378556 0.090860 -0.325549
O28   O     O_R   0.227178 0.522086 0.051162 -0.295578
H25   H     H_    0.665183 0.636216 0.754596 0.235077
H26   H     H_    0.335006 0.136504 0.245389 0.235006
N5    N     N_R   0.746757 0.599913 0.639821 0.241498
O29   O     O_R   0.752082 0.565036 0.570989 -0.433318
O30   O     O_R   0.729773 0.467143 0.679373 -0.433437
N6    N     N_R   0.253309 0.099663 0.360076 0.241490
O31   O     O_R   0.247943 0.064512 0.428869 -0.433407
O32   O     O_R   0.270419 0.967124 0.320508 -0.433319
N7    N     N_R   0.773625 0.256182 0.826229 0.274707
O33   O     O_R   0.710624 0.285343 0.839063 -0.348784
O34   O     O_R   0.825314 0.381922 0.849112 -0.395288
N8    N     N_R   0.226390 0.756119 0.173773 0.274774
O35   O     O_R   0.289410 0.785189 0.160968 -0.348761
O36   O     O_R   0.174709 0.881883 0.150839 -0.395159
H27   H     H_    0.218719 0.452365 0.643233 0.149895
H28   H     H_    0.781252 0.952246 0.356733 0.149960
H29   H     H_    0.318702 0.584090 0.598816 0.139714
H30   H     H_    0.681251 0.083975 0.401129 0.139760
H31   H     H_    0.360307 0.297937 0.769686 0.153559
H32   H     H_    0.639893 0.798158 0.230523 0.153545

loop_
_geom_bond_atom_site_label_1
_geom_bond_atom_site_label_2
_geom_bond_distance
_ccdc_geom_bond_type
C38   C40   1.565732 S    
H14   C42   1.108563 S    
C8    C53   1.498941 S    
C42   H22   1.113349 S    
N3    O25   1.302284 A    
O1    C3    1.331216 A    
C52   H20   1.111915 S    
O2    C4    1.331207 A    
N8    O35   1.302444 A    
C2    O7    1.356757 A    
C9    H1    1.083867 S    
N4    O27   1.302241 A    
C2    C47   1.543536 S    
C27   C29   1.394339 A    
C27   H31   1.083959 S    
C39   C47   1.548773 S    
O5    C3    1.332455 A    
N1    O22   1.297688 A    
O11   C55   1.336156 A    
C11   C17   1.405095 A    
C23   C25   1.411249 A    
C12   C14   1.411783 A    
O15   C55   1.336917 A    
C37   H9    1.106970 S    
C45   C56   1.544510 S    
C44   N8    1.474934 S    
N2    O23   1.299994 A    
C49   N5    1.458375 S    
C31   H29   1.084185 S    
C43   C45   1.570972 S    
C29   H7    1.081519 S    
C19   H27   1.083595 S    
C30   H8    1.081501 S    
C32   C34   1.410313 A    
C51   H19   1.111879 S    
C41   C49   1.561598 S    
C44   H16   1.115453 S    
C40   H12   1.112049 S    
C19   C21   1.404353 A    
C43   H15   1.115457 S    
C25   C35   1.401027 A    
C26   C36   1.401018 A    
C42   C46   1.568037 S    
C35   H5    1.084491 S    
C33   C35   1.405000 A    
C43   N7    1.474958 S    
O6    V2    2.006408 S    
C32   H30   1.084132 S    
C40   C48   1.548765 S    
O12   C56   1.336145 A    
O15   V3    2.001738 S    
C38   H10   1.106937 S    
C6    N2    1.423770 S    
N5    O30   1.294250 A    
C42   C50   1.561583 S    
C25   C27   1.398611 A    
C34   C36   1.404949 A    
C41   H21   1.113345 S    
C44   C52   1.562354 S    
C48   C50   1.559998 S    
C5    C15   1.411983 A    
C6    C16   1.411919 A    
C52   H18   1.110731 S    
C51   H17   1.110737 S    
C4    C33   1.484368 S    
O5    V1    2.006427 S    
C54   O17   1.331748 A    
H13   C41   1.108546 S    
C39   H25   1.108970 S    
C21   C31   1.408288 A    
O4    V2    2.001863 S    
C36   H6    1.084448 S    
C18   C20   1.401700 A    
C5    N1    1.423892 S    
O13   C53   1.337051 A    
C28   H32   1.083917 S    
C15   C29   1.410254 A    
O6    C4    1.332433 A    
C39   H11   1.112039 S    
C22   C32   1.408312 A    
N3    O26   1.301441 A    
O1    V2    2.001338 S    
C37   C45   1.575788 S    
O2    V1    2.001337 S    
C47   C49   1.559993 S    
O17   V3    2.001639 S    
C7    C54   1.498940 S    
C13   C23   1.416285 A    
C14   C24   1.416283 A    
C8    C10   1.408347 A    
O19   V4    1.755980 S    
C9    C11   1.407741 A    
O11   V4    2.027396 S    
N7    O33   1.302439 A    
C10   C12   1.407785 A    
C43   C51   1.562370 S    
O4    C2    1.384763 A    
N6    O32   1.294238 A    
C24   C26   1.411200 A    
C20   H28   1.083541 S    
O3    V1    2.001755 S    
N7    O34   1.299651 A    
C17   H3    1.083638 S    
C50   H24   1.115541 S    
C18   H4    1.083595 S    
C7    C9    1.408356 A    
C48   C52   1.563206 S    
O13   V3    2.006221 S    
C28   C30   1.394338 A    
O3    C1    1.384741 A    
N8    O36   1.299653 A    
C6    C8    1.415820 A    
N4    O28   1.301408 A    
N5    O29   1.301221 A    
C37   C39   1.565853 S    
C13   C15   1.411735 A    
N1    O21   1.300028 A    
C14   C16   1.411661 A    
C10   H2    1.083837 S    
C1    C48   1.543473 S    
O16   V4    2.001844 S    
O7    V1    2.007969 S    
C1    O8    1.356764 A    
C31   C33   1.410342 A    
O8    V2    2.008024 S    
C26   C28   1.398565 A    
C38   C46   1.575784 S    
O14   C54   1.337045 A    
C37   N3    1.475753 S    
O18   V4    2.001632 S    
O16   C56   1.336916 A    
C16   C30   1.410181 A    
C21   C23   1.411360 A    
C22   C24   1.411290 A    
N2    O24   1.298108 A    
C41   C45   1.568061 S    
C11   C13   1.411824 A    
O20   V3    1.756043 S    
C50   N6    1.458348 S    
C12   C18   1.405039 A    
O12   V3    2.027327 S    
C40   H26   1.108956 S    
O14   V4    2.006211 S    
C5    C7    1.415964 A    
C49   H23   1.115548 S    
C17   C19   1.401676 A    
O9    V2    1.756333 S    
C38   N4    1.475722 S    
O10   V1    1.756397 S    
C3    C34   1.484410 S    
C44   C46   1.570974 S    
N6    O31   1.301212 A    
C47   C51   1.563283 S    
C53   O18   1.331762 A    
C20   C22   1.404313 A    
C46   C55   1.544512 S    
