data_mof_unit_21038.cif
_audit_creation_date              2012-12-11T17:07:50-0500
_audit_creation_method            fapswitch 2.2
_symmetry_space_group_name_H-M    P1
_symmetry_Int_Tables_number       1
_space_group_crystal_system       triclinic
_cell_length_a                    17.143315
_cell_length_b                    17.143315
_cell_length_c                    17.191127
_cell_angle_alpha                 90.000516
_cell_angle_beta                  90.000435
_cell_angle_gamma                 89.999939
_cell_volume                      5052.3561709

loop_
_atom_site_label
_atom_site_type_symbol
_atom_type_description
_atom_site_fract_x
_atom_site_fract_y
_atom_site_fract_z
_atom_type_partial_charge
C1    C     C_R   0.393838 0.301459 0.899417 -0.125066
C2    C     C_R   0.198537 0.893840 0.399411 -0.124428
C3    C     C_R   0.773182 0.866565 0.198170 -0.154082
C4    C     C_R   0.133435 0.226804 0.801840 -0.153954
C5    C     C_R   0.319425 0.774441 0.651502 -0.147117
C6    C     C_R   0.866561 0.773209 0.801846 -0.153848
C7    C     C_R   0.680571 0.225557 0.651499 -0.147231
C8    C     C_R   0.633434 0.273193 0.698161 -0.153923
C9    C     C_R   0.819427 0.725569 0.848507 -0.147243
C10   C     C_R   0.366558 0.726806 0.698168 -0.153999
C11   C     C_R   0.180571 0.274441 0.848502 -0.147228
C12   C     C_R   0.725550 0.819429 0.151504 -0.147198
C13   C     C_R   0.074765 0.167488 0.354029 -0.095486
C14   C     C_R   0.726808 0.366568 0.301839 -0.153888
C15   C     C_R   0.274439 0.180576 0.151500 -0.147052
C16   C     C_R   0.273223 0.633439 0.301855 -0.153811
C17   C     C_2   0.909703 0.318348 0.732696 1.052301
C18   C     C_2   0.697479 0.999916 0.793942 1.050106
C19   C     C_2   0.090289 0.681652 0.732685 1.052335
C20   C     C_2   0.302427 0.000038 0.793995 1.050042
C21   C     C_2   0.999993 0.697645 0.205962 1.049985
C22   C     C_2   0.681658 0.090301 0.267292 1.052349
C23   C     C_2   0.000052 0.302455 0.206035 1.050020
C24   C     C_R   0.801460 0.106163 0.399415 -0.125025
C25   C     C_2   0.318226 0.909696 0.267122 1.051853
C26   C     C_2   0.499897 0.802569 0.293917 1.050105
C27   C     C_2   0.181673 0.409712 0.232711 1.052257
C28   C     C_2   0.500048 0.197563 0.293992 1.050087
C29   C     C_2   0.818420 0.590287 0.232587 1.052571
C30   C     C_2   0.409707 0.181644 0.767317 1.052358
C31   C     C_2   0.197569 0.500041 0.706009 1.049975
C32   C     C_2   0.590300 0.818267 0.767181 1.052022
C33   C     C_2   0.802434 0.499956 0.706014 1.050190
C34   C     C_R   0.893838 0.198540 0.600584 -0.125073
C35   C     C_R   0.167484 0.074763 0.645974 -0.095474
C36   C     C_R   0.106161 0.801459 0.600583 -0.125084
C37   C     C_R   0.832516 0.925240 0.645973 -0.095577
C38   C     C_3   0.854490 0.363721 0.681843 -0.347180
C39   C     C_3   0.697785 0.915706 0.768712 -0.385337
C40   C     C_3   0.145504 0.636277 0.681835 -0.347141
C41   C     C_R   0.667481 0.425238 0.854025 -0.095453
C42   C     C_3   0.302174 0.084251 0.768773 -0.385439
C43   C     C_3   0.915780 0.697854 0.231183 -0.385599
C44   C     C_3   0.636286 0.145509 0.318151 -0.347177
C45   C     C_3   0.084267 0.302191 0.231251 -0.385543
C46   C     C_3   0.363625 0.854556 0.318036 -0.346960
C47   C     C_3   0.415688 0.802237 0.268686 -0.385202
C48   C     C_3   0.136290 0.354505 0.181858 -0.347121
C49   C     C_3   0.584259 0.197827 0.268765 -0.385424
C50   C     C_3   0.863775 0.645541 0.181767 -0.347238
C51   C     C_3   0.354490 0.136274 0.818167 -0.347163
C52   C     C_R   0.606161 0.698538 0.899413 -0.124619
C53   C     C_3   0.197819 0.584254 0.731231 -0.385438
C54   C     C_3   0.645466 0.863656 0.818075 -0.347025
C55   C     C_3   0.802173 0.415743 0.731233 -0.385591
C56   C     C_R   0.421640 0.669474 0.854468 -0.103455
C57   C     C_R   0.302224 0.392316 0.897398 -0.128938
C58   C     C_R   0.578356 0.330530 0.854465 -0.103465
C59   C     C_R   0.697777 0.607682 0.897399 -0.129221
C60   C     C_R   0.392315 0.302224 0.102600 -0.129105
C61   C     C_R   0.330532 0.578360 0.145536 -0.103452
C62   C     C_R   0.607686 0.697776 0.102600 -0.128924
C63   C     C_R   0.332512 0.574765 0.854028 -0.095446
C64   C     C_R   0.669467 0.421645 0.145536 -0.103506
C65   C     C_R   0.892318 0.197776 0.397397 -0.129006
C66   C     C_R   0.830529 0.921643 0.354466 -0.103548
C67   C     C_R   0.107681 0.802223 0.397398 -0.129160
C68   C     C_R   0.169476 0.078361 0.354468 -0.103380
C69   C     C_R   0.921641 0.830531 0.645535 -0.103480
C70   C     C_R   0.802224 0.107684 0.602601 -0.129014
C71   C     C_R   0.078357 0.169470 0.645535 -0.103480
C72   C     C_R   0.197776 0.892315 0.602601 -0.129069
C73   C     C_R   0.316561 0.314244 0.882042 0.111416
C74   C     C_R   0.425242 0.667484 0.145973 -0.095654
C75   C     C_R   0.636382 0.365695 0.809571 0.064505
C76   C     C_R   0.683437 0.685751 0.882039 0.111846
C77   C     C_R   0.363611 0.634308 0.809576 0.064607
C78   C     C_R   0.365701 0.636387 0.190426 0.064532
C79   C     C_R   0.685760 0.683439 0.117955 0.111149
C80   C     C_R   0.634303 0.363619 0.190429 0.064504
C81   C     C_R   0.314244 0.316564 0.117958 0.111503
C82   C     C_R   0.865692 0.863615 0.309573 0.064593
C83   C     C_R   0.185750 0.816563 0.382038 0.112008
C84   C     C_R   0.134310 0.136390 0.309578 0.064595
C85   C     C_R   0.698543 0.606163 0.100579 -0.125363
C86   C     C_R   0.814246 0.183439 0.382039 0.111471
C87   C     C_R   0.816562 0.185756 0.617959 0.111451
C88   C     C_R   0.136384 0.134304 0.690428 0.064564
C89   C     C_R   0.183437 0.814243 0.617958 0.111430
C90   C     C_R   0.863614 0.865698 0.690426 0.064534
C91   C     C_R   0.733843 0.370106 0.700690 0.161229
C92   C     C_R   0.718694 0.822390 0.843224 0.027063
C93   C     C_R   0.266149 0.629894 0.700694 0.161174
C94   C     C_R   0.281274 0.177585 0.843280 0.026973
C95   C     C_R   0.822431 0.718748 0.156683 0.026867
C96   C     C_R   0.574761 0.332519 0.145975 -0.095478
C97   C     C_R   0.629896 0.266157 0.299308 0.161129
C98   C     C_R   0.177589 0.281285 0.156733 0.027008
C99   C     C_R   0.370095 0.733890 0.299265 0.160790
C100  C     C_R   0.322381 0.781322 0.343201 0.027058
C101  C     C_R   0.129897 0.233858 0.200704 0.161235
C102  C     C_R   0.677592 0.218726 0.343271 0.027037
C103  C     C_R   0.870113 0.766176 0.200669 0.161343
C104  C     C_R   0.233844 0.129892 0.799311 0.161163
C105  C     C_R   0.218722 0.677586 0.656722 0.026899
C106  C     C_R   0.766125 0.870096 0.799277 0.160934
C107  C     C_R   0.301460 0.393840 0.100583 -0.125021
C108  C     C_R   0.781273 0.322413 0.656723 0.027097
C109  C     C_R   0.664952 0.340318 0.733169 0.047274
C110  C     C_R   0.740683 0.745585 0.861040 0.054326
C111  C     C_R   0.335039 0.659683 0.733175 0.047314
C112  C     C_R   0.259307 0.254408 0.861059 0.054235
C113  C     C_R   0.745596 0.740699 0.138929 0.054168
C114  C     C_R   0.659682 0.335050 0.266831 0.047345
C115  C     C_R   0.254408 0.259313 0.138945 0.054132
C116  C     C_R   0.340329 0.664971 0.266822 0.047323
C117  C     C_R   0.245584 0.759322 0.361033 0.054390
C118  C     C_R   0.925234 0.832513 0.354026 -0.095318
C119  C     C_R   0.159684 0.164965 0.233179 0.047213
C120  C     C_R   0.754413 0.240693 0.361053 0.054267
C121  C     C_R   0.840315 0.835052 0.233167 0.047394
C122  C     C_R   0.164954 0.159680 0.766831 0.047342
C123  C     C_R   0.240690 0.754408 0.638942 0.054176
C124  C     C_R   0.835034 0.840322 0.766822 0.047308
C125  C     C_R   0.759307 0.245591 0.638943 0.054196
C126  C     C_R   0.225578 0.680573 0.348513 -0.147323
C127  C     C_R   0.226804 0.133444 0.198166 -0.153965
C128  C     C_R   0.774445 0.319430 0.348499 -0.147265
H1    H     H_    0.421331 0.245614 0.908844 0.084362
H2    H     H_    0.254384 0.921342 0.408809 0.083917
H3    H     H_    0.031597 0.209060 0.336511 0.101879
H4    H     H_    0.745614 0.078670 0.408838 0.084317
H5    H     H_    0.921331 0.254386 0.591160 0.084354
H6    H     H_    0.209055 0.031593 0.663492 0.101887
H7    H     H_    0.078667 0.745614 0.591156 0.084350
H8    H     H_    0.790947 0.968411 0.663494 0.101913
H9    H     H_    0.883568 0.394107 0.632467 0.150534
H10   H     H_    0.687605 0.908309 0.705233 0.133830
H11   H     H_    0.116430 0.605892 0.632456 0.150588
H12   H     H_    0.709049 0.468410 0.836504 0.101807
H13   H     H_    0.312389 0.091648 0.705300 0.134002
H14   H     H_    0.908385 0.687610 0.294651 0.134109
H15   H     H_    0.605906 0.116429 0.367528 0.150526
H16   H     H_    0.091671 0.312398 0.294724 0.133988
H17   H     H_    0.393965 0.883695 0.367404 0.150388
H18   H     H_    0.408290 0.812401 0.205204 0.133729
H19   H     H_    0.105905 0.383588 0.132485 0.150578
H20   H     H_    0.591656 0.187622 0.205291 0.134029
H21   H     H_    0.894178 0.616500 0.132381 0.150688
H22   H     H_    0.383564 0.105890 0.867546 0.150590
H23   H     H_    0.578661 0.754384 0.908819 0.084061
H24   H     H_    0.187600 0.591651 0.794703 0.133977
H25   H     H_    0.616348 0.894011 0.867446 0.150449
H26   H     H_    0.812377 0.408341 0.794707 0.134059
H27   H     H_    0.459177 0.717156 0.838124 0.132802
H28   H     H_    0.245726 0.419847 0.902023 0.091207
H29   H     H_    0.540816 0.282853 0.838122 0.133194
H30   H     H_    0.754275 0.580151 0.902022 0.091317
H31   H     H_    0.419846 0.245726 0.097976 0.091309
H32   H     H_    0.282853 0.540823 0.161882 0.133187
H33   H     H_    0.580155 0.754274 0.097971 0.091226
H34   H     H_    0.290938 0.531597 0.836511 0.101922
H35   H     H_    0.717139 0.459187 0.161879 0.133474
H36   H     H_    0.919850 0.254274 0.402023 0.091233
H37   H     H_    0.782853 0.959185 0.338124 0.133135
H38   H     H_    0.080151 0.745724 0.402018 0.091228
H39   H     H_    0.217163 0.040826 0.338125 0.132615
H40   H     H_    0.959179 0.782853 0.661879 0.133215
H41   H     H_    0.745726 0.080153 0.597975 0.091247
H42   H     H_    0.040817 0.217146 0.661878 0.133193
H43   H     H_    0.254274 0.919846 0.597976 0.091249
H44   H     H_    0.169737 0.657506 0.366451 0.148257
H45   H     H_    0.468414 0.709053 0.163494 0.101962
H46   H     H_    0.247887 0.076607 0.214268 0.176332
H47   H     H_    0.830303 0.342482 0.366408 0.148255
H48   H     H_    0.752086 0.923395 0.214282 0.176325
H49   H     H_    0.076595 0.247889 0.785742 0.176285
H50   H     H_    0.342479 0.830298 0.633595 0.148367
H51   H     H_    0.923411 0.752136 0.785764 0.176252
H52   H     H_    0.657519 0.169699 0.633591 0.148314
H53   H     H_    0.576595 0.252106 0.714259 0.176278
H54   H     H_    0.842489 0.669722 0.866436 0.148333
H55   H     H_    0.423395 0.747892 0.714272 0.176318
H56   H     H_    0.754387 0.578674 0.091138 0.084565
H57   H     H_    0.157518 0.330298 0.866410 0.148276
H58   H     H_    0.669685 0.842475 0.133612 0.148331
H59   H     H_    0.747895 0.423408 0.285744 0.176240
H60   H     H_    0.330294 0.157520 0.133587 0.148431
H61   H     H_    0.252159 0.576584 0.285781 0.176236
H62   H     H_    0.926215 0.230585 0.809121 0.318085
H63   H     H_    0.756810 0.090776 0.839332 0.340094
H64   H     H_    0.073775 0.769406 0.809119 0.318066
H65   H     H_    0.243024 0.909199 0.839327 0.340094
H66   H     H_    0.090823 0.757125 0.160705 0.340173
H67   H     H_    0.531590 0.290950 0.163495 0.101836
H68   H     H_    0.769437 0.073786 0.190889 0.318095
H69   H     H_    0.909204 0.243068 0.160692 0.340130
H70   H     H_    0.230156 0.926191 0.191040 0.318126
H71   H     H_    0.590786 0.743253 0.339264 0.340063
H72   H     H_    0.269462 0.426219 0.309107 0.318066
H73   H     H_    0.409230 0.256911 0.339435 0.340076
H74   H     H_    0.730820 0.573754 0.309188 0.318059
H75   H     H_    0.426225 0.269396 0.690884 0.318079
H76   H     H_    0.257009 0.409177 0.660768 0.340127
H77   H     H_    0.573794 0.730296 0.690989 0.318110
H78   H     H_    0.245614 0.421335 0.091160 0.084333
H79   H     H_    0.743096 0.590763 0.660520 0.340123
H80   H     H_    0.968401 0.790940 0.336509 0.101888
N1    N     N_R   0.425360 0.368540 0.922560 -0.044120
N2    N     N_R   0.131460 0.925360 0.422560 -0.044162
N3    N     N_R   0.074640 0.131460 0.422560 -0.046867
N4    N     N_R   0.868540 0.074640 0.422560 -0.044116
N5    N     N_R   0.925360 0.131460 0.577440 -0.044119
N6    N     N_R   0.131460 0.074640 0.577440 -0.046873
N7    N     N_R   0.074640 0.868540 0.577440 -0.044119
N8    N     N_R   0.868540 0.925360 0.577440 -0.046855
N9    N     N_R   0.425340 0.631500 0.922560 -0.046798
N10   N     N_R   0.368500 0.425340 0.922560 -0.043599
N11   N     N_R   0.574660 0.368500 0.922560 -0.046795
N12   N     N_R   0.631460 0.425360 0.922560 -0.046842
N13   N     N_R   0.631500 0.574660 0.922560 -0.043610
N14   N     N_R   0.425340 0.368500 0.077440 -0.043605
N15   N     N_R   0.368500 0.574660 0.077440 -0.046793
N16   N     N_R   0.574660 0.631500 0.077440 -0.043592
N17   N     N_R   0.631500 0.425340 0.077440 -0.046793
N18   N     N_R   0.925340 0.131500 0.422560 -0.043596
N19   N     N_R   0.868500 0.925340 0.422560 -0.046793
N20   N     N_R   0.074660 0.868500 0.422560 -0.043618
N21   N     N_R   0.131500 0.074660 0.422560 -0.046796
N22   N     N_R   0.925340 0.868500 0.577440 -0.046791
N23   N     N_R   0.574640 0.631460 0.922560 -0.044150
N24   N     N_R   0.868500 0.074660 0.577440 -0.043597
N25   N     N_R   0.074660 0.131500 0.577440 -0.046794
N26   N     N_R   0.131500 0.925340 0.577440 -0.043606
N27   N     N_R   0.368540 0.574640 0.922560 -0.046879
N28   N     N_R   0.425360 0.631460 0.077440 -0.046864
N29   N     N_R   0.631460 0.574640 0.077440 -0.044100
N30   N     N_R   0.574640 0.368540 0.077440 -0.046851
N31   N     N_R   0.368540 0.425360 0.077440 -0.044128
N32   N     N_R   0.925360 0.868540 0.422560 -0.046876
Ni1   Ni    Ni4+2 0.500000 0.369720 0.000000 0.225825
Ni2   Ni    Ni4+2 0.630280 0.500000 0.000000 0.225854
Ni3   Ni    Ni4+2 0.500000 0.630280 0.000000 0.225744
Ni4   Ni    Ni4+2 0.369720 0.500000 0.000000 0.225797
Ni5   Ni    Ni4+2 0.000000 0.869720 0.500000 0.225803
Ni6   Ni    Ni4+2 0.130280 0.000000 0.500000 0.225734
Ni7   Ni    Ni4+2 0.000000 0.130280 0.500000 0.225809
Ni8   Ni    Ni4+2 0.869720 0.000000 0.500000 0.225802
O1    O     O_2   0.977676 0.339218 0.736692 -0.632452
O2    O     O_R   0.033640 0.764607 0.173786 -0.789701
O3    O     O_2   0.660765 0.022340 0.263262 -0.632381
O4    O     O_R   0.744562 0.116874 0.222743 -0.792064
O5    O     O_2   0.960798 0.361209 0.215635 -0.589450
O6    O     O_R   0.966389 0.235549 0.173752 -0.789712
O7    O     O_2   0.339396 0.977553 0.262642 -0.631929
O8    O     O_R   0.254997 0.883157 0.222994 -0.792142
O9    O     O_2   0.539102 0.861358 0.284343 -0.589337
O10   O     O_R   0.533612 0.735686 0.326188 -0.789792
O11   O     O_2   0.160791 0.477679 0.236737 -0.632442
O12   O     O_R   0.883122 0.255464 0.777275 -0.792032
O13   O     O_R   0.244579 0.383131 0.277259 -0.792059
O14   O     O_2   0.460774 0.138837 0.284330 -0.589561
O15   O     O_R   0.466412 0.264431 0.326368 -0.789730
O16   O     O_2   0.839141 0.522262 0.236338 -0.632690
O17   O     O_R   0.755713 0.616877 0.277396 -0.792009
O18   O     O_2   0.477680 0.160781 0.763334 -0.632425
O19   O     O_R   0.383131 0.244517 0.722725 -0.792071
O20   O     O_2   0.138790 0.460805 0.715499 -0.589471
O21   O     O_R   0.264520 0.466359 0.673845 -0.789764
O22   O     O_2   0.522409 0.839343 0.762855 -0.632106
O23   O     O_2   0.638713 0.039148 0.784331 -0.589383
O24   O     O_R   0.616847 0.755148 0.722909 -0.792105
O25   O     O_2   0.861139 0.539242 0.715723 -0.589563
O26   O     O_R   0.735585 0.533578 0.673582 -0.789679
O27   O     O_R   0.764359 0.033598 0.826258 -0.789740
O28   O     O_2   0.022314 0.660792 0.736667 -0.632455
O29   O     O_R   0.116869 0.744524 0.777277 -0.792058
O30   O     O_2   0.361179 0.960782 0.784426 -0.589529
O31   O     O_R   0.235513 0.966381 0.826255 -0.789749
O32   O     O_2   0.039259 0.638887 0.215461 -0.589538

loop_
_geom_bond_atom_site_label_1
_geom_bond_atom_site_label_2
_ccdc_geom_bond_type
C44   C49   S    
C33   C55   S    
C55   H26   S    
C30   C51   S    
C81   C107  A    
H65   O31   S    
C23   C45   S    
C6    H51   S    
C39   C106  S    
C29   O17   S    
C13   N3    A    
C32   O22   D    
C20   O31   S    
C6    C124  A    
C4    H49   S    
N4    Ni8   S    
C81   C115  S    
C46   H17   S    
N9    N27   A    
C54   H25   S    
N9    Ni3   S    
N2    N20   A    
C25   O7    D    
C63   N27   A    
C14   C128  A    
C65   C86   A    
C22   O4    S    
C13   C84   A    
C86   C120  S    
C63   H34   S    
C33   O25   D    
N29   Ni2   S    
C3    H48   S    
N1    N10   A    
N28   Ni3   S    
C70   H41   S    
C20   O30   D    
C18   O27   S    
C1    H1    S    
C44   H15   S    
C36   N7    A    
C52   N23   A    
C72   C89   A    
C59   H30   S    
C50   C95   S    
C39   C54   S    
C104  C122  A    
C57   N10   A    
C57   C73   A    
C27   O13   S    
C40   H11   S    
N14   N31   A    
C29   O16   D    
C47   C99   S    
C105  C123  A    
N5    Ni7   S    
C35   C88   A    
N3    Ni7   S    
C77   C111  S    
C56   N9    A    
C107  H78   S    
C55   C91   S    
C9    H54   S    
C59   N13   A    
C93   C105  A    
N19   Ni8   S    
C21   C43   S    
C25   O8    S    
C96   H67   S    
C22   C44   S    
C38   C55   S    
C99   C100  A    
C51   H22   S    
C72   N26   A    
C41   H12   S    
C26   O10   S    
C66   N19   A    
C31   O21   S    
C45   H16   S    
N8    N22   A    
C60   H31   S    
C53   H24   S    
N31   Ni4   S    
C30   O18   D    
N10   Ni4   S    
C108  C125  A    
C80   C96   A    
N16   N29   A    
C61   C78   A    
C82   C121  S    
C97   C102  A    
C66   H37   S    
C23   O5    D    
H64   O29   S    
C29   C50   S    
N4    N18   A    
H76   O21   S    
C127  H46   S    
C3    C12   A    
H77   O24   S    
C94   C104  A    
C32   O24   S    
C15   C127  A    
N17   N30   A    
C64   C80   A    
H68   O4    S    
C2    C83   A    
N7    N26   A    
C96   N30   A    
C6    C9    A    
C56   H27   S    
C70   C87   A    
C16   C116  A    
C35   H6    S    
H63   O27   S    
C18   O23   D    
C35   N6    A    
N14   Ni1   S    
C95   C103  A    
C58   C75   A    
H79   O26   S    
C43   C103  S    
N13   Ni2   S    
C94   C112  A    
C24   N4    A    
C5    H50   S    
C57   H28   S    
C5    C123  A    
C2    N2    A    
C75   C109  S    
C64   H35   S    
C1    N1    A    
C68   C84   A    
C72   H43   S    
H62   O12   S    
C62   C79   A    
N18   Ni7   S    
C126  H44   S    
C74   H45   S    
C88   C122  S    
C16   H61   S    
C21   O32   D    
N1    Ni1   S    
C21   O2    S    
C44   C102  S    
C91   C109  A    
N25   Ni7   S    
N20   Ni5   S    
C89   C123  S    
C34   H5    S    
N17   Ni2   S    
C14   C114  A    
N12   Ni2   S    
C65   N18   A    
C58   H29   S    
C7    C125  A    
C56   C77   A    
N11   Ni1   S    
C49   H20   S    
C42   C104  S    
N24   Ni8   S    
C28   C49   S    
C101  C119  A    
C43   H14   S    
C118  H80   S    
C18   C39   S    
C61   N15   A    
C54   C92   S    
C10   H55   S    
C66   C82   A    
C60   C81   A    
C24   H4    S    
C19   O28   D    
N30   Ni1   S    
N15   Ni4   S    
C12   H58   S    
N13   N23   A    
C42   H13   S    
H66   O2    S    
C13   H3    S    
C71   H42   S    
C4    C122  A    
C10   C111  A    
N6    Ni6   S    
C8    H53   S    
C67   C83   A    
C31   C53   S    
C4    C11   A    
C43   C50   S    
N22   Ni5   S    
N5    N24   A    
C45   C101  S    
C41   C75   A    
C93   C111  A    
C58   N11   A    
N21   Ni6   S    
C26   C47   S    
C67   H38   S    
C92   C106  A    
C19   O29   S    
C80   C114  S    
H69   O6    S    
N7    Ni5   S    
C85   H56   S    
C62   N16   A    
C79   C113  S    
C36   C89   A    
C74   C78   A    
N32   Ni5   S    
N15   N28   A    
C15   C115  A    
C61   H32   S    
N6    N25   A    
N2    Ni6   S    
C74   N28   A    
C69   C90   A    
C103  C121  A    
C36   H7    S    
C99   C116  A    
C41   N12   A    
C102  C120  A    
C68   N21   A    
C73   C112  S    
C12   C113  A    
C63   C77   A    
C45   C48   S    
C118  N32   A    
C9    C110  A    
N11   N12   A    
C46   C100  S    
C46   C47   S    
C128  H47   S    
C37   H8    S    
N3    N21   A    
C87   C125  S    
C37   C90   A    
C11   C112  A    
C11   H57   S    
C90   C124  S    
C91   C108  A    
C37   N8    A    
C78   C116  S    
H73   O15   S    
C52   C76   A    
C34   N5    A    
C60   N14   A    
C84   C119  S    
C20   C42   S    
C27   O11   D    
C120  C128  A    
N16   Ni3   S    
C30   O19   S    
N8    Ni8   S    
C28   O15   S    
C48   C98   S    
C15   H60   S    
C42   C51   S    
C32   C54   S    
C98   C101  A    
C39   H10   S    
C1    C73   A    
C83   C117  S    
C69   H40   S    
C64   N17   A    
C5    C10   A    
H75   O19   S    
C69   N22   A    
N26   Ni6   S    
H71   O10   S    
C14   H59   S    
C50   H21   S    
C92   C110  A    
C98   C115  A    
C26   O9    D    
C107  N31   A    
C67   N20   A    
C95   C113  A    
C52   H23   S    
C28   O14   D    
N19   N32   A    
C25   C46   S    
C65   H36   S    
C17   O1    D    
C2    H2    S    
C79   C85   A    
C23   O6    S    
C7    H52   S    
C31   O20   D    
C85   N29   A    
C34   C87   A    
C71   N25   A    
C27   C48   S    
C38   C108  S    
H74   O17   S    
C70   N24   A    
N27   Ni4   S    
C47   H18   S    
C7    C8    A    
C19   C40   S    
C51   C94   S    
C49   C97   S    
C71   C88   A    
C62   H33   S    
C68   H39   S    
N23   Ni3   S    
C22   O3    D    
C38   H9    S    
C17   C38   S    
H72   O13   S    
C76   C110  S    
C40   C53   S    
C33   O26   S    
C106  C124  A    
C82   C118  A    
C40   C105  S    
C117  C126  A    
H70   O8    S    
C100  C117  A    
C97   C114  A    
C8    C109  A    
C24   C86   A    
C59   C76   A    
C16   C126  A    
C53   C93   S    
C3    C121  A    
C17   O12   S    
C48   H19   S    
C119  C127  A    
