data_mof_unit_22382.cif
_audit_creation_date              2013-03-05T15:45:32-0500
_audit_creation_method            fapswitch 2.2
_symmetry_space_group_name_H-M    P1
_symmetry_Int_Tables_number       1
_space_group_crystal_system       triclinic
_cell_length_a                    27.602657
_cell_length_b                    10.713892
_cell_length_c                    10.059111
_cell_angle_alpha                 88.130556
_cell_angle_beta                  91.162799
_cell_angle_gamma                 89.97054
_cell_volume                      2972.60221394

loop_
_atom_site_label
_atom_site_type_symbol
_atom_site_description
_atom_site_fract_x
_atom_site_fract_y
_atom_site_fract_z
_atom_type_partial_charge
O1    O     O_R   0.499990 0.319060 0.613040 -0.639913
O2    O     O_R   0.500010 0.319100 0.386900 -0.622966
C1    C     C_R   0.496225 0.262662 0.501698 0.820293
O3    O     O_R   0.428750 0.500000 0.613050 -0.594500
O4    O     O_R   0.428760 0.500040 0.386920 -0.554419
C2    C     C_R   0.406236 0.498669 0.498724 0.958344
Zn1   Zn    Zn3+2 0.499990 0.499970 0.650990 0.955798
Zn2   Zn    Zn3+2 0.500010 0.500030 0.349010 1.036693
O5    O     O_R   0.499990 0.680900 0.613100 -0.608019
O6    O     O_R   0.500010 0.680940 0.386960 -0.557106
O7    O     O_R   0.571240 0.499960 0.613080 -0.652670
O8    O     O_R   0.571250 0.500000 0.386950 -0.565775
C3    C     C_R   0.500072 0.737361 0.497628 0.960978
C4    C     C_R   0.593978 0.501075 0.501370 0.917486
C5    C     C_R   0.179927 0.494436 0.617028 0.496057
O9    O     O_2   0.206369 0.430356 0.710798 -0.563241
N1    N     N_R   0.202350 0.551331 0.511637 -0.338934
C6    C     C_R   0.177282 0.620905 0.417258 0.546964
C7    C     C_R   0.283253 0.626919 0.553800 -0.251838
C8    C     C_R   0.333383 0.614362 0.552191 0.397128
C9    C     C_R   0.324033 0.415532 0.438224 0.046236
C10   C     C_R   0.272894 0.430206 0.439970 0.188302
C11   C     C_R   0.253405 0.536345 0.499806 0.218479
C12   C     C_R   0.102567 0.568003 0.527580 -0.056504
C13   C     C_R   0.129550 0.500316 0.626214 -0.008308
C14   C     C_R   0.105767 0.438224 0.730102 -0.137388
C15   C     C_R   0.126765 0.630238 0.423191 -0.077081
C16   C     C_R   0.353637 0.508656 0.495781 -0.130093
H1    H     H_    0.125821 0.388261 0.808810 0.188450
C17   C     C_R   0.646758 0.512999 0.506034 -0.129435
C18   C     C_R   0.976587 0.487897 0.625076 0.049361
C19   C     C_R   0.973726 0.655392 0.451385 0.057819
C20   C     C_R   0.949818 0.569785 0.538115 0.057726
C21   C     C_R   0.951436 0.396537 0.701042 -0.212968
C22   C     C_R   0.901270 0.388816 0.694240 -0.131933
C23   C     C_R   0.874524 0.473368 0.613607 -0.020362
C24   C     C_R   0.898630 0.565754 0.537387 -0.052306
C25   C     C_R   0.871542 0.653422 0.459519 -0.024073
C26   C     C_R   0.820949 0.645282 0.457090 0.512058
N2    N     N_R   0.798511 0.552374 0.528686 -0.349224
C27   C     C_R   0.823986 0.466998 0.605898 0.497959
C28   C     C_R   0.718497 0.591593 0.622066 0.211494
C29   C     C_R   0.668228 0.574909 0.613161 -0.299211
C30   C     C_R   0.675525 0.466513 0.405051 0.430170
C31   C     C_R   0.725811 0.481778 0.414257 -0.240546
C32   C     C_R   0.747002 0.542861 0.521454 0.225267
O10   O     O_2   0.800338 0.376305 0.674591 -0.560438
C33   C     C_R   0.027567 0.498320 0.631315 0.070322
C34   C     C_R   0.051460 0.571448 0.532332 0.001651
C35   C     C_R   0.024612 0.645062 0.436453 -0.011335
C36   C     C_R   0.055587 0.436632 0.732468 -0.210445
H2    H     H_    0.645136 0.611369 0.688255 0.190840
H3    H     H_    0.883535 0.316204 0.752790 0.190682
H4    H     H_    0.969769 0.326253 0.762628 0.145826
H5    H     H_    0.039566 0.388164 0.816338 0.146080
O11   O     O_2   0.201205 0.679482 0.317551 -0.559820
C37   C     C_R   0.100159 0.694933 0.323636 -0.254225
H6    H     H_    0.266966 0.707033 0.598534 0.153323
H7    H     H_    0.118718 0.738078 0.240127 0.188642
C38   C     C_R   0.945782 0.749750 0.385143 -0.127280
C39   C     C_R   0.895485 0.747790 0.387797 -0.167470
O12   O     O_2   0.794314 0.728744 0.383527 -0.556703
C40   C     C_R   0.049429 0.700464 0.326580 0.426122
H8    H     H_    0.962080 0.828951 0.334506 0.204450
H9    H     H_    0.875464 0.820333 0.332882 0.194347
H10   H     H_    0.748880 0.445260 0.338764 0.147569
C41   C     C_2   0.480980 0.935813 0.390491 0.514386
C42   C     C_2   0.502459 0.869651 0.490543 -0.267792
H11   H     H_    0.523183 0.913580 0.569206 0.142779
C43   C     C_2   0.486000 0.070460 0.390636 -0.342208
C44   C     C_2   0.483612 0.131776 0.504310 0.240736
H12   H     H_    0.494263 0.117314 0.296356 0.149977
C45   C     C_2   0.469100 0.555648 0.925054 -0.155084
N3    N     N_2   0.500520 0.501330 0.852150 -0.094355
H13   H     H_    0.443612 0.620011 0.875998 0.169029
C46   C     C_2   0.463427 0.528126 0.071780 0.483084
N4    N     N_2   0.500540 0.501360 0.147810 -0.193968
H14   H     H_    0.533388 0.530116 0.111470 0.137147
C47   C     C_3   0.347024 0.297717 0.385863 -0.432035
C48   C     C_3   0.357070 0.202235 0.498961 -0.820953
H15   H     H_    0.382685 0.241067 0.573392 0.253036
H16   H     H_    0.322878 0.175939 0.548932 0.265605
H17   H     H_    0.373345 0.116939 0.458598 0.279326
H18   H     H_    0.324167 0.253801 0.308899 0.227009
H19   H     H_    0.381191 0.318876 0.334017 0.237951
O13   O     O_3   0.654108 0.404462 0.300919 -0.753118
H20   H     H_    0.679568 0.378248 0.239458 0.333971
O14   O     O_3   0.023881 0.748405 0.216803 -0.787280
H21   H     H_    0.046663 0.781501 0.149332 0.336649
O15   O     O_3   0.456297 0.878367 0.288203 -0.724557
H22   H     H_    0.443095 0.944283 0.226052 0.331100
C49   C     C_3   0.238815 0.334365 0.380110 -0.411805
C50   C     C_3   0.231486 0.358883 0.230609 -0.803952
H23   H     H_    0.212886 0.449712 0.211335 0.288144
H24   H     H_    0.266605 0.360777 0.178848 0.262299
H25   H     H_    0.208598 0.284019 0.188609 0.250682
H26   H     H_    0.252182 0.237899 0.400579 0.217488
H27   H     H_    0.202730 0.335558 0.426377 0.211601
O16   O     O_3   0.465821 0.072476 0.617930 -0.773789
H28   H     H_    0.462827 0.133240 0.689077 0.347035
C51   C     C_3   0.524333 0.384688 0.896970 -0.173151
C52   C     C_3   0.488085 0.279153 0.925065 -0.847459
H29   H     H_    0.474035 0.283788 0.027263 0.245352
H30   H     H_    0.457077 0.285110 0.853146 0.264611
H31   H     H_    0.506299 0.187378 0.916674 0.240530
H32   H     H_    0.547887 0.354892 0.816051 0.228198
H33   H     H_    0.550444 0.394822 0.980135 0.141414
O17   O     O_3   0.418288 0.533751 0.127292 -0.716350
H34   H     H_    0.394193 0.553186 0.055142 0.322125
C53   C     C_3   0.743078 0.660431 0.735159 -0.379339
C54   C     C_3   0.709325 0.716408 0.836272 -0.849371
H35   H     H_    0.684235 0.785092 0.786409 0.260904
H36   H     H_    0.688448 0.641641 0.888398 0.262754
H37   H     H_    0.731239 0.765811 0.911942 0.267749
H38   H     H_    0.768172 0.595211 0.790200 0.230747
H39   H     H_    0.765093 0.737793 0.691639 0.218505
O18   O     O_3   0.363480 0.704409 0.604543 -0.742875
H40   H     H_    0.343485 0.772438 0.639518 0.341133

loop_
_geom_bond_atom_site_label_1
_geom_bond_atom_site_label_2
_geom_bond_distance
_ccdc_geom_bond_type
C51   H33   1.101188 S    
C50   H23   1.109638 S    
C40   O14   1.382577 S    
C22   H3    1.083479 S    
C45   N3    1.296827 D    
C1    C44   1.444580 S    
C54   H35   1.110855 S    
C12   C15   1.405900 A    
C49   H27   1.108182 S    
N4    H14   1.028129 S    
Zn1   O7    2.010903 S    
N1    C11   1.426108 S    
C23   C24   1.407901 A    
C48   H17   1.110399 S    
O4    C2    1.295728 A    
O7    C4    1.297889 A    
C29   H2    1.080733 S    
C5    C13   1.397006 A    
C5    O9    1.350198 S    
C12   C34   1.412972 A    
O17   H34   0.991394 S    
C52   H31   1.110564 S    
C5    N1    1.365062 A    
C21   C22   1.387658 A    
C28   C32   1.407936 A    
O5    C3    1.292043 A    
C53   C54   1.529684 S    
C33   C36   1.412094 A    
C2    C16   1.455377 S    
C7    C8    1.390660 A    
C42   H11   1.086773 S    
C18   C20   1.415592 A    
C43   C44   1.339941 D    
C6    O11   1.349855 S    
C25   C39   1.397118 A    
C46   O17   1.377749 S    
C9    C10   1.420746 A    
C35   C40   1.425285 A    
C45   H13   1.084993 S    
C17   C30   1.405619 A    
C23   C27   1.397391 A    
C4    C17   1.462470 S    
O3    Zn1   1.995486 S    
C30   O13   1.381791 S    
C8    O18   1.383627 S    
C49   H26   1.108762 S    
C37   C40   1.402468 A    
Zn1   N3    2.023775 S    
C7    H6    1.083667 S    
C25   C26   1.399037 A    
C41   C42   1.340035 D    
C51   C52   1.533371 S    
C46   N4    1.292338 D    
O3    C2    1.296537 A    
C15   C37   1.395348 A    
C26   N2    1.365678 A    
O13   H20   0.991831 S    
C8    C16   1.404033 A    
C13   C14   1.395888 A    
C31   C32   1.397855 A    
C44   O16   1.388080 S    
C41   O15   1.383817 S    
C20   C24   1.413498 A    
C38   C39   1.389310 A    
O1    C1    1.292207 A    
C22   C23   1.396632 A    
C7    C11   1.390135 A    
C24   C25   1.407940 A    
O16   H28   0.987724 S    
Zn2   O8    1.995489 S    
C9    C47   1.526299 S    
N1    C6    1.364685 A    
C27   O10   1.350128 S    
C18   C21   1.413304 A    
C54   H36   1.110862 S    
C12   C13   1.409807 A    
C52   H30   1.109870 S    
C19   C38   1.412544 A    
C19   C35   1.420273 A    
N3    C51   1.465398 S    
C48   H16   1.110432 S    
N2    C27   1.365733 A    
C9    C16   1.420474 A    
O8    C4    1.299992 A    
C21   H4    1.078583 S    
C50   H25   1.110294 S    
C18   C33   1.411950 A    
Zn2   N4    2.023829 S    
C45   C46   1.506947 S    
C17   C29   1.404812 A    
C28   C29   1.400574 A    
N2    C32   1.426039 S    
C53   H39   1.111540 S    
C47   H19   1.106925 S    
C30   C31   1.399262 A    
C51   H32   1.106964 S    
Zn1   O5    1.963341 S    
C26   O12   1.349728 S    
C33   C34   1.420020 A    
O1    Zn1   1.987667 S    
Zn2   O6    1.987666 S    
O2    Zn2   1.963342 S    
C6    C15   1.400543 A    
C48   H15   1.110268 S    
O6    C3    1.283940 A    
O4    Zn2   2.010900 S    
C38   H8    1.078595 S    
C41   C43   1.449347 S    
C19   C20   1.417614 A    
O2    C1    1.292069 A    
C28   C53   1.523950 S    
C14   C36   1.385885 A    
O15   H22   0.992008 S    
C47   H18   1.105927 S    
C49   C50   1.527518 S    
C54   H37   1.110570 S    
C36   H5    1.078781 S    
C52   H29   1.108681 S    
C37   H7    1.083572 S    
C47   C48   1.525986 S    
C39   H9    1.083396 S    
O14   H21   0.991799 S    
C14   H1    1.083543 S    
C50   H24   1.109535 S    
C34   C35   1.422037 A    
C31   H10   1.083498 S    
C10   C49   1.523187 S    
C10   C11   1.414905 A    
C43   H12   1.086859 S    
O18   H40   0.991876 S    
C53   H38   1.110531 S    
C3    C42   1.418441 S    
