data_mof_unit_39286.cif
_audit_creation_date              2012-10-26T20:18:18-0400
_audit_creation_method            fapswitch 2.2
_symmetry_space_group_name_H-M    P1
_symmetry_Int_Tables_number       1
_space_group_crystal_system       triclinic
_cell_length_a                    23.456716
_cell_length_b                    8.6805
_cell_length_c                    7.435623
_cell_angle_alpha                 102.799382
_cell_angle_beta                  94.307112
_cell_angle_gamma                 92.380582
_cell_volume                      1469.58477889

loop_
_atom_site_label
_atom_site_type_symbol
_atom_type_description
_atom_site_fract_x
_atom_site_fract_y
_atom_site_fract_z
_atom_type_partial_charge
C1    C     C_R   0.498276 0.199718 0.453352 0.544713
C2    C     C_R   0.699704 0.567958 0.382147 -0.123163
C3    C     C_R   0.243982 0.432087 0.645460 -0.029499
C4    C     C_R   0.759085 0.568230 0.382018 -0.036970
C5    C     C_R   0.209506 0.495531 0.522254 0.211733
C6    C     C_R   0.790128 0.482231 0.489767 0.210091
C7    C     C_2   0.497435 0.031949 0.426944 -0.154545
C8    C     C_2   0.502714 0.968075 0.573052 -0.152400
C9    C     C_R   0.391112 0.504608 0.502889 0.529890
C10   C     C_R   0.608738 0.494601 0.497067 0.529667
C11   C     C_R   0.883119 0.612862 0.595978 0.392288
C12   C     C_R   0.501773 0.800289 0.546644 0.550152
C13   C     C_R   0.116994 0.357732 0.432117 0.403530
C14   C     C_R   0.876108 0.352939 0.400763 0.414525
C15   C     C_R   0.123830 0.617611 0.626831 0.408296
C16   C     C_R   0.936315 0.347085 0.411341 0.052890
C17   C     C_R   0.063749 0.616487 0.631873 0.046826
C18   C     C_R   0.969817 0.481458 0.515320 -0.068305
C19   C     C_R   0.030257 0.483558 0.524968 -0.070516
C20   C     C_R   0.942993 0.614154 0.609738 -0.003050
C21   C     C_R   0.057146 0.352453 0.427420 0.005042
C22   C     C_R   0.964201 0.212898 0.321694 0.123541
C23   C     C_R   0.234149 0.567801 0.394207 -0.021396
C24   C     C_R   0.036038 0.743716 0.737479 0.124909
C25   C     C_R   0.023973 0.218731 0.327846 -0.120151
C26   C     C_R   0.976237 0.743335 0.720277 -0.132560
C27   C     C_3   0.923408 0.959078 0.341714 -0.240593
C28   C     C_3   0.083623 0.829628 0.043515 -0.244105
C29   C     C_2   0.318302 0.666811 0.259131 0.240205
C30   C     C_2   0.673126 0.287789 0.701320 0.242671
C31   C     C_R   0.761741 0.393993 0.595557 -0.019518
C32   C     C_R   0.293766 0.577504 0.387128 -0.012215
C33   C     C_R   0.701986 0.391491 0.596733 -0.012677
C34   C     C_R   0.328645 0.508874 0.509444 -0.026406
C35   C     C_R   0.670805 0.482706 0.491201 -0.021030
C36   C     C_R   0.303134 0.438724 0.639198 -0.118065
Cu1   Cu    Cu3+1 0.506340 0.517380 0.684380 0.973241
Cu2   Cu    Cu3+1 0.493660 0.482620 0.315620 0.970698
H1    H     H_    0.044347 0.116227 0.256139 0.143648
H2    H     H_    0.507745 0.039408 0.713993 0.140099
H3    H     H_    0.454923 0.379141 0.948739 0.241496
H4    H     H_    0.545066 0.620887 0.051267 0.243289
H5    H     H_    0.949626 0.017387 0.105005 0.240722
H6    H     H_    0.964835 0.916919 0.388888 0.116763
H7    H     H_    0.896119 0.855536 0.261006 0.170040
H8    H     H_    0.901114 0.014950 0.464206 0.196517
H9    H     H_    0.048915 0.976375 0.884862 0.242042
H10   H     H_    0.044948 0.815713 0.117577 0.105158
H11   H     H_    0.112953 0.925573 0.130232 0.205640
H12   H     H_    0.955813 0.843172 0.798606 0.148649
H13   H     H_    0.106418 0.718182 0.022897 0.183030
H14   H     H_    0.362872 0.709840 0.279352 0.138441
H15   H     H_    0.627366 0.259403 0.677765 0.134757
H16   H     H_    0.206430 0.619178 0.302875 0.163039
H17   H     H_    0.786725 0.326125 0.675409 0.176531
H18   H     H_    0.329020 0.386315 0.734082 0.138795
H19   H     H_    0.676338 0.637435 0.300328 0.134788
H20   H     H_    0.224846 0.377058 0.745501 0.150220
H21   H     H_    0.781067 0.636044 0.299362 0.143197
H22   H     H_    0.492419 0.960621 0.286001 0.139599
N1    N     N_R   0.851246 0.483819 0.493000 -0.409526
N2    N     N_R   0.148695 0.489449 0.528774 -0.410751
N3    N     N_2   0.484110 0.456420 0.038520 -0.254669
N4    N     N_2   0.515890 0.543580 0.961480 -0.253404
N5    N     N_2   0.933012 0.070379 0.226538 -0.450789
N6    N     N_2   0.067497 0.868974 0.867965 -0.454249
O1    O     O_R   0.504120 0.286130 0.619770 -0.516451
O2    O     O_2   0.143439 0.233187 0.338987 -0.495295
O3    O     O_2   0.842369 0.230447 0.298091 -0.431103
O4    O     O_2   0.157331 0.746198 0.715220 -0.429503
O5    O     O_2   0.288530 0.696025 0.130252 -0.492493
O6    O     O_2   0.700433 0.230477 0.814121 -0.481010
O7    O     O_R   0.495880 0.713870 0.380230 -0.514647
O8    O     O_R   0.493410 0.256770 0.308360 -0.488459
O9    O     O_R   0.506590 0.743230 0.691640 -0.487884
O10   O     O_R   0.423230 0.514630 0.655730 -0.496506
O11   O     O_R   0.576770 0.485370 0.344270 -0.495333
O12   O     O_R   0.412530 0.485280 0.344320 -0.509420
O13   O     O_R   0.587470 0.514720 0.655680 -0.505018
O14   O     O_2   0.856777 0.738879 0.686323 -0.487691

loop_
_geom_bond_atom_site_label_1
_geom_bond_atom_site_label_2
_ccdc_geom_bond_type
C2    C35   A    
C28   N6    S    
H5    N5    S    
C2    H19   S    
C7    C8    D    
Cu1   O13   S    
C27   N5    S    
C1    O8    A    
C6    N1    S    
C19   C21   A    
C24   C26   A    
C29   C32   S    
C26   H12   S    
C28   H13   S    
C18   C19   A    
C33   C35   A    
C27   H6    S    
C13   N2    A    
C22   C25   A    
C31   C33   A    
C10   C35   S    
C9    O10   A    
H9    N6    S    
C34   C36   A    
C24   N6    S    
C27   H7    S    
C6    C31   A    
Cu1   O9    S    
C12   O7    A    
C10   O11   A    
C30   H15   S    
C11   C20   A    
C17   C24   A    
C4    C6    A    
C17   C19   A    
Cu2   O12   S    
C3    C5    A    
C14   N1    A    
C32   C34   A    
C2    C4    A    
C22   N5    S    
Cu1   Cu2   S    
C36   H18   S    
C28   H11   S    
C5    C23   A    
C8    C12   S    
C13   C21   A    
C27   H8    S    
Cu1   O10   S    
C9    C34   S    
C14   O3    S    
C14   C16   A    
H3    N3    S    
H4    N4    S    
C7    H22   S    
Cu1   N4    S    
C23   H16   S    
Cu2   N3    S    
Cu2   O8    S    
C15   C17   A    
C15   O4    S    
C21   C25   A    
C28   H10   S    
C16   C22   A    
C30   C33   S    
C1    C7    S    
C11   N1    A    
C30   O6    D    
C10   O13   A    
Cu2   O11   S    
C23   C32   A    
C25   H1    S    
C13   O2    S    
C20   C26   A    
C3    C36   A    
Cu1   O1    S    
C4    H21   S    
C1    O1    A    
C15   N2    A    
C5    N2    S    
C18   C20   A    
C9    O12   A    
C11   O14   S    
N3    N4    D    
C3    H20   S    
C16   C18   A    
C12   O9    A    
C8    H2    S    
C31   H17   S    
Cu2   O7    S    
C29   O5    D    
C29   H14   S    
