data_mof_unit_63055.cif
_audit_creation_date              2013-03-05T16:39:41-0500
_audit_creation_method            fapswitch 2.2
_symmetry_space_group_name_H-M    P1
_symmetry_Int_Tables_number       1
_space_group_crystal_system       triclinic
_cell_length_a                    16.01977
_cell_length_b                    14.770735
_cell_length_c                    17.73062
_cell_angle_alpha                 89.995706
_cell_angle_beta                  89.971746
_cell_angle_gamma                 89.989461
_cell_volume                      4195.48568775

loop_
_atom_site_label
_atom_site_type_symbol
_atom_site_description
_atom_site_fract_x
_atom_site_fract_y
_atom_site_fract_z
_atom_type_partial_charge
O1    O     O_R   0.380310 0.575320 0.500010 -0.558391
O2    O     O_R   0.619690 0.424680 0.499990 -0.556982
O3    O     O_R   0.619690 0.575320 0.499990 -0.561416
O4    O     O_R   0.380310 0.424680 0.500010 -0.554628
C1    C     C_R   0.340942 0.500008 0.500005 0.816288
C2    C     C_R   0.659059 0.499993 0.499996 0.820734
O5    O     O_R   0.500000 0.575370 0.391250 -0.581558
O6    O     O_R   0.500000 0.424630 0.608750 -0.578702
O7    O     O_R   0.500000 0.575370 0.608750 -0.576315
O8    O     O_R   0.500000 0.424630 0.391250 -0.573584
C3    C     C_R   0.499981 0.500005 0.355131 0.794255
C4    C     C_R   0.500029 0.500000 0.644869 0.794427
Cu1   Cu    Cu3+1 0.500000 0.589220 0.500000 1.008149
Cu2   Cu    Cu3+1 0.500000 0.410780 0.500000 1.028182
C5    C     C_R   0.500291 0.582107 0.846416 -0.135260
C6    C     C_R   0.500105 0.417969 0.153563 -0.135722
C7    C     C_R   0.499802 0.582111 0.153572 -0.137563
C8    C     C_R   0.499983 0.417965 0.846449 -0.137869
H1    H     H_    0.500416 0.645905 0.876588 0.142782
H2    H     H_    0.500231 0.354182 0.123374 0.143319
H3    H     H_    0.499688 0.645908 0.123388 0.142178
H4    H     H_    0.499866 0.354179 0.876649 0.142771
C9    C     C_R   0.500276 0.582201 0.767793 -0.163513
C10   C     C_R   0.500089 0.417845 0.232186 -0.161004
C11   C     C_R   0.499786 0.582208 0.232195 -0.173153
C12   C     C_R   0.499969 0.417839 0.767826 -0.170358
H5    H     H_    0.500404 0.646492 0.738421 0.161825
H6    H     H_    0.500200 0.353545 0.261542 0.166662
H7    H     H_    0.499650 0.646499 0.261558 0.159619
H8    H     H_    0.499846 0.353538 0.738479 0.164600
C13   C     C_R   0.500092 0.500011 0.727805 -0.041367
C14   C     C_R   0.499950 0.500019 0.272195 -0.041339
C15   C     C_R   0.500129 0.500045 0.885630 0.138379
C16   C     C_R   0.499975 0.500046 0.114370 0.138421
C17   C     C_1   0.500083 0.500058 0.966184 -0.038395
C18   C     C_1   0.500033 0.500057 0.033815 -0.038426
C19   C     C_R   0.956025 0.576056 0.527643 0.224757
C20   C     C_R   0.043979 0.423971 0.472311 0.223827
C21   C     C_R   0.043916 0.576013 0.527726 0.224163
C22   C     C_R   0.956088 0.423894 0.472457 0.223671
C23   C     C_R   0.912590 0.499969 0.500056 -0.205421
C24   C     C_R   0.087414 0.500002 0.500005 -0.205756
C25   C     C_1   0.822869 0.499970 0.500042 0.177171
C26   C     C_1   0.177133 0.500016 0.499995 0.175876
C27   C     C_1   0.252045 0.500021 0.499998 -0.089514
C28   C     C_1   0.747955 0.499978 0.500021 -0.089210
C29   C     C_R   0.553039 0.952030 0.549089 0.106485
C30   C     C_R   0.447043 0.048370 0.451074 0.132841
C31   C     C_R   0.446915 0.952064 0.450948 0.109386
C32   C     C_R   0.552911 0.048337 0.548964 0.134997
C33   C     C_R   0.499982 0.902879 0.500013 -0.088730
C34   C     C_R   0.499984 0.097157 0.500015 -0.045623
C35   C     C_1   0.499991 0.802588 0.500004 0.150818
C36   C     C_1   0.499994 0.197403 0.500007 0.281952
N1    N     N_1   0.500000 0.276710 0.500000 -0.151075
N2    N     N_1   0.500000 0.723290 0.500000 -0.148381
N3    N     N_R   0.088763 0.652074 0.558110 0.169390
O9    O     O_R   0.069682 0.683981 0.624314 -0.270706
O10   O     O_R   0.148197 0.690300 0.519502 -0.328528
N4    N     N_R   0.911243 0.345405 0.446701 0.170156
O11   O     O_R   0.851790 0.353368 0.397164 -0.329061
O12   O     O_R   0.930367 0.265438 0.472195 -0.264880
N5    N     N_R   0.911117 0.654516 0.553456 0.168879
O13   O     O_R   0.851596 0.646496 0.602971 -0.333399
O14   O     O_R   0.930240 0.734514 0.528029 -0.266763
N6    N     N_R   0.088884 0.347932 0.441879 0.168992
O15   O     O_R   0.148397 0.309781 0.480394 -0.323462
O16   O     O_R   0.069763 0.315965 0.375722 -0.271607
N7    N     N_3   0.606939 0.097197 0.598930 -0.567433
H9    H     H_    0.668490 0.078035 0.587502 0.267082
H10   H     H_    0.592846 0.078063 0.654262 0.245604
N8    N     N_3   0.392087 0.905326 0.400251 -0.574929
H11   H     H_    0.352470 0.863971 0.432034 0.252947
H12   H     H_    0.428166 0.863937 0.365216 0.226016
N9    N     N_3   0.392997 0.097264 0.401124 -0.558216
H13   H     H_    0.407060 0.078133 0.345785 0.245965
H14   H     H_    0.331446 0.078141 0.412575 0.271498
N10   N     N_3   0.607858 0.905259 0.599795 -0.569770
H15   H     H_    0.571775 0.863873 0.634824 0.229490
H16   H     H_    0.647487 0.863896 0.568024 0.253454

loop_
_geom_bond_atom_site_label_1
_geom_bond_atom_site_label_2
_geom_bond_distance
_ccdc_geom_bond_type
N6    O16   1.301236 A    
N5    O14   1.301259 A    
C22   N4    1.438552 S    
C17   C18   1.199141 T    
C8    C12   1.394040 A    
O3    C2    1.278853 A    
C5    H1    1.083649 S    
O1    C1    1.278859 A    
C32   N7    1.433851 S    
C20   C24   1.409671 A    
N10   H16   1.045561 S    
N3    O10   1.301321 A    
C21   N3    1.438534 S    
N4    O12   1.301263 A    
N7    H10   1.045531 S    
O7    Cu1   1.939010 S    
C6    C16   1.397344 A    
C20   N6    1.438576 S    
C31   C33   1.416947 A    
C31   N8    1.434279 S    
C32   C34   1.411578 A    
C9    H5    1.083020 S    
C21   C24   1.409659 A    
O3    Cu1   1.928328 S    
C6    H2    1.083650 S    
Cu1   N2    1.980314 S    
C11   C14   1.405936 A    
C5    C9    1.394032 A    
Cu2   N1    1.980314 S    
C12   C13   1.405906 A    
C6    C10   1.394028 A    
Cu1   Cu2   2.635688 S    
O4    Cu2   1.928330 S    
C23   C25   1.437307 S    
C30   N9    1.433873 S    
O2    C2    1.278877 A    
C24   C26   1.437275 S    
C19   N5    1.438604 S    
C34   C36   1.480709 S    
C29   C32   1.422525 A    
C11   H7    1.083014 S    
N8    H12   1.045581 S    
O8    Cu2   1.939012 S    
N10   H15   1.045599 S    
O4    C1    1.278854 A    
C29   C33   1.416938 A    
C1    C27   1.424095 S    
C7    H3    1.083666 S    
N4    O11   1.301210 A    
C33   C35   1.481381 S    
C9    C13   1.405941 A    
O5    C3    1.284310 A    
N9    H13   1.045521 S    
C10   C14   1.405913 A    
O7    C4    1.284287 A    
C8    C15   1.397347 A    
O5    Cu1   1.939042 S    
O6    C4    1.284367 A    
N9    H14   1.045540 S    
C30   C31   1.422513 A    
C3    C14   1.470507 S    
C12   H8    1.082993 S    
C4    C13   1.470508 S    
O1    Cu1   1.928405 S    
C7    C16   1.397348 A    
C26   C27   1.200087 T    
C35   N2    1.171282 T    
C36   N1    1.171424 T    
C22   C23   1.409660 A    
O6    Cu2   1.939040 S    
C2    C28   1.424095 S    
C8    H4    1.083668 S    
C10   H6    1.083002 S    
N8    H11   1.045579 S    
C7    C11   1.394042 A    
C19   C21   1.407997 A    
C20   C22   1.408000 A    
N3    O9    1.301184 A    
C15   C17   1.428276 S    
N6    O15   1.301246 A    
C16   C18   1.428288 S    
C19   C23   1.409680 A    
N7    H9    1.045529 S    
O2    Cu2   1.928403 S    
C25   C28   1.200097 T    
O8    C3    1.284343 A    
N5    O13   1.301218 A    
C30   C34   1.411585 A    
C29   N10   1.434297 S    
C5    C15   1.397342 A    
