data_mof_unit_33471.cif
_audit_creation_date              2013-03-05T15:47:04-0500
_audit_creation_method            fapswitch 2.2
_symmetry_space_group_name_H-M    P1
_symmetry_Int_Tables_number       1
_space_group_crystal_system       triclinic
_cell_length_a                    23.518679
_cell_length_b                    11.068187
_cell_length_c                    9.869152
_cell_angle_alpha                 111.925441
_cell_angle_beta                  98.063247
_cell_angle_gamma                 91.23309
_cell_volume                      2352.00416687

loop_
_atom_site_label
_atom_site_type_symbol
_atom_site_description
_atom_site_fract_x
_atom_site_fract_y
_atom_site_fract_z
_atom_type_partial_charge
O1    O     O_R   0.505330 0.332340 0.577400 -0.544316
O2    O     O_R   0.494670 0.667660 0.422600 -0.544415
O3    O     O_R   0.488470 0.295500 0.332650 -0.579499
O4    O     O_R   0.511530 0.704500 0.667350 -0.580043
C1    C     C_R   0.495882 0.253382 0.439194 0.733133
C2    C     C_R   0.504148 0.746619 0.560805 0.732976
O5    O     O_R   0.426310 0.518390 0.622390 -0.525611
O6    O     O_R   0.573690 0.481610 0.377610 -0.529842
O7    O     O_R   0.409450 0.481550 0.377650 -0.562179
O8    O     O_R   0.590550 0.518450 0.622350 -0.558664
C3    C     C_R   0.391244 0.504141 0.502314 0.822396
C4    C     C_R   0.608727 0.495849 0.497662 0.819395
Cu1   Cu    Cu3+1 0.509980 0.521810 0.644910 1.027563
Cu2   Cu    Cu3+1 0.490020 0.478190 0.355090 1.027018
C5    C     C_R   0.883456 0.608647 0.560407 0.634644
C6    C     C_R   0.116313 0.385480 0.439871 0.612051
N1    N     N_R   0.850784 0.493047 0.488491 -0.454113
N2    N     N_R   0.148936 0.501189 0.511127 -0.483093
C7    C     C_R   0.874504 0.379241 0.419176 0.668994
C8    C     C_R   0.125341 0.614702 0.582177 0.612765
C9    C     C_R   0.934689 0.377307 0.421942 -0.155643
C10   C     C_R   0.065207 0.616468 0.580423 -0.147086
C11   C     C_R   0.969592 0.496323 0.497210 -0.070600
C12   C     C_R   0.030292 0.497478 0.505043 -0.070455
C13   C     C_R   0.943770 0.614200 0.564599 -0.149397
C14   C     C_R   0.056098 0.379668 0.437269 -0.144501
C15   C     C_R   0.960941 0.260057 0.355421 0.253267
C16   C     C_R   0.038990 0.733586 0.647641 0.255286
C17   C     C_R   0.021000 0.260841 0.365504 0.252878
C18   C     C_R   0.978926 0.732887 0.637254 0.250990
O9    O     O_2   0.857276 0.716672 0.630264 -0.437474
O10   O     O_2   0.142422 0.277675 0.368951 -0.432230
O11   O     O_2   0.839481 0.268630 0.349598 -0.439004
O12   O     O_2   0.160397 0.725272 0.651621 -0.433086
C19   C     C_R   0.233210 0.552605 0.410672 0.476361
C20   C     C_R   0.766446 0.438782 0.582634 0.472225
C21   C     C_R   0.292979 0.560421 0.414462 0.390047
C22   C     C_R   0.706241 0.433114 0.580941 0.281402
C23   C     C_R   0.329104 0.511531 0.506939 -0.241494
C24   C     C_R   0.670763 0.487203 0.492594 -0.183518
C25   C     C_R   0.304963 0.464511 0.601603 -0.226029
C26   C     C_R   0.695294 0.537244 0.400910 -0.226749
H1    H     H_    0.331793 0.427522 0.673616 0.200743
H2    H     H_    0.668830 0.578054 0.332199 0.198660
C27   C     C_R   0.245868 0.461714 0.602077 -0.101828
C28   C     C_R   0.754300 0.538230 0.399411 -0.166000
H3    H     H_    0.227893 0.425139 0.675909 0.194450
H4    H     H_    0.772681 0.577647 0.328444 0.191498
C29   C     C_R   0.209698 0.504437 0.506934 0.126557
C30   C     C_R   0.789855 0.490211 0.490313 0.227503
H5    H     H_    0.492768 0.861226 0.372038 0.213213
H6    H     H_    0.508027 0.138814 0.627965 0.212841
C31   C     C_2   0.493759 0.111756 0.402610 0.211429
C32   C     C_2   0.506382 0.888250 0.597390 0.211035
C33   C     C_2   0.500966 0.069535 0.513857 -0.100325
C34   C     C_2   0.499578 0.930492 0.486144 -0.099674
N3    N     N_2   0.475010 0.445410 0.137370 -0.275942
N4    N     N_2   0.524990 0.554590 0.862630 -0.276369
C35   C     C_2   0.505163 0.511162 0.082636 0.399587
C36   C     C_2   0.494855 0.488785 0.917342 0.399613
H7    H     H_    0.553848 0.630436 0.932951 0.174597
H8    H     H_    0.446127 0.369606 0.067080 0.175736
N5    N     N_R   0.927318 0.137677 0.278312 0.191873
O13   O     O_R   0.928137 0.049724 0.336464 -0.221145
O14   O     O_R   0.903026 0.107108 0.141741 -0.219851
N6    N     N_R   0.072655 0.855806 0.725527 0.192436
O15   O     O_R   0.072047 0.944214 0.668044 -0.223174
O16   O     O_R   0.097011 0.885554 0.861903 -0.211528
N7    N     N_R   0.045624 0.138509 0.303758 0.192510
O17   O     O_R   0.036782 0.073521 0.161366 -0.199503
O18   O     O_R   0.070343 0.084405 0.390764 -0.219114
N8    N     N_R   0.954373 0.855184 0.699762 0.191807
O19   O     O_R   0.962689 0.918726 0.842404 -0.198599
O20   O     O_R   0.930504 0.910933 0.613548 -0.222404
O21   O     O_3   0.199578 0.595507 0.313618 -0.623709
H9    H     H_    0.158335 0.574610 0.312088 0.336688
O22   O     O_3   0.803772 0.392945 0.670429 -0.669827
H10   H     H_    0.782224 0.363121 0.732946 0.387701
O23   O     O_3   0.314263 0.617959 0.327541 -0.640382
H11   H     H_    0.353167 0.660537 0.376523 0.322519
O24   O     O_3   0.683694 0.372190 0.663197 -0.711587
H12   H     H_    0.644507 0.332410 0.613013 0.335681
O25   O     O_3   0.515115 0.977715 0.742430 -0.714573
H13   H     H_    0.518873 0.930512 0.810489 0.353414
O26   O     O_3   0.484696 0.022273 0.257569 -0.713629
H14   H     H_    0.480547 0.069455 0.189500 0.353690
O27   O     O_3   0.452342 0.397529 0.820537 -0.687824
H15   H     H_    0.418750 0.400749 0.871433 0.293570
O28   O     O_3   0.547706 0.602354 0.179416 -0.688929
H16   H     H_    0.581293 0.599066 0.128485 0.292211

loop_
_geom_bond_atom_site_label_1
_geom_bond_atom_site_label_2
_geom_bond_distance
_ccdc_geom_bond_type
N6    O16   1.301028 A    
O27   H15   0.988373 S    
N5    O14   1.301018 A    
C15   C17   1.401623 A    
O21   H9    0.989040 S    
O24   H12   0.990036 S    
N3    H8    1.027239 S    
C23   C25   1.401856 A    
O22   H10   0.989486 S    
O5    C3    1.299999 A    
C21   O23   1.380853 S    
C19   O21   1.382713 S    
O1    C1    1.299983 A    
C1    C31   1.469338 S    
C19   C21   1.400867 A    
C12   C14   1.418671 A    
C20   O22   1.383053 S    
C35   O28   1.378623 S    
N3    C35   1.305056 D    
N4    C36   1.305054 D    
H5    C34   1.086709 S    
C26   C28   1.389747 A    
C27   H3    1.082999 S    
O4    Cu1   1.949150 S    
N7    O18   1.301096 A    
C19   C29   1.416149 A    
C11   C12   1.418325 A    
H6    C33   1.086709 S    
C8    O12   1.348651 S    
N4    H7    1.027253 S    
C24   C26   1.401900 A    
N6    O15   1.300924 A    
C9    C15   1.417133 A    
C35   C36   1.538191 S    
C10   C16   1.416875 A    
Cu1   Cu2   2.686438 S    
C25   H1    1.083283 S    
O2    C2    1.299988 A    
C26   H2    1.083373 S    
C2    C32   1.469336 S    
C32   O25   1.386338 S    
C36   O27   1.378617 S    
C17   N7    1.434087 S    
C31   C33   1.336743 D    
C6    C14   1.412432 A    
C32   C34   1.336743 D    
O4    C2    1.292859 A    
C7    O11   1.348680 S    
Cu1   N4    2.018098 S    
O26   H14   0.989606 S    
N5    O13   1.300903 A    
C4    C24   1.470817 S    
C16   N6    1.433289 S    
O7    Cu2   1.938246 S    
O25   H13   0.989608 S    
C27   C29   1.397767 A    
O6    C4    1.299502 A    
C33   C34   1.457822 S    
C3    C23   1.471637 S    
O7    C3    1.297006 A    
O3    Cu2   1.949151 S    
O8    C4    1.296885 A    
N8    O20   1.301091 A    
C8    C10   1.412608 A    
C9    C11   1.418631 A    
C22   O24   1.381693 S    
C10   C12   1.418665 A    
O1    Cu1   1.944196 S    
C20   C30   1.404220 A    
C13   C18   1.416685 A    
C5    N1    1.363012 A    
Cu2   N3    2.018098 S    
O6    Cu2   1.947028 S    
C7    C9    1.412686 A    
N8    O19   1.300812 A    
O3    C1    1.292866 A    
O8    Cu1   1.938251 S    
N1    C30   1.435409 S    
C18   N8    1.433961 S    
C5    O9    1.348760 S    
C6    O10   1.348745 S    
C28   C30   1.396889 A    
C20   C22   1.413457 A    
C21   C23   1.420798 A    
C22   C24   1.421989 A    
C16   C18   1.401565 A    
N1    C7    1.363686 A    
N2    C8    1.363593 A    
C11   C13   1.418706 A    
N7    O17   1.300829 A    
O2    Cu2   1.944196 S    
C5    C13   1.412624 A    
O23   H11   0.990026 S    
C28   H4    1.082941 S    
O5    Cu1   1.947028 S    
C14   C17   1.416472 A    
C6    N2    1.362778 A    
C25   C27   1.390211 A    
C15   N5    1.433341 S    
C31   O26   1.386338 S    
O28   H16   0.988397 S    
N2    C29   1.435498 S    
