data_mof_unit_52927.cif
_audit_creation_date              2013-03-05T15:52:20-0500
_audit_creation_method            fapswitch 2.2
_symmetry_space_group_name_H-M    P1
_symmetry_Int_Tables_number       1
_space_group_crystal_system       triclinic
_cell_length_a                    14.908796
_cell_length_b                    15.27596
_cell_length_c                    9.897717
_cell_angle_alpha                 89.625206
_cell_angle_beta                  90.157501
_cell_angle_gamma                 90.501949
_cell_volume                      2254.02425804

loop_
_atom_site_label
_atom_site_type_symbol
_atom_site_description
_atom_site_fract_x
_atom_site_fract_y
_atom_site_fract_z
_atom_type_partial_charge
O1    O     O_R   0.408390 0.908380 0.614690 -0.641885
O2    O     O_R   0.408390 0.091620 0.614690 -0.646840
O3    O     O_R   0.908390 0.408380 0.614690 -0.641774
O4    O     O_R   0.908390 0.591620 0.614690 -0.647219
O5    O     O_R   0.408370 0.908380 0.385360 -0.625747
O6    O     O_R   0.408370 0.091620 0.385360 -0.640053
O7    O     O_R   0.908370 0.408380 0.385360 -0.626219
O8    O     O_R   0.908370 0.591620 0.385360 -0.639763
C1    C     C_R   0.381613 0.878985 0.500189 0.858815
C2    C     C_R   0.385714 0.125111 0.500312 0.870033
C3    C     C_R   0.881756 0.378856 0.500208 0.857592
C4    C     C_R   0.885635 0.625066 0.500340 0.868480
Zn1   Zn    Zn3+2 0.500010 0.000000 0.653130 0.918613
Zn2   Zn    Zn3+2 0.000010 0.500000 0.653130 0.918660
Zn3   Zn    Zn3+2 0.499980 0.000000 0.346870 0.939052
Zn4   Zn    Zn3+2 0.999980 0.500000 0.346870 0.939121
O9    O     O_R   0.591620 0.091610 0.614640 -0.621204
O10   O     O_R   0.591620 0.908390 0.614640 -0.641296
O11   O     O_R   0.091620 0.591610 0.614640 -0.620947
O12   O     O_R   0.091620 0.408390 0.614640 -0.641312
O13   O     O_R   0.591610 0.091610 0.385310 -0.608886
O14   O     O_R   0.591610 0.908390 0.385310 -0.614440
O15   O     O_R   0.091610 0.591610 0.385310 -0.608337
O16   O     O_R   0.091610 0.408390 0.385310 -0.614570
C5    C     C_R   0.621465 0.117980 0.499843 0.868674
C6    C     C_R   0.614758 0.875111 0.501505 0.856978
C7    C     C_R   0.121296 0.618145 0.499833 0.868722
C8    C     C_R   0.114847 0.375169 0.501535 0.857109
H1    H     H_    0.301067 0.191054 0.285969 0.172214
H2    H     H_    0.223902 0.886539 0.387844 0.153713
H3    H     H_    0.801307 0.691301 0.285954 0.172297
H4    H     H_    0.725069 0.385365 0.384672 0.152413
C9    C     C_R   0.349600 0.230645 0.747268 -0.157887
C10   C     C_R   0.425570 0.710352 0.618478 -0.175386
C11   C     C_R   0.848573 0.729948 0.747831 -0.154291
C12   C     C_R   0.924771 0.211143 0.622781 -0.175270
H5    H     H_    0.420049 0.214480 0.746320 0.165681
H6    H     H_    0.478832 0.758635 0.617506 0.133849
H7    H     H_    0.919063 0.713949 0.747312 0.164563
H8    H     H_    0.978055 0.259403 0.622010 0.135107
C13   C     C_R   0.311346 0.249116 0.872022 -0.143197
C14   C     C_R   0.443866 0.628795 0.675836 -0.133069
C15   C     C_R   0.809922 0.748134 0.872419 -0.138605
C16   C     C_R   0.942505 0.130130 0.682339 -0.133189
H9    H     H_    0.350672 0.243174 0.963691 0.139227
H10   H     H_    0.509306 0.616201 0.718879 0.141698
H11   H     H_    0.848989 0.742070 0.964320 0.138596
H12   H     H_    0.007435 0.118014 0.727502 0.142020
C17   C     C_R   0.720123 0.771002 0.878570 -0.161003
C18   C     C_R   0.877131 0.064536 0.682230 -0.130142
C19   C     C_R   0.221591 0.272082 0.878660 -0.152752
C20   C     C_R   0.378398 0.563287 0.676145 -0.128722
H13   H     H_    0.688346 0.780663 0.975509 0.137822
H14   H     H_    0.891284 0.001369 0.727325 0.142648
H15   H     H_    0.190108 0.281947 0.975767 0.138948
H16   H     H_    0.392949 0.499747 0.719701 0.142942
C21   C     C_R   0.671813 0.783889 0.759413 -0.173477
C22   C     C_R   0.793829 0.079786 0.622474 -0.185752
C23   C     C_R   0.172937 0.284787 0.759768 -0.178607
C24   C     C_R   0.294486 0.579111 0.618699 -0.185735
H17   H     H_    0.601667 0.799217 0.770020 0.165373
H18   H     H_    0.745782 0.026342 0.621667 0.150623
H19   H     H_    0.102823 0.300074 0.770863 0.166986
H20   H     H_    0.246304 0.525775 0.618129 0.150256
C25   C     C_R   0.713229 0.773728 0.631391 0.097395
C26   C     C_R   0.774444 0.162067 0.563020 0.095058
C27   C     C_R   0.213943 0.274332 0.631489 0.092450
C28   C     C_R   0.274659 0.661841 0.561089 0.094608
C29   C     C_R   0.297609 0.234174 0.627034 0.093664
C30   C     C_R   0.340508 0.727871 0.561265 0.101558
C31   C     C_R   0.796933 0.733638 0.627255 0.098435
C32   C     C_R   0.840257 0.228141 0.563331 0.101927
C33   C     C_R   0.324481 0.197090 0.502754 -0.124449
C34   C     C_R   0.319589 0.808886 0.500174 -0.092496
C35   C     C_R   0.824212 0.696899 0.502890 -0.126070
C36   C     C_R   0.819846 0.308654 0.500245 -0.091329
C37   C     C_R   0.280566 0.217781 0.382129 -0.215978
C38   C     C_R   0.238199 0.824061 0.435610 -0.209072
C39   C     C_R   0.780541 0.717788 0.382142 -0.216891
C40   C     C_R   0.739018 0.323268 0.433826 -0.207588
H21   H     H_    0.679509 0.792303 0.287863 0.169461
H22   H     H_    0.611113 0.270931 0.383921 0.155522
H23   H     H_    0.179301 0.292079 0.288031 0.169480
H24   H     H_    0.109872 0.772059 0.387061 0.155556
C41   C     C_R   0.708891 0.772978 0.383679 -0.198488
C42   C     C_R   0.674891 0.258825 0.433345 -0.202103
C43   C     C_R   0.208938 0.272991 0.383781 -0.198615
C44   C     C_R   0.174045 0.759611 0.435121 -0.202773
C45   C     C_R   0.675925 0.802853 0.506788 -0.132481
C46   C     C_R   0.691823 0.180051 0.499395 -0.100685
C47   C     C_R   0.176241 0.303096 0.506919 -0.129812
C48   C     C_R   0.191532 0.680320 0.499379 -0.100255
H25   H     H_    0.640358 0.995525 0.125991 0.148211
H26   H     H_    0.140348 0.495337 0.125984 0.148185
C49   C     C_R   0.336236 0.004417 0.139162 -0.277804
C50   C     C_R   0.836315 0.504540 0.139380 -0.274852
H27   H     H_    0.331876 0.001650 0.246294 0.219992
H28   H     H_    0.831860 0.501614 0.246476 0.219684
C51   C     C_R   0.254969 0.009855 0.069398 0.009485
C52   C     C_R   0.755176 0.510380 0.069623 -0.002027
C53   C     C_R   0.254648 0.009629 0.927760 0.185642
C54   C     C_R   0.754708 0.510516 0.928296 0.179250
C55   C     C_R   0.336206 0.003747 0.859334 -0.182804
C56   C     C_R   0.836131 0.504177 0.859373 -0.171502
H29   H     H_    0.331805 0.000383 0.752355 0.226153
H30   H     H_    0.831942 0.500577 0.752491 0.220727
C57   C     C_R   0.419206 0.002062 0.927463 0.115769
C58   C     C_R   0.919189 0.502203 0.927479 0.112766
C59   C     C_R   0.419237 0.002241 0.071808 0.156888
C60   C     C_R   0.919254 0.502324 0.071878 0.157468
N1    N     N_R   0.498810 0.000000 0.142780 -0.110120
N2    N     N_R   0.998810 0.500000 0.142780 -0.110142
C61   C     C_R   0.577265 0.997533 0.071870 -0.111928
C62   C     C_R   0.077257 0.497427 0.071864 -0.111319
H31   H     H_    0.640292 0.995540 0.874929 0.151231
H32   H     H_    0.140281 0.495324 0.874927 0.151501
C63   C     C_R   0.577233 0.997562 0.928627 -0.117341
C64   C     C_R   0.077226 0.497440 0.928626 -0.117176
N3    N     N_R   0.498740 0.000000 0.857170 -0.117419
N4    N     N_R   0.998740 0.500000 0.857170 -0.117650
C65   C     C_3   0.169688 0.015202 0.844953 -0.919253
H33   H     H_    0.108452 0.020804 0.907431 0.247780
H34   H     H_    0.173401 0.073527 0.777523 0.246505
H35   H     H_    0.162677 0.955736 0.781706 0.242398
C66   C     C_3   0.668121 0.517425 0.850012 -0.898563
H36   H     H_    0.679493 0.517998 0.739116 0.232383
H37   H     H_    0.623640 0.460987 0.875087 0.244619
H38   H     H_    0.633938 0.579150 0.876976 0.244527
C67   C     C_1   0.173042 0.014868 0.146509 0.141118
N5    N     N_1   0.107545 0.018939 0.208556 -0.214176
C68   C     C_1   0.672830 0.515736 0.145720 0.146601
N6    N     N_1   0.606964 0.520086 0.206811 -0.212085

loop_
_geom_bond_atom_site_label_1
_geom_bond_atom_site_label_2
_geom_bond_distance
_ccdc_geom_bond_type
C22   H18   1.081440 S    
H23   C43   1.083868 S    
C43   C47   1.396102 A    
C58   N4    1.377519 A    
O10   C6    1.282184 A    
C39   C41   1.366800 A    
C32   C36   1.410911 A    
C54   C66   1.507906 S    
C56   H30   1.061315 S    
H26   C62   1.081770 S    
C52   C68   1.445283 S    
C26   C46   1.410233 A    
C6    C45   1.438521 S    
C25   C45   1.421832 A    
C5    C46   1.407804 S    
C18   H14   1.082719 S    
Zn1   O10   2.003062 S    
C67   N5    1.157321 T    
C3    C36   1.408768 S    
C63   N3    1.366358 A    
C2    C33   1.435625 S    
C49   C51   1.395738 A    
C38   C44   1.366638 A    
C17   C21   1.393998 A    
C14   H10   1.081805 S    
C57   N3    1.377148 A    
C21   H17   1.079240 S    
O2    Zn1   1.998266 S    
C65   H35   1.110595 S    
C40   C42   1.366269 A    
C20   C24   1.395129 A    
C23   C27   1.421246 A    
O6    Zn3   2.003170 S    
C22   C26   1.416131 A    
Zn3   O14   1.998261 S    
C26   C32   1.401490 A    
C12   C32   1.414534 A    
C44   C48   1.390723 A    
C58   C60   1.429231 A    
C10   C14   1.394541 A    
H31   C63   1.082021 S    
C50   H28   1.062896 S    
Zn4   O16   1.998261 S    
C30   C34   1.410820 A    
C66   H38   1.110168 S    
C29   C33   1.417865 A    
O15   C7    1.282639 A    
O4    C4    1.284708 A    
O11   C7    1.282528 A    
C10   C30   1.414409 A    
C34   C38   1.390409 A    
C9    C29   1.419413 A    
C11   C31   1.419505 A    
O8    Zn4   2.003170 S    
C57   C59   1.428702 A    
N2    C62   1.366655 A    
Zn1   N3    2.019671 S    
O7    C3    1.282829 A    
C60   N2    1.377082 A    
O5    Zn3   1.982866 S    
C51   C67   1.444918 S    
C18   C22   1.394887 A    
Zn3   N1    2.020052 S    
C12   H8    1.079031 S    
O1    C1    1.283120 A    
C55   H29   1.062252 S    
C49   C59   1.407955 A    
C41   C45   1.396087 A    
C15   C17   1.388180 A    
O12   C8    1.281926 A    
C25   C31   1.395731 A    
C50   C60   1.407867 A    
C53   C65   1.509530 S    
C27   C29   1.395792 A    
H24   C44   1.085036 S    
C11   H7    1.081084 S    
O5    C1    1.282648 A    
Zn2   O12   2.003062 S    
H4    C40   1.084722 S    
O8    C4    1.297624 A    
C27   C47   1.422200 A    
H1    C37   1.083897 S    
C7    C48   1.407529 S    
N1    C61   1.366658 A    
H25   C61   1.081768 S    
C54   C56   1.398514 A    
C37   C43   1.366749 A    
C65   H33   1.108333 S    
C62   C64   1.417731 A    
O3    Zn2   1.984947 S    
C61   C63   1.417771 A    
C28   C30   1.401394 A    
O7    Zn4   1.982866 S    
C51   C53   1.401915 A    
Zn4   O15   1.984939 S    
Zn2   N4    2.019671 S    
C42   C46   1.390434 A    
C66   H36   1.111062 S    
C12   C16   1.394379 A    
O1    Zn1   1.984947 S    
C1    C34   1.408686 S    
C68   N6    1.157263 T    
O2    C2    1.284911 A    
C56   C58   1.408719 A    
C11   C15   1.393210 A    
Zn4   N2    2.020052 S    
O16   C8    1.301597 A    
C9    H5    1.081128 S    
C52   C54   1.398799 A    
C16   C18   1.391697 A    
O13   C5    1.282786 A    
C33   C37   1.395846 A    
C10   H6    1.079047 S    
Zn2   O11   1.982758 S    
C36   C40   1.390173 A    
C21   C25   1.421093 A    
O6    C2    1.297340 A    
C49   H27   1.063074 S    
H3    C39   1.083886 S    
C23   H19   1.079125 S    
Zn1   O9    1.982758 S    
C24   H20   1.081506 S    
C9    C13   1.393134 A    
C59   N1    1.377617 A    
O9    C5    1.282542 A    
H22   C42   1.084872 S    
C31   C35   1.418216 A    
C35   C39   1.395869 A    
C17   H13   1.082769 S    
C50   C52   1.394447 A    
C28   C48   1.410106 A    
H32   C64   1.082026 S    
C8    C47   1.438533 S    
C19   H15   1.082777 S    
O4    Zn2   1.998266 S    
C64   N4    1.366317 A    
C65   H34   1.110793 S    
O3    C3    1.283002 A    
H2    C38   1.084878 S    
C20   H16   1.082934 S    
Zn3   O13   1.984939 S    
C19   C23   1.394057 A    
C24   C28   1.416267 A    
C53   C55   1.397307 A    
O14   C6    1.301322 A    
C4    C35   1.435761 S    
C66   H37   1.110298 S    
C13   H9    1.082654 S    
C55   C57   1.407973 A    
C15   H11   1.082654 S    
C13   C19   1.388172 A    
H21   C41   1.083852 S    
C16   H12   1.082054 S    
C14   C20   1.391736 A    
