data_mof_unit_28541.cif
_audit_creation_date              2012-12-10T17:51:28-0500
_audit_creation_method            fapswitch 2.2
_symmetry_space_group_name_H-M    P1
_symmetry_Int_Tables_number       1
_space_group_crystal_system       triclinic
_cell_length_a                    14.772551
_cell_length_b                    14.832564
_cell_length_c                    17.416856
_cell_angle_alpha                 106.775807
_cell_angle_beta                  72.220879
_cell_angle_gamma                 115.385764
_cell_volume                      3227.48566855

loop_
_atom_site_label
_atom_site_type_symbol
_atom_type_description
_atom_site_fract_x
_atom_site_fract_y
_atom_site_fract_z
_atom_type_partial_charge
C1    C     C_R   0.119200 0.687928 0.510590 0.829433
C2    C     C_R   0.707359 0.177230 0.527201 0.079551
C3    C     C_R   0.360338 0.922758 0.504796 0.060145
C4    C     C_R   0.639446 0.078001 0.501147 0.058435
C5    C     C_R   0.319982 0.000117 0.536888 -0.067515
C6    C     C_R   0.679525 0.000305 0.471064 -0.066746
C7    C     C_R   0.466664 0.948297 0.498167 -0.109264
C8    C     C_R   0.533036 0.052355 0.507849 -0.107746
C9    C     C_R   0.491327 0.126735 0.520235 0.568105
C10   C     C_R   0.507938 0.873806 0.486586 0.571361
C11   C     C_R   0.385946 0.101453 0.540875 -0.240296
C12   C     C_R   0.880791 0.312252 0.490944 0.822251
C13   C     C_R   0.613274 0.899047 0.467353 -0.242825
C14   C     C_R   0.288709 0.317114 0.375748 -0.295642
C15   C     C_R   0.707194 0.679025 0.627427 -0.284250
C16   C     C_R   0.989209 0.503309 0.652532 0.765245
C17   C     C_R   0.011125 0.497114 0.347440 0.769350
C18   C     C_R   0.220183 0.361427 0.380500 0.346804
C19   C     C_R   0.785170 0.644044 0.615416 0.342355
C20   C     C_R   0.279800 0.484798 0.494326 -0.001396
C21   C     C_R   0.712707 0.506934 0.513158 -0.009287
C22   C     C_R   0.365182 0.455136 0.479307 -0.024320
C23   C     C_R   0.187080 0.796106 0.514309 -0.223049
C24   C     C_R   0.624559 0.533561 0.531396 -0.017297
C25   C     C_R   0.363681 0.365554 0.422046 0.110749
C26   C     C_R   0.626413 0.623918 0.587674 0.103675
C27   C     C_R   0.452357 0.511057 0.516917 0.072542
C28   C     C_R   0.535537 0.475583 0.496072 0.074459
C29   C     C_R   0.526385 0.383119 0.441256 -0.163491
C30   C     C_R   0.461049 0.603234 0.571992 -0.165016
C31   C     C_R   0.441732 0.328989 0.405608 -0.187218
C32   C     C_R   0.546322 0.658230 0.606578 -0.183922
C33   C     C_R   0.983265 0.502238 0.737598 -0.018795
C34   C     C_R   0.812901 0.204320 0.490370 -0.227324
C35   C     C_R   0.018244 0.499641 0.262381 -0.016902
C36   C     C_R   0.068044 0.504044 0.759342 -0.187883
C37   C     C_R   0.935623 0.503024 0.241106 -0.191320
C38   C     C_R   0.061937 0.497465 0.838724 -0.144526
C39   C     C_R   0.942849 0.510928 0.161859 -0.146997
C40   C     C_R   0.971159 0.490365 0.898015 0.193457
C41   C     C_R   0.032550 0.514314 0.102236 0.194087
C42   C     C_R   0.886252 0.487656 0.876191 -0.172094
C43   C     C_R   0.115408 0.511927 0.123440 -0.176514
C44   C     C_R   0.892440 0.493799 0.796450 -0.217903
C45   C     C_R   0.214023 0.974813 0.560877 -0.228983
C46   C     C_R   0.108154 0.504220 0.202986 -0.215189
C47   C     C_2   0.961691 0.482768 0.982416 -0.226907
C48   C     C_2   0.042610 0.522564 0.017954 -0.227014
C49   C     C_3   0.854164 0.697458 0.676921 -0.303931
C50   C     C_3   0.802192 0.661824 0.759911 -0.406386
C51   C     C_3   0.733477 0.717695 0.817136 -0.838901
C52   C     C_3   0.191349 0.344146 0.299466 -0.420459
C53   C     C_3   0.089388 0.256545 0.288880 -0.244085
C54   C     C_3   0.075417 0.230245 0.200724 -0.901583
C55   C     C_3   0.673208 0.238685 0.609671 -0.300822
C56   C     C_R   0.785516 0.025172 0.449617 -0.230806
C57   C     C_3   0.730506 0.249054 0.673973 -0.393908
C58   C     C_3   0.675998 0.281808 0.760639 -0.853777
C59   C     C_3   0.328206 0.763209 0.394956 -0.301565
C60   C     C_3   0.270906 0.751392 0.330179 -0.394386
C61   C     C_3   0.324122 0.715115 0.244136 -0.852875
C62   C     C_R   0.148292 0.873313 0.554763 0.570043
C63   C     C_R   0.851762 0.126462 0.454911 0.561568
C64   C     C_R   0.292716 0.824082 0.477273 0.074924
Cu1   Cu    Cu3+1 0.916740 0.524770 0.521640 0.949480
Cu2   Cu    Cu3+1 0.083260 0.475230 0.478360 0.959660
F1    F     F_    0.551619 0.224045 0.511911 -0.717639
F2    F     F_    0.447201 0.776660 0.495491 -0.710568
F3    F     F_    0.953818 0.147384 0.430281 -0.685651
F4    F     F_    0.046680 0.851660 0.585047 -0.689462
H1    H     H_    0.138955 0.509371 0.714774 0.149065
H2    H     H_    0.402999 0.635277 0.589538 0.172307
H3    H     H_    0.173621 0.504068 0.218010 0.147268
H4    H     H_    0.825490 0.488973 0.780361 0.150307
H5    H     H_    0.119037 0.560789 0.984393 0.143871
H6    H     H_    0.885424 0.444448 0.016248 0.144038
H7    H     H_    0.815085 0.480570 0.920835 0.125533
H8    H     H_    0.185649 0.515784 0.078349 0.126703
H9    H     H_    0.878948 0.516548 0.148218 0.124647
H10   H     H_    0.127620 0.495597 0.852529 0.123819
H11   H     H_    0.355925 0.161124 0.557133 0.174225
H12   H     H_    0.865528 0.500686 0.285908 0.152384
H13   H     H_    0.643013 0.839365 0.452505 0.172867
H14   H     H_    0.182328 0.033486 0.587269 0.174885
H15   H     H_    0.817027 0.966212 0.426364 0.174125
H16   H     H_    0.774224 0.801141 0.821985 0.255947
H17   H     H_    0.661801 0.693008 0.795472 0.252162
H18   H     H_    0.711783 0.699267 0.879293 0.243203
H19   H     H_    0.755787 0.579139 0.749781 0.224956
H20   H     H_    0.862948 0.675340 0.791655 0.223975
H21   H     H_    0.926688 0.686388 0.655995 0.243373
H22   H     H_    0.876648 0.780965 0.685856 0.221653
H23   H     H_    0.439351 0.259414 0.361982 0.147767
H24   H     H_    0.076810 0.296899 0.182862 0.267524
H25   H     H_    0.137022 0.205436 0.157918 0.255999
H26   H     H_    0.000379 0.167360 0.195507 0.255327
H27   H     H_    0.087561 0.188177 0.304450 0.262533
H28   H     H_    0.024585 0.277101 0.328918 0.267647
H29   H     H_    0.198112 0.415334 0.287150 0.206210
H30   H     H_    0.251778 0.325873 0.248547 0.162905
H31   H     H_    0.721812 0.293879 0.805294 0.254357
H32   H     H_    0.665918 0.353342 0.765279 0.248756
H33   H     H_    0.599513 0.221903 0.776678 0.253955
H34   H     H_    0.549148 0.728412 0.649474 0.146839
H35   H     H_    0.734915 0.175002 0.670741 0.231949
H36   H     H_    0.809790 0.305848 0.661641 0.221006
H37   H     H_    0.682613 0.314709 0.603495 0.249623
H38   H     H_    0.590648 0.199635 0.634874 0.210524
H39   H     H_    0.401779 0.772890 0.227181 0.253355
H40   H     H_    0.331267 0.642612 0.241264 0.247775
H41   H     H_    0.278952 0.703361 0.199094 0.254721
H42   H     H_    0.191104 0.695880 0.343418 0.220146
H43   H     H_    0.268034 0.825568 0.331551 0.230223
H44   H     H_    0.410652 0.803359 0.370093 0.206322
H45   H     H_    0.720085 0.443114 0.466518 0.149690
H46   H     H_    0.320180 0.687739 0.401281 0.251471
H47   H     H_    0.269564 0.545568 0.543377 0.143688
H48   H     H_    0.293185 0.253024 0.327160 0.138592
H49   H     H_    0.707124 0.747794 0.671439 0.149037
H50   H     H_    0.584500 0.351194 0.423590 0.183196
N1    N     N_R   0.208390 0.438070 0.445820 -0.192886
N2    N     N_R   0.791610 0.561930 0.554180 -0.203854
O1    O     O_R   0.020090 0.662480 0.528530 -0.544966
O2    O     O_R   0.979910 0.337520 0.471470 -0.528416
O3    O     O_R   0.160710 0.620650 0.491980 -0.588600
O4    O     O_R   0.839290 0.379350 0.508020 -0.588684
O5    O     O_R   0.921540 0.523360 0.633990 -0.612184
O6    O     O_R   0.078460 0.476640 0.366010 -0.605614
O7    O     O_R   0.062170 0.481520 0.597440 -0.585156
O8    O     O_R   0.937830 0.518480 0.402560 -0.585331

loop_
_geom_bond_atom_site_label_1
_geom_bond_atom_site_label_2
_ccdc_geom_bond_type
C25   C31   A    
C40   C47   S    
C57   H35   S    
C19   N2    A    
C26   C32   A    
C7    C10   A    
C14   C18   A    
C4    C8    A    
C61   H39   S    
C9    F1    S    
Cu1   O8    S    
C56   H15   S    
C18   C52   S    
C7    C8    A    
C39   C41   A    
C3    C64   A    
C11   H11   S    
C43   H8    S    
C15   C19   A    
C59   C64   S    
Cu1   O5    S    
C28   C29   A    
C35   C37   A    
C1    O3    A    
C47   H6    S    
C5    C11   A    
C3    C7    A    
C2    C55   S    
C12   O4    A    
C45   C62   A    
C33   C36   A    
C62   F4    S    
C21   N2    A    
C49   C50   S    
C50   H20   S    
C23   C62   A    
C63   F3    S    
Cu2   O6    S    
C59   H46   S    
C14   H48   S    
C22   C25   A    
C32   H34   S    
C58   H32   S    
C30   C32   A    
C54   H26   S    
C36   H1    S    
C21   H45   S    
Cu2   O7    S    
C2    C34   A    
C40   C42   A    
C57   H36   S    
C59   C60   S    
C27   C30   A    
C41   C43   A    
C48   H5    S    
C60   H43   S    
C42   C44   A    
C49   H21   S    
C61   H40   S    
C51   H16   S    
C20   H47   S    
C16   O5    A    
C29   H50   S    
C56   C63   A    
C4    C6    A    
C51   H17   S    
C8    C9    A    
C15   C26   A    
C53   H27   S    
C31   H23   S    
C5    C45   A    
C52   H30   S    
C55   H37   S    
C60   C61   S    
C39   H9    S    
C2    C4    A    
C1    O1    A    
C60   H42   S    
C16   C33   S    
C19   C49   S    
C50   H19   S    
C47   C48   D    
C12   O2    A    
C50   C51   S    
C54   H25   S    
Cu2   N1    S    
C58   H31   S    
Cu1   N2    S    
C44   H4    S    
C16   O7    A    
C9    C11   A    
C20   N1    A    
C23   C64   A    
C20   C22   A    
C1    C23   S    
C22   C27   A    
C55   C57   S    
Cu2   O2    S    
C37   H12   S    
C45   H14   S    
C49   H22   S    
C12   C34   S    
C61   H41   S    
C52   C53   S    
C17   O8    A    
C33   C44   A    
C24   C28   A    
C6    C56   A    
C3    C5    A    
C10   C13   A    
C51   H18   S    
C30   H2    S    
C17   O6    A    
C53   C54   S    
C10   F2    S    
C53   H28   S    
C13   H13   S    
C52   H29   S    
Cu2   O3    S    
C55   H38   S    
Cu1   O4    S    
C36   C38   A    
C37   C39   A    
C6    C13   A    
C38   C40   A    
C24   C26   A    
C57   C58   S    
C38   H10   S    
C59   H44   S    
C34   C63   A    
C41   C48   S    
C15   H49   S    
Cu1   O1    S    
C14   C25   A    
C43   C46   A    
C54   H24   S    
C18   N1    A    
C42   H7    S    
C29   C31   A    
Cu1   Cu2   S    
C21   C24   A    
C27   C28   A    
C58   H33   S    
C17   C35   S    
C35   C46   A    
C46   H3    S    
