data_mof_unit_9818.cif
_audit_creation_date              2012-10-26T17:11:10-0400
_audit_creation_method            fapswitch 2.2
_symmetry_space_group_name_H-M    P1
_symmetry_Int_Tables_number       1
_space_group_crystal_system       triclinic
_cell_length_a                    28.014382
_cell_length_b                    18.688683
_cell_length_c                    16.809893
_cell_angle_alpha                 89.999427
_cell_angle_beta                  63.040772
_cell_angle_gamma                 89.997121
_cell_volume                      7844.45732825

loop_
_atom_site_label
_atom_site_type_symbol
_atom_type_description
_atom_site_fract_x
_atom_site_fract_y
_atom_site_fract_z
_atom_type_partial_charge
C1    C     C_R   0.295303 0.728998 0.329243 0.858479
C2    C     C_R   0.706495 0.274463 0.669587 0.828541
C3    C     C_R   0.704508 0.729391 0.670803 0.860113
C4    C     C_R   0.293560 0.274306 0.330377 0.862825
C5    C     C_R   0.795492 0.229392 0.329193 0.885624
C6    C     C_R   0.206435 0.774295 0.669628 0.861696
C7    C     C_R   0.204703 0.228985 0.670746 0.837703
C8    C     C_R   0.793502 0.774468 0.330415 0.826964
C9    C     C_R   0.573025 0.885886 0.435468 -0.186867
C10   C     C_R   0.426226 0.115731 0.567679 -0.202175
C11   C     C_R   0.469346 0.879898 0.433233 -0.196436
C12   C     C_R   0.529148 0.120127 0.574476 -0.197897
C13   C     C_R   0.030582 0.380002 0.567189 -0.189236
C14   C     C_R   0.970855 0.620099 0.425564 -0.198669
C15   C     C_R   0.927019 0.385816 0.564460 -0.193227
C16   C     C_R   0.073802 0.615672 0.432264 -0.202846
C17   C     C_R   0.206067 0.744623 0.966372 0.123706
C18   C     C_R   0.766908 0.210683 0.058346 0.127947
C19   C     C_R   0.792812 0.746402 0.034482 0.123074
C20   C     C_R   0.234587 0.208170 0.940254 0.125435
C21   C     C_R   0.707162 0.246350 0.965535 0.123439
C22   C     C_R   0.265202 0.707829 0.059960 0.127688
C23   C     C_R   0.293803 0.244839 0.033728 0.123393
C24   C     C_R   0.733059 0.710742 0.941683 0.125250
C25   C     C_R   0.230294 0.676879 0.954909 -0.169965
C26   C     C_R   0.742059 0.277803 0.069896 -0.168108
C27   C     C_R   0.768585 0.678718 0.045548 -0.172353
C28   C     C_R   0.259512 0.275280 0.928244 -0.174403
C29   C     C_R   0.731398 0.178668 0.954459 -0.173348
C30   C     C_R   0.240269 0.774941 0.072010 -0.170772
C31   C     C_R   0.269577 0.177103 0.045157 -0.170469
C32   C     C_R   0.757897 0.777866 0.930145 -0.172550
C33   C     C_R   0.259491 0.658610 0.001366 -0.165353
C34   C     C_R   0.712666 0.295304 0.024371 -0.171004
C35   C     C_R   0.739096 0.660999 0.999450 -0.165265
C36   C     C_R   0.288623 0.293270 0.974085 -0.171878
C37   C     C_R   0.760884 0.160945 0.000563 -0.166842
C38   C     C_R   0.211199 0.792991 0.026116 -0.172368
C39   C     C_R   0.240339 0.158896 0.998756 -0.164919
C40   C     C_R   0.787294 0.795363 0.975665 -0.170539
C41   C     C_R   0.135506 0.815507 0.948445 -0.269147
C42   C     C_R   0.848455 0.157064 0.062726 -0.229732
C43   C     C_R   0.864068 0.816091 0.051678 -0.266229
C44   C     C_R   0.152787 0.154761 0.936316 -0.228919
C45   C     C_R   0.635912 0.316056 0.948329 -0.267044
C46   C     C_R   0.347026 0.654420 0.063862 -0.227785
C47   C     C_R   0.364427 0.315611 0.051586 -0.269134
C48   C     C_R   0.651528 0.657100 0.937286 -0.231615
C49   C     C_R   0.120352 0.855783 0.892993 -0.149483
C50   C     C_R   0.882459 0.149686 0.103635 -0.134509
C51   C     C_R   0.879682 0.855816 0.106940 -0.153648
C52   C     C_R   0.118374 0.148399 0.896020 -0.119808
C53   C     C_R   0.620311 0.355802 0.893065 -0.153302
C54   C     C_R   0.381524 0.648260 0.104025 -0.135120
C55   C     C_R   0.379626 0.355825 0.107025 -0.149548
C56   C     C_R   0.617540 0.649684 0.896354 -0.116282
C57   C     C_R   0.151143 0.851464 0.800058 0.323462
C58   C     C_R   0.870042 0.186244 0.184072 0.404186
C59   C     C_R   0.849100 0.851481 0.199868 0.322255
C60   C     C_R   0.130658 0.185406 0.816103 0.351747
C61   C     C_R   0.650899 0.351473 0.800139 0.322002
C62   C     C_R   0.369316 0.685477 0.183778 0.409067
C63   C     C_R   0.348855 0.351486 0.199965 0.324000
C64   C     C_R   0.629965 0.686203 0.815892 0.335835
C65   C     C_R   0.185156 0.792256 0.764712 -0.186888
C66   C     C_R   0.817741 0.213250 0.233186 -0.153630
C67   C     C_R   0.814745 0.792588 0.235379 -0.179883
C68   C     C_R   0.183046 0.211831 0.766416 -0.163918
C69   C     C_R   0.685249 0.292573 0.764625 -0.180277
C70   C     C_R   0.316902 0.711772 0.233590 -0.140650
C71   C     C_R   0.314828 0.292294 0.235305 -0.187448
C72   C     C_R   0.682257 0.713241 0.766801 -0.178732
C73   C     C_R   0.201157 0.752978 0.820254 -0.248327
C74   C     C_R   0.784017 0.219276 0.191972 -0.266411
C75   C     C_R   0.798329 0.753819 0.180034 -0.256827
C76   C     C_R   0.217263 0.216712 0.806809 -0.268082
C77   C     C_R   0.701658 0.253787 0.819971 -0.256970
C78   C     C_R   0.282591 0.716438 0.193347 -0.278135
C79   C     C_R   0.298791 0.253073 0.179776 -0.249138
C80   C     C_R   0.715962 0.719316 0.808043 -0.254400
C81   C     C_R   0.179500 0.768910 0.911666 0.085637
C82   C     C_R   0.800279 0.195124 0.104685 0.077125
C83   C     C_R   0.819829 0.769942 0.088714 0.085501
C84   C     C_R   0.201159 0.192427 0.894028 0.078460
C85   C     C_R   0.680150 0.269899 0.911296 0.085421
C86   C     C_R   0.298646 0.692078 0.106167 0.079149
C87   C     C_R   0.320419 0.269046 0.088381 0.085679
C88   C     C_R   0.699695 0.695174 0.895336 0.076189
C89   C     C_R   0.200604 0.630869 0.514265 0.793274
C90   C     C_R   0.800142 0.369112 0.483274 0.864284
C91   C     C_R   0.803484 0.631904 0.471232 0.795585
C92   C     C_R   0.196537 0.368170 0.528403 0.849173
C93   C     C_R   0.696515 0.131908 0.528783 0.795720
C94   C     C_R   0.303456 0.868172 0.471636 0.861735
C95   C     C_R   0.299403 0.130869 0.485724 0.797311
C96   C     C_R   0.699859 0.869114 0.516729 0.854591
C97   C     C_R   0.925283 0.904971 0.067535 0.830680
C98   C     C_R   0.072960 0.098026 0.934133 0.897740
C99   C     C_R   0.074822 0.905106 0.932352 0.830025
C100  C     C_R   0.927349 0.098450 0.065683 0.897356
C101  C     C_R   0.425172 0.405118 0.067654 0.829500
C102  C     C_R   0.572651 0.598450 0.934316 0.897217
C103  C     C_R   0.574715 0.404967 0.932467 0.830418
C104  C     C_R   0.426992 0.597965 0.065900 0.900721
C105  C     C_R   0.049199 0.499638 0.504229 0.024135
C106  C     C_R   0.952044 0.501071 0.490456 0.024354
C107  C     C_R   0.547971 0.001106 0.509561 0.025098
C108  C     C_R   0.450803 0.999649 0.495839 0.024615
C109  C     C_R   0.036114 0.559646 0.465904 0.047529
C110  C     C_R   0.965048 0.441299 0.529121 0.046816
C111  C     C_R   0.986920 0.560813 0.460046 0.043663
C112  C     C_R   0.014379 0.439859 0.534128 0.036029
C113  C     C_R   0.513091 0.060849 0.539974 0.044520
C114  C     C_R   0.485608 0.939850 0.466024 0.043955
C115  C     C_R   0.463902 0.059685 0.534097 0.046521
C116  C     C_R   0.534967 0.941330 0.470916 0.046817
C117  C     C_R   0.114504 0.436990 0.540586 0.035300
C118  C     C_R   0.886393 0.563281 0.454806 0.060003
C119  C     C_R   0.870576 0.439801 0.505937 0.041175
C120  C     C_R   0.130561 0.560656 0.489855 0.055674
C121  C     C_R   0.629448 0.939835 0.494041 0.050379
C122  C     C_R   0.369453 0.060668 0.510146 0.053438
C123  C     C_R   0.385471 0.936943 0.459607 0.046305
C124  C     C_R   0.613612 0.063300 0.545224 0.058499
C125  C     C_R   0.166167 0.435362 0.537719 -0.129638
C126  C     C_R   0.834279 0.564853 0.459635 -0.137764
C127  C     C_R   0.827134 0.436738 0.484176 -0.101259
C128  C     C_R   0.173973 0.563346 0.511874 -0.114931
C129  C     C_R   0.672874 0.936751 0.515830 -0.101129
C130  C     C_R   0.326041 0.063347 0.488126 -0.116555
C131  C     C_R   0.333827 0.935345 0.462381 -0.126421
C132  C     C_R   0.665723 0.064862 0.540398 -0.137890
C133  C     C_R   0.192477 0.499883 0.531676 -0.204051
C134  C     C_R   0.808112 0.500234 0.465424 -0.201850
C135  C     C_R   0.691890 0.000238 0.534610 -0.212479
C136  C     C_R   0.307540 0.999877 0.468342 -0.203480
C137  C     C_R   0.097854 0.499223 0.512167 0.075913
C138  C     C_R   0.903300 0.501242 0.482973 0.080894
C139  C     C_R   0.596715 0.001273 0.517034 0.079110
C140  C     C_R   0.402147 0.999218 0.487904 0.075297
C141  C     C_R   0.619019 0.885272 0.446745 -0.161545
C142  C     C_R   0.380215 0.116006 0.556215 -0.170439
C143  C     C_R   0.420705 0.878634 0.430190 -0.172259
C144  C     C_R   0.578141 0.121245 0.576816 -0.172951
C145  C     C_R   0.079211 0.378773 0.570291 -0.143756
C146  C     C_R   0.921860 0.621226 0.423231 -0.172383
C147  C     C_R   0.881029 0.385210 0.553174 -0.179990
C148  C     C_R   0.119809 0.615966 0.443742 -0.172063
Cu1   Cu    Cu3+1 0.209920 0.785290 0.495070 1.025214
Cu2   Cu    Cu3+1 0.790080 0.214710 0.504930 1.032430
Cu3   Cu    Cu3+1 0.790080 0.785290 0.504930 1.023903
Cu4   Cu    Cu3+1 0.209920 0.214710 0.495070 1.047476
Cu5   Cu    Cu3+1 0.709920 0.285290 0.495070 1.027900
Cu6   Cu    Cu3+1 0.290080 0.714710 0.504930 1.046519
Cu7   Cu    Cu3+1 0.290080 0.285290 0.504930 1.021820
Cu8   Cu    Cu3+1 0.709920 0.714710 0.495070 1.054667
Cu9   Cu    Cu3+1 0.495240 0.500000 0.924150 1.096445
Cu10  Cu    Cu3+1 0.504760 0.500000 0.075850 1.092927
Cu11  Cu    Cu3+1 0.995240 0.000000 0.924150 1.094644
Cu12  Cu    Cu3+1 0.004760 1.000000 0.075850 1.093752
H1    H     H_    0.229066 0.500210 0.538678 0.205878
H2    H     H_    0.771175 0.499847 0.459514 0.205818
H3    H     H_    0.728823 0.999844 0.540534 0.206744
H4    H     H_    0.270965 0.000209 0.461296 0.206374
H5    H     H_    0.647401 0.843013 0.413495 0.164717
H6    H     H_    0.352156 0.158908 0.588039 0.168172
H7    H     H_    0.412403 0.831770 0.401309 0.210406
H8    H     H_    0.586740 0.167246 0.607133 0.166846
H9    H     H_    0.087466 0.332053 0.599473 0.230206
H10   H     H_    0.913259 0.667235 0.392928 0.167034
H11   H     H_    0.852664 0.342931 0.586394 0.169608
H12   H     H_    0.147872 0.658859 0.411903 0.167456
H13   H     H_    0.569186 0.842308 0.396901 0.141742
H14   H     H_    0.430530 0.160319 0.604423 0.138213
H15   H     H_    0.492732 0.831719 0.410849 0.153249
H16   H     H_    0.505220 0.167631 0.599184 0.140599
H17   H     H_    0.007143 0.331892 0.589818 0.156452
H18   H     H_    0.994774 0.667611 0.400884 0.140750
H19   H     H_    0.930876 0.342181 0.602933 0.145696
H20   H     H_    0.069510 0.660226 0.395459 0.138171
H21   H     H_    0.194527 0.846370 0.034861 0.137852
H22   H     H_    0.778900 0.108389 0.990971 0.131201
H23   H     H_    0.803995 0.848701 0.967310 0.137069
H24   H     H_    0.222240 0.106373 0.008778 0.131929
H25   H     H_    0.695958 0.348641 0.032734 0.137842
H26   H     H_    0.277599 0.606088 0.991297 0.131238
H27   H     H_    0.305299 0.346643 0.965375 0.137407
H28   H     H_    0.721090 0.608439 0.009031 0.132159
H29   H     H_    0.226916 0.638182 0.909813 0.130747
H30   H     H_    0.746786 0.318049 0.112138 0.138677
H31   H     H_    0.772247 0.639624 0.089984 0.132231
H32   H     H_    0.254973 0.315238 0.885508 0.135953
H33   H     H_    0.727747 0.139579 0.910009 0.130423
H34   H     H_    0.244781 0.814869 0.114802 0.139051
H35   H     H_    0.272990 0.138363 0.090178 0.131886
H36   H     H_    0.753160 0.818114 0.887914 0.134858
H37   H     H_    0.114846 0.823067 0.020112 0.164730
H38   H     H_    0.859706 0.133622 0.997761 0.169022
H39   H     H_    0.884500 0.823832 0.980029 0.167177
H40   H     H_    0.141598 0.131102 0.001146 0.167162
H41   H     H_    0.615473 0.323790 0.019980 0.166936
H42   H     H_    0.358176 0.630657 0.999099 0.169515
H43   H     H_    0.385060 0.323198 0.979922 0.164900
H44   H     H_    0.640272 0.633676 0.002260 0.166675
H45   H     H_    0.232572 0.713326 0.791361 0.165347
H46   H     H_    0.744401 0.242201 0.228282 0.170041
H47   H     H_    0.766682 0.714491 0.209029 0.164095
H48   H     H_    0.256991 0.239216 0.770103 0.163843
H49   H     H_    0.733304 0.214453 0.790975 0.164139
H50   H     H_    0.242845 0.738880 0.230114 0.163719
H51   H     H_    0.267363 0.213442 0.208671 0.165011
H52   H     H_    0.755568 0.742265 0.771750 0.170073
O1    O     O_R   0.255040 0.869590 0.478480 -0.543648
O2    O     O_R   0.744960 0.130410 0.521520 -0.571805
O3    O     O_R   0.744960 0.869590 0.521520 -0.552558
O4    O     O_R   0.255040 0.130410 0.478480 -0.576770
O5    O     O_R   0.755040 0.369590 0.478480 -0.547534
O6    O     O_R   0.244960 0.630410 0.521520 -0.577781
O7    O     O_R   0.244960 0.369590 0.521520 -0.543895
O8    O     O_R   0.755040 0.630410 0.478480 -0.571909
O9    O     O_R   0.182050 0.796550 0.624440 -0.512169
O10   O     O_R   0.817950 0.203450 0.375560 -0.500333
O11   O     O_R   0.817950 0.796550 0.375560 -0.523253
O12   O     O_R   0.182050 0.203450 0.624440 -0.499711
O13   O     O_R   0.682050 0.296550 0.624440 -0.523393
O14   O     O_R   0.317950 0.703450 0.375560 -0.505521
O15   O     O_R   0.317950 0.296550 0.375560 -0.511553
O16   O     O_R   0.682050 0.703450 0.624440 -0.487355
O17   O     O_R   0.250530 0.763330 0.367210 -0.628842
O18   O     O_R   0.749470 0.236670 0.632790 -0.619185
O19   O     O_R   0.749470 0.763330 0.632790 -0.612082
O20   O     O_R   0.250530 0.236670 0.367210 -0.603655
O21   O     O_R   0.750530 0.263330 0.367210 -0.611326
O22   O     O_R   0.249470 0.736670 0.632790 -0.603294
O23   O     O_R   0.249470 0.263330 0.632790 -0.628411
O24   O     O_R   0.750530 0.736670 0.367210 -0.620193
O25   O     O_R   0.177260 0.690030 0.513710 -0.604919
O26   O     O_R   0.822740 0.309970 0.486290 -0.598451
O27   O     O_R   0.822740 0.690030 0.486290 -0.600723
O28   O     O_R   0.177260 0.309970 0.513710 -0.591588
O29   O     O_R   0.677260 0.190030 0.513710 -0.601429
O30   O     O_R   0.322740 0.809970 0.486290 -0.591613
O31   O     O_R   0.322740 0.190030 0.486290 -0.604604
O32   O     O_R   0.677260 0.809970 0.513710 -0.579982
O33   O     O_R   0.051640 0.926880 0.885090 -0.530794
O34   O     O_R   0.948360 0.073120 0.114910 -0.487416
O35   O     O_R   0.948360 0.926880 0.114910 -0.530767
O36   O     O_R   0.051640 0.073120 0.885090 -0.490041
O37   O     O_R   0.551640 0.426880 0.885090 -0.531192
O38   O     O_R   0.448360 0.573120 0.114910 -0.490686
O39   O     O_R   0.448360 0.426880 0.114910 -0.530733
O40   O     O_R   0.551640 0.573120 0.885090 -0.487641
O41   O     O_R   0.940620 0.926560 0.986760 -0.616971
O42   O     O_R   0.059380 0.073440 0.013240 -0.604034
O43   O     O_R   0.059380 0.926560 0.013240 -0.618317
O44   O     O_R   0.940620 0.073440 0.986760 -0.602742
O45   O     O_R   0.440620 0.426560 0.986760 -0.618575
O46   O     O_R   0.559380 0.573440 0.013240 -0.604201
O47   O     O_R   0.559380 0.426560 0.013240 -0.616734
O48   O     O_R   0.440620 0.573440 0.986760 -0.601960
S1    S     S_3+6 0.159011 0.928318 0.731857 0.033182
O49   O     O_2   0.120283 0.924538 0.692820 -0.225273
O50   O     O_2   0.149097 0.995861 0.785439 -0.322832
O51   O     O_3   0.221702 0.932163 0.648768 -0.530596
H53   H     H_    0.244871 0.936940 0.678806 0.328179
S2    S     S_3+6 0.921296 0.207973 0.215301 0.031614
O52   O     O_2   0.924426 0.150327 0.275160 -0.249107
O53   O     O_2   0.974483 0.214147 0.133718 -0.292695
O54   O     O_3   0.907535 0.286763 0.269691 -0.550120
H54   H     H_    0.933698 0.290784 0.293993 0.374978
S3    S     S_3+6 0.841700 0.928383 0.267724 0.033529
O55   O     O_2   0.879786 0.923750 0.307974 -0.226094
O56   O     O_2   0.852556 0.995906 0.213891 -0.318468
O57   O     O_3   0.778833 0.933386 0.349515 -0.539162
H55   H     H_    0.756167 0.937481 0.318478 0.322212
S4    S     S_3+6 0.078856 0.210492 0.787872 0.031526
O58   O     O_2   0.075055 0.156338 0.724894 -0.214636
O59   O     O_2   0.025790 0.214792 0.870010 -0.292244
O60   O     O_3   0.092603 0.291156 0.738319 -0.565693
H56   H     H_    0.094935 0.323904 0.782756 0.334380
S5    S     S_3+6 0.658307 0.428382 0.732290 0.034229
O61   O     O_2   0.620224 0.423769 0.692032 -0.226656
O62   O     O_2   0.647453 0.495900 0.786132 -0.315899
O63   O     O_3   0.721176 0.433374 0.650505 -0.539446
H57   H     H_    0.743839 0.437463 0.681547 0.323544
S6    S     S_3+6 0.421240 0.711448 0.211204 0.018709
O64   O     O_2   0.425449 0.658452 0.274981 -0.235379
O65   O     O_2   0.473951 0.715010 0.128174 -0.316263
O66   O     O_3   0.407154 0.792901 0.258935 -0.585565
H58   H     H_    0.442289 0.816688 0.239370 0.365394
S7    S     S_3+6 0.341009 0.428321 0.268183 0.032009
O67   O     O_2   0.379745 0.424501 0.307200 -0.225097
O68   O     O_2   0.350926 0.495876 0.214624 -0.326323
O69   O     O_3   0.278322 0.432180 0.351287 -0.529790
H59   H     H_    0.255148 0.436982 0.321261 0.327587
S8    S     S_3+6 0.578660 0.707855 0.784678 0.048074
O70   O     O_2   0.575452 0.650106 0.725059 -0.202753
O71   O     O_2   0.525341 0.713960 0.866010 -0.292047
O72   O     O_3   0.592028 0.786248 0.729518 -0.513948
H60   H     H_    0.594756 0.821511 0.771263 0.326872

loop_
_geom_bond_atom_site_label_1
_geom_bond_atom_site_label_2
_ccdc_geom_bond_type
C10   H14   S    
C51   C97   S    
Cu9   Cu10  S    
S7    O67   D    
C32   H36   S    
C79   C87   A    
S5    O63   S    
C58   C66   A    
C38   H21   S    
Cu1   O9    S    
C4    O20   A    
Cu5   O13   S    
O63   H57   S    
C13   C112  A    
Cu9   O48   S    
Cu10  O47   S    
C30   C38   A    
O57   H55   S    
C96   O32   A    
C90   O5    A    
C7    C68   S    
C75   H47   S    
C101  O45   A    
Cu1   O25   S    
Cu8   O16   S    
Cu3   O3    S    
Cu11  O44   S    
C73   C81   A    
C16   C109  A    
C104  O38   A    
C90   O26   A    
C42   H38   S    
Cu10  O39   S    
C57   C65   A    
C20   C28   A    
C27   C35   A    
C21   C29   A    
C21   C85   S    
C61   S5    S    
C24   C32   A    
Cu6   O22   S    
Cu8   O8    S    
C8    O11   A    
S8    O70   D    
C105  C112  A    
C63   C71   A    
C120  C148  A    
C32   C40   A    
C108  C140  A    
C136  H4    S    
S6    O66   S    
C93   O2    A    
C9    C116  A    
C135  H3    S    
Cu9   O37   S    
C97   O35   A    
C50   C100  S    
C1    C70   S    
Cu2   O18   S    
C60   C68   A    
C17   C25   A    
C3    C72   S    
C80   C88   A    
C31   H35   S    
C29   H33   S    
C52   C98   S    
C18   C82   S    
Cu1   O1    S    
C12   C144  A    
C126  C134  A    
C23   C36   A    
C118  C138  A    
C119  C147  A    
C3    O16   A    
C4    C71   S    
C76   H48   S    
C96   C129  S    
C113  C115  A    
C1    O14   A    
S6    O65   D    
C15   H19   S    
C43   C83   A    
C124  C139  A    
C69   C77   A    
C127  C134  A    
C13   C145  A    
C43   C51   A    
C92   C125  S    
C71   C79   A    
Cu4   O4    S    
Cu7   O15   S    
C108  C115  A    
S7    O68   D    
C109  C111  A    
C104  O48   A    
S1    O49   D    
C142  H6    S    
Cu12  O42   S    
C66   C74   A    
C49   C57   A    
C124  C132  A    
C4    O15   A    
C52   C60   A    
C59   C67   A    
C129  C135  A    
C53   C61   A    
S8    O72   S    
Cu9   O45   S    
O51   H53   S    
C55   C63   A    
C95   C130  S    
C56   C64   A    
C9    H13   S    
C33   H26   S    
C2    C69   S    
C78   H50   S    
Cu5   O5    S    
C39   H24   S    
C12   H16   S    
C40   H23   S    
C44   C52   A    
C5    O10   A    
C6    O22   A    
C77   C85   A    
C95   O4    A    
S3    O55   D    
C19   C83   S    
C106  C111  A    
C103  O37   A    
C107  C113  A    
C41   H37   S    
C131  C136  A    
C3    O19   A    
C130  C136  A    
C102  O46   A    
C47   C87   A    
C92   O7    A    
C62   S6    S    
C98   O36   A    
C49   C99   S    
C90   C127  S    
O66   H58   S    
C143  H7    S    
C14   H18   S    
S2    O53   D    
C42   C50   A    
C44   H40   S    
C20   C84   S    
C67   C75   A    
S3    O56   D    
C97   O41   A    
C105  C109  A    
C92   O28   A    
C22   C30   A    
C119  C138  A    
C5    C66   S    
S2    O54   S    
S1    O51   S    
C114  C116  A    
S5    O62   D    
C48   H44   S    
C141  H5    S    
Cu1   O17   S    
C121  C139  A    
C56   C102  S    
C72   C80   A    
C25   H29   S    
C11   C143  A    
Cu8   O24   S    
Cu3   O11   S    
C17   C38   A    
C107  C139  A    
C110  C112  A    
Cu11  O36   S    
C100  O34   A    
C19   C40   A    
C2    O18   A    
C105  C137  A    
S4    O58   D    
C8    C67   S    
C117  C125  A    
C16   H20   S    
C25   C33   A    
Cu4   O20   S    
Cu7   O31   S    
S3    O57   S    
C18   C26   A    
C76   C84   A    
C79   H51   S    
C57   S1    S    
Cu6   O14   S    
C54   C104  S    
Cu5   O29   S    
C106  C110  A    
O69   H59   S    
C61   C69   A    
C117  C145  A    
C10   C142  A    
C108  C114  A    
C91   O8    A    
C73   H45   S    
C89   O6    A    
C6    C65   S    
Cu2   Cu5   S    
O60   H56   S    
C48   C88   A    
Cu7   O7    S    
C99   O33   A    
C60   S4    S    
S8    O71   D    
O54   H54   S    
Cu2   O10   S    
C15   C110  A    
C101  O39   A    
C74   C82   A    
C7    O23   A    
C145  H9    S    
C50   C58   A    
C89   O25   A    
C20   C39   A    
C21   C34   A    
C54   C62   A    
Cu10  O46   S    
C34   H25   S    
O72   H60   S    
C121  C141  A    
Cu11  Cu12  S    
Cu4   Cu7   S    
C41   C81   A    
C46   C54   A    
C47   H43   S    
Cu3   Cu8   S    
C24   C88   S    
C8    O24   A    
Cu4   O12   S    
C68   C76   A    
Cu11  O41   S    
Cu12  O35   S    
Cu12  O43   S    
C14   C146  A    
C94   O1    A    
C123  C131  A    
C103  O47   A    
Cu10  O38   S    
C121  C129  A    
C44   C84   A    
C120  C128  A    
C41   C49   A    
Cu3   O27   S    
C11   H15   S    
C94   C131  S    
C36   H27   S    
C15   C147  A    
C7    O12   A    
C75   C83   A    
C30   H34   S    
C53   C103  S    
C13   H17   S    
C37   H22   S    
C17   C81   S    
C22   C86   S    
C122  C140  A    
Cu11  O33   S    
C46   H42   S    
C28   C36   A    
C29   C37   A    
C93   O29   A    
C120  C137  A    
C2    O13   A    
C23   C31   A    
C89   C128  S    
Cu6   O30   S    
C91   C126  S    
C70   C78   A    
C42   C82   A    
Cu1   Cu6   S    
C26   H30   S    
C95   O31   A    
C96   O3    A    
C144  H8    S    
C102  O40   A    
C18   C37   A    
S6    O64   D    
C106  C138  A    
C65   C73   A    
C11   C114  A    
C99   O43   A    
C26   C34   A    
Cu2   O26   S    
S4    O60   S    
Cu6   O6    S    
Cu8   O32   S    
C77   H49   S    
C6    O9    A    
C78   C86   A    
C64   C72   A    
C23   C87   S    
C63   S7    S    
C62   C70   A    
C27   H31   S    
C28   H32   S    
C147  H11   S    
C14   C111  A    
C107  C116  A    
Cu3   O19   S    
C24   C35   A    
Cu5   O21   S    
C118  C146  A    
S7    O69   S    
C64   S8    S    
S1    O50   D    
C9    C141  A    
C35   H28   S    
S5    O61   D    
C123  C140  A    
C134  H2    S    
C45   C85   A    
Cu4   O28   S    
Cu7   O23   S    
C58   S2    S    
C59   S3    S    
S4    O59   D    
C146  H10   S    
C51   C59   A    
C122  C142  A    
C123  C143  A    
C93   C132  S    
Cu9   O40   S    
C98   O42   A    
C19   C27   A    
C47   C55   A    
C12   C113  A    
C74   H46   S    
C125  C133  A    
C48   C56   A    
C22   C33   A    
C117  C137  A    
Cu12  O34   S    
C133  H1    S    
C43   H39   S    
C55   C101  S    
C100  O44   A    
C80   H52   S    
C16   C148  A    
C94   O30   A    
C128  C133  A    
C132  C135  A    
C148  H12   S    
C31   C39   A    
Cu2   O2    S    
S2    O52   D    
C45   C53   A    
C1    O17   A    
C45   H41   S    
C91   O27   A    
C124  C144  A    
C5    O21   A    
C118  C126  A    
C122  C130  A    
C10   C115  A    
C119  C127  A    
C46   C86   A    
