data_mof_unit_9264.cif
_audit_creation_date              2012-12-11T14:10:46-0500
_audit_creation_method            fapswitch 2.2
_symmetry_space_group_name_H-M    P1
_symmetry_Int_Tables_number       1
_space_group_crystal_system       triclinic
_cell_length_a                    20.147075
_cell_length_b                    17.242077
_cell_length_c                    15.503577
_cell_angle_alpha                 89.994734
_cell_angle_beta                  51.731979
_cell_angle_gamma                 90.016071
_cell_volume                      4228.34771103

loop_
_atom_site_label
_atom_site_type_symbol
_atom_type_description
_atom_site_fract_x
_atom_site_fract_y
_atom_site_fract_z
_atom_type_partial_charge
C1    C     C_R   0.377168 0.197469 0.993409 0.309225
C2    C     C_3   0.666162 0.721716 0.463227 -0.162510
C3    C     C_3   0.757911 0.222928 0.443389 -0.157611
C4    C     C_3   0.334461 0.721544 0.536726 -0.162121
C5    C     C_3   0.742759 0.724146 0.556347 -0.157088
C6    C     C_3   0.166714 0.222871 0.462089 -0.162318
C7    C     C_3   0.257704 0.723330 0.443802 -0.158031
C8    C     C_3   0.833834 0.222371 0.537436 -0.162172
C9    C     C_2   0.206989 0.737057 0.065520 -0.175000
C10   C     C_2   0.759104 0.281375 0.978281 -0.208509
C11   C     C_2   0.791310 0.736707 0.936999 -0.174003
C12   C     C_R   0.639509 0.809087 0.985523 0.332649
C13   C     C_2   0.240671 0.281259 0.022029 -0.208529
C14   C     C_2   0.705723 0.237882 0.066853 -0.172880
C15   C     C_2   0.260148 0.780685 0.976989 -0.212531
C16   C     C_2   0.294005 0.237755 0.933494 -0.172883
C17   C     C_2   0.736830 0.778904 0.026415 -0.185787
C18   C     C_R   0.390855 0.803190 0.215211 -0.134362
C19   C     C_R   0.653371 0.168142 0.777961 -0.157382
C20   C     C_R   0.609218 0.803260 0.784785 -0.135029
C21   C     C_R   0.346699 0.168186 0.222063 -0.157253
C22   C     C_R   0.890777 0.303221 0.215260 -0.134557
C23   C     C_R   0.622727 0.197511 0.006727 0.309213
C24   C     C_R   0.153621 0.667802 0.777839 -0.149806
C25   C     C_R   0.109317 0.303262 0.784731 -0.134552
C26   C     C_R   0.847240 0.668858 0.222348 -0.158630
C27   C     C_R   0.347780 0.899558 0.922072 -0.218223
C28   C     C_R   0.637225 0.108730 0.098192 -0.219613
C29   C     C_R   0.651320 0.898951 0.079235 -0.214510
C30   C     C_R   0.362657 0.108685 0.901959 -0.220055
C31   C     C_R   0.847328 0.399854 0.922752 -0.217260
C32   C     C_R   0.137712 0.608369 0.097637 -0.219908
C33   C     C_R   0.152584 0.399806 0.077384 -0.217525
C34   C     C_R   0.359702 0.809418 0.015395 0.334516
C35   C     C_R   0.861240 0.608056 0.903621 -0.220317
C36   C     C_R   0.356761 0.078411 0.317630 -0.121309
C37   C     C_R   0.602709 0.895360 0.689258 -0.137444
C38   C     C_R   0.643291 0.078378 0.682412 -0.121087
C39   C     C_R   0.397261 0.895294 0.310781 -0.137828
C40   C     C_R   0.856996 0.578607 0.317724 -0.119812
C41   C     C_R   0.102898 0.395357 0.689143 -0.137694
C42   C     C_R   0.143252 0.578290 0.682377 -0.121100
C43   C     C_R   0.897171 0.395345 0.310828 -0.137531
C44   C     C_R   0.344366 0.183722 0.939480 0.114036
C45   C     C_R   0.875287 0.696698 0.995318 0.315593
C46   C     C_R   0.680873 0.828658 0.027002 0.102046
C47   C     C_R   0.655412 0.183810 0.060805 0.113920
C48   C     C_R   0.317685 0.829445 0.974826 0.110918
C49   C     C_R   0.841366 0.682615 0.943012 0.107052
C50   C     C_R   0.182933 0.329834 0.024313 0.109344
C51   C     C_R   0.156266 0.683304 0.059924 0.116833
C52   C     C_R   0.816901 0.329909 0.975932 0.109255
C53   C     C_R   0.374504 0.820332 0.313085 0.028873
C54   C     C_R   0.694391 0.135062 0.675517 0.024375
C55   C     C_R   0.625485 0.820466 0.687009 0.029242
C56   C     C_R   0.140608 0.309600 0.984189 0.334096
C57   C     C_R   0.305696 0.135115 0.324533 0.024340
C58   C     C_R   0.874345 0.320416 0.313165 0.029104
C59   C     C_R   0.194517 0.634788 0.675383 0.021438
C60   C     C_R   0.125829 0.320470 0.686777 0.029118
C61   C     C_R   0.806283 0.635701 0.324718 0.024252
C62   C     C_3   0.204812 0.150465 0.542040 -0.164596
C63   C     C_3   0.702313 0.794916 0.478379 -0.165365
C64   C     C_3   0.794843 0.150509 0.458087 -0.164522
C65   C     C_3   0.297911 0.794489 0.521736 -0.164776
C66   C     C_3   0.706455 0.651048 0.541980 -0.164432
C67   C     C_R   0.123255 0.697386 0.006331 0.309376
C68   C     C_3   0.203721 0.295068 0.477841 -0.164410
C69   C     C_3   0.294409 0.650485 0.457999 -0.164017
C70   C     C_3   0.797051 0.294875 0.521961 -0.164535
C71   C     C_3   0.625034 0.695849 0.582858 -0.143025
C72   C     C_3   0.283135 0.249360 0.439493 -0.131858
C73   C     C_3   0.375634 0.695761 0.417051 -0.143487
C74   C     C_3   0.717266 0.249580 0.560788 -0.131966
C75   C     C_3   0.124379 0.196721 0.581983 -0.143153
C76   C     C_3   0.782725 0.750649 0.439093 -0.132847
C77   C     C_3   0.875644 0.196349 0.417662 -0.143168
C78   C     C_R   0.859262 0.309637 0.015988 0.333935
C79   C     C_3   0.217698 0.749753 0.561088 -0.131712
C80   C     C_3   0.662670 0.768123 0.595283 0.185900
C81   C     C_3   0.245829 0.177678 0.424774 0.186418
C82   C     C_3   0.337599 0.767783 0.404785 0.185401
C83   C     C_3   0.754347 0.177594 0.575230 0.186369
C84   C     C_3   0.162855 0.268007 0.595036 0.185462
C85   C     C_3   0.746265 0.677988 0.424995 0.186354
C86   C     C_3   0.837382 0.267935 0.404900 0.185396
C87   C     C_3   0.254542 0.677327 0.575048 0.186768
C88   C     C_3   0.413246 0.274389 0.991899 -1.066802
C89   C     C_3   0.241960 0.222590 0.557031 -0.157805
C90   C     C_3   0.622207 0.727681 0.970273 -1.076955
C91   C     C_3   0.586651 0.274382 0.008149 -1.066825
C92   C     C_3   0.376665 0.727862 0.030573 -1.077368
C93   C     C_3   0.902513 0.774902 0.006084 -1.072867
C94   C     C_3   0.123739 0.227985 0.969055 -1.076997
C95   C     C_3   0.087315 0.774673 0.008675 -1.072753
C96   C     C_3   0.875975 0.228015 0.031282 -1.076603
H1    H     H_    0.391159 0.745825 0.187808 0.118160
H2    H     H_    0.646411 0.081192 0.152787 0.116206
H3    H     H_    0.664041 0.927864 0.129547 0.117954
H4    H     H_    0.353442 0.081164 0.847384 0.116072
H5    H     H_    0.833934 0.429250 0.873424 0.117980
H6    H     H_    0.147024 0.580707 0.152042 0.115906
H7    H     H_    0.165964 0.429189 0.126734 0.118050
H8    H     H_    0.851987 0.580534 0.849085 0.116726
H9    H     H_    0.346039 0.045164 0.384246 0.091979
H10   H     H_    0.597440 0.923211 0.631248 0.086256
H11   H     H_    0.654024 0.045129 0.615807 0.091882
H12   H     H_    0.676076 0.216452 0.797238 0.119129
H13   H     H_    0.402551 0.923135 0.368775 0.086302
H14   H     H_    0.846285 0.545258 0.384256 0.091364
H15   H     H_    0.097630 0.423155 0.631100 0.086429
H16   H     H_    0.153853 0.545085 0.615825 0.092012
H17   H     H_    0.902449 0.423180 0.368836 0.086382
H18   H     H_    0.559074 0.675344 0.644802 0.113058
H19   H     H_    0.349239 0.270334 0.379587 0.115052
H20   H     H_    0.441677 0.675544 0.355028 0.112767
H21   H     H_    0.651320 0.270812 0.620942 0.115061
H22   H     H_    0.058004 0.177061 0.643375 0.112935
H23   H     H_    0.609200 0.745911 0.811994 0.118204
H24   H     H_    0.848400 0.772495 0.378664 0.115541
H25   H     H_    0.941867 0.176450 0.356001 0.113061
H26   H     H_    0.151938 0.771323 0.621580 0.115585
H27   H     H_    0.205798 0.090210 0.566457 0.107470
H28   H     H_    0.700593 0.854665 0.453169 0.104047
H29   H     H_    0.793427 0.090354 0.433766 0.107548
H30   H     H_    0.299334 0.854291 0.547040 0.104236
H31   H     H_    0.708667 0.591098 0.566193 0.107213
H32   H     H_    0.203280 0.355120 0.452376 0.104267
H33   H     H_    0.292493 0.590486 0.433676 0.107263
H34   H     H_    0.324029 0.216510 0.202782 0.119119
H35   H     H_    0.797945 0.354827 0.547306 0.104239
H36   H     H_    0.272270 0.223659 0.597243 0.110387
H37   H     H_    0.636180 0.719007 0.422697 0.109328
H38   H     H_    0.727321 0.224349 0.403552 0.110488
H39   H     H_    0.364586 0.719128 0.577083 0.109695
H40   H     H_    0.773594 0.726354 0.595838 0.110581
H41   H     H_    0.137225 0.221313 0.420877 0.109629
H42   H     H_    0.226759 0.725257 0.404448 0.110577
H43   H     H_    0.863599 0.220457 0.578280 0.109670
H44   H     H_    0.205166 0.737366 0.136981 0.140369
H45   H     H_    0.891065 0.245843 0.187906 0.118028
H46   H     H_    0.762519 0.279610 0.905521 0.135929
H47   H     H_    0.795336 0.739099 0.863875 0.137358
H48   H     H_    0.237292 0.279504 0.094761 0.135896
H49   H     H_    0.703786 0.238271 0.138409 0.139467
H50   H     H_    0.263008 0.779323 0.904622 0.138406
H51   H     H_    0.295931 0.238153 0.861948 0.139448
H52   H     H_    0.730150 0.774257 0.101284 0.130800
H53   H     H_    0.472232 0.285533 0.907646 0.256636
H54   H     H_    0.369387 0.323206 0.015513 0.255962
H55   H     H_    0.428606 0.274123 0.048907 0.254848
H56   H     H_    0.176929 0.715638 0.796907 0.116565
H57   H     H_    0.672397 0.707875 0.885127 0.241597
H58   H     H_    0.620218 0.687776 0.028066 0.263758
H59   H     H_    0.559739 0.724419 0.989011 0.246330
H60   H     H_    0.527603 0.285455 0.092354 0.256626
H61   H     H_    0.630464 0.323256 0.984634 0.255965
H62   H     H_    0.571409 0.274089 0.951016 0.254853
H63   H     H_    0.327062 0.708340 0.116083 0.240848
H64   H     H_    0.377415 0.688006 0.973712 0.264628
H65   H     H_    0.439564 0.724136 0.010524 0.246306
H66   H     H_    0.941378 0.804675 0.925198 0.263097
H67   H     H_    0.109067 0.245893 0.812087 0.117962
H68   H     H_    0.848118 0.812054 0.067194 0.244553
H69   H     H_    0.940699 0.767882 0.034064 0.260828
H70   H     H_    0.173466 0.208483 0.883595 0.240927
H71   H     H_    0.122958 0.188229 0.026036 0.264395
H72   H     H_    0.060837 0.224120 0.988967 0.246372
H73   H     H_    0.025419 0.782896 0.090956 0.256464
H74   H     H_    0.128328 0.823933 0.994069 0.259314
H75   H     H_    0.077935 0.777733 0.945804 0.250688
H76   H     H_    0.826270 0.208603 0.116823 0.240980
H77   H     H_    0.876567 0.188230 0.974486 0.264449
H78   H     H_    0.825425 0.718135 0.203572 0.126181
H79   H     H_    0.938920 0.224084 0.011226 0.246318
H80   H     H_    0.334534 0.928873 0.872542 0.118274
N1    N     N_R   0.408680 0.130810 0.995780 -0.054745
N2    N     N_R   0.578590 0.132790 0.846380 -0.034288
N3    N     N_R   0.578590 0.867210 0.846380 -0.036929
N4    N     N_R   0.421410 0.132790 0.153620 -0.034277
N5    N     N_R   0.921410 0.367210 0.153620 -0.037034
N6    N     N_R   0.078590 0.632790 0.846380 -0.034687
N7    N     N_R   0.078590 0.367210 0.846380 -0.037047
N8    N     N_R   0.921410 0.632790 0.153620 -0.035762
N9    N     N_R   0.403840 0.921910 0.935760 -0.052765
N10   N     N_R   0.596160 0.078090 0.064240 -0.051723
N11   N     N_R   0.596160 0.921910 0.064240 -0.052943
N12   N     N_R   0.591320 0.869190 0.004220 -0.059646
N13   N     N_R   0.403840 0.078090 0.935760 -0.051608
N14   N     N_R   0.903840 0.421910 0.935760 -0.052686
N15   N     N_R   0.096160 0.578090 0.064240 -0.051810
N16   N     N_R   0.096160 0.421910 0.064240 -0.052731
N17   N     N_R   0.903840 0.578090 0.935760 -0.051958
N18   N     N_R   0.426250 0.076100 0.213650 -0.038434
N19   N     N_R   0.573750 0.923900 0.786350 -0.036266
N20   N     N_R   0.573750 0.076100 0.786350 -0.038434
N21   N     N_R   0.426250 0.923900 0.213650 -0.036285
N22   N     N_R   0.926250 0.576100 0.213650 -0.038323
N23   N     N_R   0.591320 0.130810 0.004220 -0.054769
N24   N     N_R   0.073750 0.423900 0.786350 -0.036276
N25   N     N_R   0.073750 0.576100 0.786350 -0.039000
N26   N     N_R   0.926250 0.423900 0.213650 -0.036292
N27   N     N_R   0.408680 0.869190 0.995780 -0.060160
N28   N     N_R   0.908680 0.630810 0.995780 -0.056617
N29   N     N_R   0.091320 0.369190 0.004220 -0.060040
N30   N     N_R   0.091320 0.630810 0.004220 -0.056228
N31   N     N_R   0.908680 0.369190 0.995780 -0.060021
N32   N     N_R   0.421410 0.867210 0.153620 -0.036983
Ni1   Ni    Ni4+2 0.500000 0.131570 0.000000 0.202765
Ni2   Ni    Ni4+2 0.500000 0.868430 0.000000 0.204326
Ni3   Ni    Ni4+2 0.000000 0.631570 0.000000 0.203454
Ni4   Ni    Ni4+2 1.000000 0.368430 0.000000 0.204232
Ni5   Ni    Ni4+2 0.488900 0.000000 0.862310 0.203129
Ni6   Ni    Ni4+2 0.511100 0.000000 0.137690 0.202873
Ni7   Ni    Ni4+2 0.988900 0.500000 0.862310 0.202748
Ni8   Ni    Ni4+2 0.011100 0.500000 0.137690 0.202792

loop_
_geom_bond_atom_site_label_1
_geom_bond_atom_site_label_2
_ccdc_geom_bond_type
C92   H65   S    
C27   C48   A    
C5    H40   S    
C89   H36   S    
C28   C47   A    
C65   C79   S    
C96   H79   S    
C30   H4    S    
N6    N25   A    
C64   C77   S    
N5    N26   A    
C9    C51   S    
C74   C83   S    
N22   Ni8   S    
C94   H70   S    
C66   C85   S    
C79   C87   S    
C63   H28   S    
C6    C75   S    
C32   C51   A    
C4    C87   S    
N3    N19   A    
C3    C64   S    
C56   C94   S    
C39   C53   A    
C72   H19   S    
C76   H24   S    
C73   H20   S    
C92   H63   S    
C37   N19   A    
C8    C83   S    
C12   C90   S    
C26   C61   A    
C25   H67   S    
C22   N5    A    
C41   N24   A    
C45   N28   A    
C4    C65   S    
C61   C85   S    
C9    H44   S    
C75   C84   S    
C30   N13   A    
C63   C76   S    
C26   H78   S    
C12   N12   A    
C62   C89   S    
C23   N23   A    
N24   Ni7   S    
C66   H31   S    
N28   Ni3   S    
C2    C85   S    
C18   N32   A    
C27   N9    A    
C13   H48   S    
N1    Ni1   S    
C38   H11   S    
N16   N29   A    
C3    C74   S    
C42   H16   S    
C70   C74   S    
C62   H27   S    
C91   H62   S    
C24   H56   S    
C18   C53   A    
C78   N31   A    
C1    N1    A    
N30   Ni3   S    
C21   N4    A    
N25   Ni7   S    
C56   N29   A    
C78   C96   S    
C35   C49   A    
N27   Ni2   S    
C69   C73   S    
C18   H1    S    
C14   H49   S    
C90   H58   S    
N14   Ni7   S    
C16   C44   S    
C72   C81   S    
C69   C87   S    
C19   H12   S    
C1    C88   S    
C6    C68   S    
C39   N21   A    
N11   Ni6   S    
C10   C52   S    
C6    C81   S    
C3    C86   S    
C67   C95   S    
C30   C44   A    
C75   H22   S    
N12   Ni2   S    
C15   C48   S    
C20   C55   A    
C52   C78   A    
C58   C86   S    
C55   C80   S    
C54   C83   S    
N17   Ni7   S    
C20   N3    A    
C59   C87   S    
C63   C80   S    
C11   H47   S    
C79   H26   S    
C33   N16   A    
C2    H37   S    
C23   C47   A    
C96   H77   S    
C29   H3    S    
C24   N6    A    
C68   C84   S    
C17   H52   S    
N1    N13   A    
C17   C46   S    
C12   C46   A    
C35   H8    S    
C10   C14   D    
C94   H72   S    
C45   C93   S    
C40   H14   S    
C93   H68   S    
C33   C50   A    
N2    N20   A    
C88   H53   S    
C50   C56   A    
C40   C61   A    
C29   N11   A    
C32   N15   A    
C53   C82   S    
N23   Ni1   S    
N15   N30   A    
C42   C59   A    
C64   C83   S    
C21   C57   A    
C11   C49   S    
C28   N10   A    
N15   Ni8   S    
C15   H50   S    
C95   H73   S    
C1    C44   A    
C66   C71   S    
C38   C54   A    
C45   C49   A    
C34   N27   A    
C68   C72   S    
C43   N26   A    
C51   C67   A    
C90   H57   S    
N17   N28   A    
C19   N2    A    
C4    C73   S    
C67   N30   A    
N13   Ni5   S    
C4    H39   S    
C19   C54   A    
N32   Ni2   S    
C70   H35   S    
C25   C60   A    
C62   C81   S    
C77   C86   S    
C36   C57   A    
C94   H71   S    
N8    N22   A    
C8    H43   S    
C96   H76   S    
C8    C77   S    
N2    Ni1   S    
C88   H55   S    
C23   C91   S    
C62   C75   S    
C34   C48   A    
C84   C89   S    
C2    C71   S    
C70   C86   S    
C31   H5    S    
C73   C82   S    
N4    N18   A    
C2    C63   S    
N8    Ni3   S    
C7    C79   S    
C22   C58   A    
C28   H2    S    
C72   C89   S    
C74   H21   S    
C68   H32   S    
C11   C17   D    
C36   H9    S    
C33   H7    S    
C88   H54   S    
C41   C60   A    
C37   H10   S    
C5    C66   S    
N21   N32   A    
C25   N7    A    
C27   H80   S    
N18   Ni6   S    
C7    H42   S    
C71   C80   S    
C36   N18   A    
C14   C47   S    
C32   H6    S    
C8    C70   S    
N7    N24   A    
N29   Ni4   S    
C31   C52   A    
C29   C46   A    
C92   H64   S    
C3    H38   S    
C65   H30   S    
N9    N27   A    
C5    C76   S    
C7    C69   S    
N7    Ni4   S    
C91   H60   S    
C43   H17   S    
N20   Ni5   S    
C60   C84   S    
C65   C82   S    
N31   Ni4   S    
C93   H66   S    
C40   N22   A    
C5    C80   S    
C6    H41   S    
C24   C59   A    
N10   Ni6   S    
C22   H45   S    
C31   N14   A    
N6    Ni3   S    
N9    Ni5   S    
C57   C81   S    
C38   N20   A    
C9    C15   D    
N4    Ni1   S    
N10   N23   A    
C95   H74   S    
C34   C92   S    
C21   H34   S    
C91   H61   S    
C77   H25   S    
N3    Ni2   S    
C35   N17   A    
C93   H69   S    
C13   C50   S    
C37   C55   A    
C16   H51   S    
N14   N31   A    
C39   H13   S    
C7    C82   S    
C71   H18   S    
C69   H33   S    
C64   H29   S    
C41   H15   S    
C13   C16   D    
C43   C58   A    
C42   N25   A    
N11   N12   A    
N26   Ni8   S    
C90   H59   S    
C95   H75   S    
C76   C85   S    
N16   Ni8   S    
C20   H23   S    
N21   Ni6   S    
N5    Ni4   S    
N19   Ni5   S    
C10   H46   S    
C26   N8    A    
