data_mof_unit_62431.cif
_audit_creation_date              2012-12-10T18:02:24-0500
_audit_creation_method            fapswitch 2.2
_symmetry_space_group_name_H-M    P1
_symmetry_Int_Tables_number       1
_space_group_crystal_system       triclinic
_cell_length_a                    25.990447
_cell_length_b                    36.026752
_cell_length_c                    25.969001
_cell_angle_alpha                 89.904409
_cell_angle_beta                  90.002323
_cell_angle_gamma                 89.978187
_cell_volume                      24316.0745182

loop_
_atom_site_label
_atom_site_type_symbol
_atom_type_description
_atom_site_fract_x
_atom_site_fract_y
_atom_site_fract_z
_atom_type_partial_charge
C1    C     C_R   0.499944 0.349499 0.750015 0.504672
C2    C     C_R   0.000073 0.349539 0.749721 0.503283
C3    C     C_R   0.532215 0.774380 0.973236 -0.137420
C4    C     C_R   0.532710 0.725911 0.473360 -0.138483
C5    C     C_R   0.532691 0.725920 0.526768 -0.138051
C6    C     C_R   0.532184 0.274416 0.526642 -0.137786
C7    C     C_R   0.532170 0.274405 0.473235 -0.137547
C8    C     C_R   0.032657 0.225875 0.473358 -0.138325
C9    C     C_R   0.032639 0.225884 0.526766 -0.138258
C10   C     C_R   0.032239 0.774384 0.526644 -0.137600
C11   C     C_R   0.032214 0.774380 0.473237 -0.137654
C12   C     C_R   0.032657 0.725875 0.973358 -0.138312
C13   C     C_R   0.999953 0.650495 0.750020 0.504557
C14   C     C_R   0.032638 0.725883 0.026766 -0.138238
C15   C     C_R   0.032238 0.274385 0.026644 -0.137607
C16   C     C_R   0.032213 0.274381 0.973237 -0.137640
C17   C     C_R   0.500112 0.250090 0.053688 0.038939
C18   C     C_R   0.500152 0.250074 0.946309 0.038677
C19   C     C_R   0.500161 0.749867 0.946310 0.040007
C20   C     C_R   0.500215 0.749873 0.053694 0.039886
C21   C     C_R   0.500103 0.750084 0.553690 0.038834
C22   C     C_R   0.500138 0.750062 0.446311 0.038970
C23   C     C_R   0.500166 0.249859 0.446308 0.040194
C24   C     C_R   0.000129 0.650476 0.250313 0.505393
C25   C     C_R   0.500193 0.249883 0.553692 0.040072
C26   C     C_R   0.000112 0.250090 0.553688 0.038912
C27   C     C_R   0.000152 0.250074 0.446309 0.038667
C28   C     C_R   0.000162 0.749867 0.446310 0.039916
C29   C     C_R   0.000215 0.749873 0.553694 0.039945
C30   C     C_R   0.000112 0.750090 0.053688 0.038914
C31   C     C_R   0.000152 0.750074 0.946309 0.038685
C32   C     C_R   0.000161 0.249867 0.946310 0.039911
C33   C     C_R   0.000215 0.249873 0.053694 0.039933
C34   C     C_R   0.467701 0.274363 0.026640 -0.138123
C35   C     C_R   0.999943 0.849499 0.750014 0.504769
C36   C     C_R   0.467725 0.274359 0.973228 -0.139578
C37   C     C_R   0.468271 0.725251 0.973357 -0.139157
C38   C     C_R   0.468307 0.725247 0.026772 -0.140844
C39   C     C_R   0.467620 0.774308 0.526644 -0.139975
C40   C     C_R   0.467636 0.774295 0.473232 -0.138361
C41   C     C_R   0.468315 0.225215 0.473354 -0.139706
C42   C     C_R   0.468322 0.225230 0.526770 -0.139143
C43   C     C_R   0.967699 0.274362 0.526640 -0.138154
C44   C     C_R   0.967724 0.274359 0.473228 -0.139587
C45   C     C_R   0.968272 0.725250 0.473357 -0.139246
C46   C     C_R   0.000073 0.849539 0.249721 0.503290
C47   C     C_R   0.968308 0.725246 0.526773 -0.140847
C48   C     C_R   0.967700 0.774363 0.026640 -0.138160
C49   C     C_R   0.967724 0.774359 0.973228 -0.139598
C50   C     C_R   0.968273 0.225249 0.973357 -0.139258
C51   C     C_R   0.968309 0.225245 0.026773 -0.140862
C52   C     C_R   0.500061 0.249996 0.609791 0.507162
C53   C     C_R   0.500038 0.249976 0.390209 0.507726
C54   C     C_R   0.500048 0.749991 0.390214 0.506262
C55   C     C_R   0.500019 0.750008 0.609787 0.505221
C56   C     C_R   0.500071 0.749989 0.109792 0.506993
C57   C     C_R   0.999952 0.150495 0.250020 0.504603
C58   C     C_R   0.500032 0.749981 0.890209 0.507639
C59   C     C_R   0.500052 0.249994 0.890213 0.506018
C60   C     C_R   0.500021 0.250009 0.109786 0.505810
C61   C     C_R   0.000071 0.249989 0.109792 0.506988
C62   C     C_R   0.000032 0.249981 0.890209 0.507293
C63   C     C_R   0.000053 0.749994 0.890213 0.505796
C64   C     C_R   0.000021 0.750009 0.109786 0.505897
C65   C     C_R   0.000071 0.749989 0.609792 0.506998
C66   C     C_R   0.000032 0.749981 0.390209 0.507287
C67   C     C_R   0.000053 0.249994 0.390213 0.505776
C68   C     C_R   0.000130 0.150476 0.750313 0.505374
C69   C     C_R   0.000021 0.250009 0.609786 0.505903
C70   C     C_R   0.640271 0.249996 0.750002 0.506897
C71   C     C_R   0.640250 0.250000 0.249996 0.506767
C72   C     C_R   0.640271 0.749995 0.250001 0.507219
C73   C     C_R   0.640250 0.749999 0.749996 0.506418
C74   C     C_R   0.140271 0.249995 0.250001 0.507253
C75   C     C_R   0.140251 0.249999 0.749996 0.506430
C76   C     C_R   0.140271 0.749996 0.750001 0.507360
C77   C     C_R   0.140250 0.750000 0.249995 0.506444
C78   C     C_R   0.359785 0.250001 0.750003 0.506849
C79   C     C_3   0.501416 0.020799 0.800470 -0.232899
C80   C     C_R   0.359764 0.250001 0.249995 0.506646
C81   C     C_R   0.359784 0.750002 0.250002 0.506690
C82   C     C_R   0.359764 0.750001 0.749995 0.507443
C83   C     C_R   0.859785 0.250004 0.250001 0.506714
C84   C     C_R   0.859764 0.250000 0.749994 0.506563
C85   C     C_R   0.859785 0.750004 0.750001 0.506711
C86   C     C_R   0.859764 0.749999 0.249994 0.506571
C87   C     C_R   0.276721 0.226317 0.716800 -0.137809
C88   C     C_R   0.276720 0.226350 0.283354 -0.137835
C89   C     C_R   0.276694 0.773606 0.283307 -0.137375
C90   C     C_3   0.473587 0.020594 0.205378 -0.231057
C91   C     C_R   0.276690 0.773708 0.716720 -0.135784
C92   C     C_R   0.276719 0.726406 0.216683 -0.137359
C93   C     C_R   0.276722 0.726280 0.783259 -0.137910
C94   C     C_R   0.276696 0.273682 0.783201 -0.137195
C95   C     C_R   0.276689 0.273636 0.216623 -0.136737
C96   C     C_R   0.776719 0.226373 0.216730 -0.137265
C97   C     C_R   0.776721 0.226322 0.783320 -0.138116
C98   C     C_R   0.776695 0.773628 0.783280 -0.137155
C99   C     C_R   0.776689 0.773671 0.216674 -0.136764
C100  C     C_R   0.776719 0.726389 0.716708 -0.137310
C101  C     C_3   0.473451 0.977756 0.208103 -0.209279
C102  C     C_R   0.776721 0.726304 0.283296 -0.138027
C103  C     C_R   0.776694 0.273646 0.283256 -0.137190
C104  C     C_R   0.776689 0.273659 0.716657 -0.136746
C105  C     C_R   0.223338 0.226318 0.716794 -0.137964
C106  C     C_R   0.223340 0.226347 0.283357 -0.137697
C107  C     C_R   0.223311 0.773605 0.283303 -0.137781
C108  C     C_R   0.223311 0.773704 0.716723 -0.137024
C109  C     C_R   0.223336 0.726404 0.216679 -0.137808
C110  C     C_R   0.223342 0.726278 0.783263 -0.137669
C111  C     C_R   0.223313 0.273680 0.783196 -0.137731
C112  C     C_R   0.500073 0.349539 0.249720 0.503226
C113  C     C_3   0.504542 0.978101 0.799108 -0.226409
C114  C     C_R   0.223309 0.273633 0.216627 -0.137441
C115  C     C_R   0.723336 0.226371 0.216728 -0.137605
C116  C     C_R   0.723341 0.226321 0.783326 -0.138042
C117  C     C_R   0.723312 0.773625 0.783278 -0.137564
C118  C     C_R   0.723310 0.773668 0.216678 -0.137541
C119  C     C_R   0.723336 0.726387 0.716705 -0.137731
C120  C     C_R   0.723341 0.726303 0.283301 -0.137799
C121  C     C_R   0.723311 0.273643 0.283254 -0.137639
C122  C     C_R   0.723310 0.273657 0.716663 -0.137484
C123  C     C_R   0.196341 0.249998 0.749993 0.038934
C124  C     C_3   0.472477 0.520431 0.291292 -0.232915
C125  C     C_R   0.196348 0.249990 0.249996 0.038883
C126  C     C_R   0.196339 0.750002 0.249991 0.038846
C127  C     C_R   0.196349 0.749991 0.749997 0.038948
C128  C     C_R   0.696339 0.250003 0.249992 0.038896
C129  C     C_R   0.696349 0.249990 0.749999 0.038876
C130  C     C_R   0.696340 0.750003 0.749992 0.038907
C131  C     C_R   0.696348 0.749987 0.249995 0.038938
C132  C     C_R   0.303694 0.250001 0.750003 0.039383
C133  C     C_R   0.303684 0.249997 0.249989 0.039022
C134  C     C_R   0.303693 0.750005 0.249999 0.039195
C135  C     C_3   0.494437 0.521387 0.699179 -0.228286
C136  C     C_R   0.303685 0.749998 0.749990 0.039234
C137  C     C_R   0.803693 0.250009 0.249997 0.039093
C138  C     C_R   0.803685 0.249994 0.749989 0.039135
C139  C     C_R   0.803693 0.750008 0.749998 0.039098
C140  C     C_R   0.803684 0.749992 0.249986 0.039136
C141  C     C_3   0.445364 0.023063 0.717566 0.142923
C142  C     C_3   0.465570 0.023220 0.304462 0.164209
C143  C     C_3   0.465589 0.977593 0.307062 0.156102
C144  C     C_3   0.443232 0.977468 0.719310 0.149072
C145  C     C_3   0.473139 0.523644 0.191353 0.142862
C146  C     C_3   0.493942 0.478526 0.699840 -0.208657
C147  C     C_3   0.446830 0.522577 0.786741 0.164248
C148  C     C_3   0.445205 0.476986 0.786158 0.157433
C149  C     C_3   0.471496 0.477978 0.190125 0.148456
C150  C     C_3   0.972798 0.023641 0.191531 0.142848
C151  C     C_3   0.946713 0.022579 0.786551 0.164245
C152  C     C_3   0.945080 0.976988 0.785951 0.157363
C153  C     C_3   0.971156 0.977976 0.190313 0.148469
C154  C     C_3   0.972901 0.523641 0.691478 0.142858
C155  C     C_3   0.946731 0.522579 0.286595 0.164245
C156  C     C_3   0.945100 0.476988 0.286000 0.157429
C157  C     C_3   0.475716 0.477728 0.290755 -0.226662
C158  C     C_3   0.971258 0.477976 0.690259 0.148456
C159  C     C_R   0.443342 0.041236 0.662251 0.053438
C160  C     C_R   0.414991 0.074521 0.654026 -0.080485
C161  C     C_R   0.412732 0.091536 0.605713 -0.118141
C162  C     C_R   0.439058 0.076360 0.564169 -0.105243
C163  C     C_R   0.468435 0.044463 0.571014 -0.117253
C164  C     C_R   0.471114 0.027428 0.619319 -0.108732
C165  C     C_R   0.488044 0.042703 0.353869 0.059856
C166  C     C_R   0.460803 0.071611 0.379345 -0.081803
C167  C     C_R   0.481445 0.089825 0.422061 -0.121020
C168  C     C_3   0.972709 0.020431 0.291474 -0.232916
C169  C     C_R   0.529177 0.079468 0.441547 -0.110125
C170  C     C_R   0.556526 0.050899 0.418210 -0.113918
C171  C     C_R   0.536507 0.032911 0.375017 -0.099816
C172  C     C_R   0.481877 0.962440 0.361201 0.031640
C173  C     C_R   0.452877 0.973561 0.404833 -0.088932
C174  C     C_R   0.465751 0.961778 0.454426 -0.117165
C175  C     C_R   0.506891 0.937647 0.461900 -0.104677
C176  C     C_R   0.534943 0.925052 0.419723 -0.113952
C177  C     C_R   0.522609 0.936991 0.369961 -0.109329
C178  C     C_R   0.428509 0.960452 0.665776 0.065856
C179  C     C_3   0.994621 0.021391 0.699153 -0.228267
C180  C     C_R   0.458147 0.933652 0.638759 -0.097294
C181  C     C_R   0.441260 0.918785 0.592033 -0.117144
C182  C     C_R   0.394731 0.930087 0.570668 -0.111257
C183  C     C_R   0.364819 0.956364 0.595961 -0.110981
C184  C     C_R   0.381176 0.971157 0.642853 -0.078862
C185  C     C_R   0.502068 0.543003 0.145049 0.053614
C186  C     C_R   0.481632 0.575769 0.122141 -0.086864
C187  C     C_R   0.506362 0.593533 0.081188 -0.127858
C188  C     C_R   0.552454 0.579639 0.062037 -0.109786
C189  C     C_R   0.574419 0.548334 0.084461 -0.114016
C190  C     C_3   0.994121 0.978530 0.699805 -0.208634
C191  C     C_R   0.550088 0.530579 0.125667 -0.102929
C192  C     C_R   0.447748 0.539855 0.842510 0.060676
C193  C     C_R   0.412298 0.567976 0.857436 -0.080533
C194  C     C_R   0.413200 0.583453 0.906757 -0.117672
C195  C     C_R   0.448864 0.571330 0.942992 -0.104646
C196  C     C_R   0.483656 0.543558 0.930079 -0.116902
C197  C     C_R   0.483161 0.528073 0.880791 -0.104617
C198  C     C_R   0.436348 0.459916 0.840953 0.033287
C199  C     C_R   0.390825 0.469636 0.867880 -0.086123
C200  C     C_R   0.378874 0.453983 0.915623 -0.114986
C201  C     C_3   0.975948 0.977728 0.290919 -0.226682
C202  C     C_R   0.411556 0.427831 0.937690 -0.109925
C203  C     C_R   0.456645 0.417731 0.912417 -0.114595
C204  C     C_R   0.469127 0.433486 0.864802 -0.105220
C205  C     C_R   0.491106 0.462276 0.137461 0.066958
C206  C     C_R   0.531483 0.436032 0.131766 -0.101117
C207  C     C_R   0.547293 0.424010 0.083094 -0.117772
C208  C     C_R   0.523423 0.437467 0.038866 -0.108029
C209  C     C_R   0.482978 0.462551 0.043139 -0.117207
C210  C     C_R   0.466397 0.474248 0.091577 -0.082575
C211  C     C_R   0.001456 0.043004 0.145060 0.053629
C212  C     C_3   0.972653 0.520432 0.791420 -0.232910
C213  C     C_R   0.980879 0.075765 0.122265 -0.086768
C214  C     C_R   0.005367 0.093529 0.081166 -0.127767
C215  C     C_R   0.051351 0.079641 0.061751 -0.109892
C216  C     C_R   0.073455 0.048341 0.084052 -0.114186
C217  C     C_R   0.049369 0.030586 0.125404 -0.102958
C218  C     C_R   0.947446 0.039849 0.842328 0.060675
C219  C     C_R   0.911958 0.067978 0.857137 -0.080512
C220  C     C_R   0.912695 0.083447 0.906466 -0.117652
C221  C     C_R   0.948224 0.071307 0.942823 -0.104685
C222  C     C_R   0.983046 0.043527 0.930025 -0.116900
C223  C     C_R   0.499952 0.650494 0.250020 0.504545
C224  C     C_3   0.994564 0.521390 0.199157 -0.228281
C225  C     C_R   0.982719 0.028053 0.880729 -0.104606
C226  C     C_R   0.936024 0.959912 0.840710 0.033247
C227  C     C_R   0.890411 0.969637 0.867480 -0.086074
C228  C     C_R   0.878285 0.953978 0.915174 -0.114940
C229  C     C_R   0.910875 0.927811 0.937343 -0.109929
C230  C     C_R   0.956044 0.917701 0.912221 -0.114516
C231  C     C_R   0.968708 0.933470 0.864664 -0.105160
C232  C     C_R   0.990474 0.962276 0.137540 0.067003
C233  C     C_R   0.030834 0.936045 0.131617 -0.101127
C234  C     C_R   0.046397 0.924045 0.082856 -0.117866
C235  C     C_3   0.994066 0.478529 0.199811 -0.208649
C236  C     C_R   0.022284 0.937504 0.038763 -0.108008
C237  C     C_R   0.981830 0.962562 0.043264 -0.117128
C238  C     C_R   0.965502 0.974242 0.091795 -0.082538
C239  C     C_R   0.001634 0.543001 0.645052 0.053606
C240  C     C_R   0.981095 0.575763 0.622223 -0.086792
C241  C     C_R   0.005649 0.593524 0.581161 -0.127791
C242  C     C_R   0.051663 0.579634 0.561821 -0.109860
C243  C     C_R   0.073730 0.548334 0.584159 -0.114060
C244  C     C_R   0.049576 0.530581 0.625472 -0.102924
C245  C     C_R   0.947510 0.539852 0.342370 0.060670
C246  C     C_3   0.975892 0.477728 0.790872 -0.226661
C247  C     C_R   0.912031 0.567979 0.357207 -0.080515
C248  C     C_R   0.912809 0.583451 0.406533 -0.117651
C249  C     C_R   0.948372 0.571317 0.442860 -0.104672
C250  C     C_R   0.983188 0.543538 0.430035 -0.116900
C251  C     C_R   0.982818 0.528060 0.380741 -0.104604
C252  C     C_R   0.936094 0.459915 0.340769 0.033280
C253  C     C_R   0.890503 0.469639 0.367578 -0.086115
C254  C     C_R   0.878422 0.453984 0.415286 -0.114978
C255  C     C_R   0.911037 0.427822 0.437432 -0.109925
C256  C     C_R   0.956185 0.417714 0.412272 -0.114551
C257  C     C_1   0.001342 0.389189 0.747489 0.000461
C258  C     C_R   0.968802 0.433477 0.364698 -0.105182
C259  C     C_R   0.990655 0.462274 0.637515 0.066974
C260  C     C_R   0.031019 0.436039 0.631656 -0.101097
C261  C     C_R   0.046647 0.424030 0.582920 -0.117803
C262  C     C_R   0.022598 0.437486 0.538789 -0.108019
C263  C     C_R   0.982148 0.462552 0.543227 -0.117149
C264  C     C_R   0.965754 0.474241 0.591732 -0.082554
C265  C     C_1   0.999751 0.389112 0.250456 -0.012810
C266  C     C_1   0.000245 0.610815 0.251350 -0.008002
C267  C     C_1   0.000441 0.610875 0.749285 0.002188
C268  C     C_1   0.001336 0.889189 0.247493 0.000495
C269  C     C_1   0.999753 0.889112 0.750454 -0.012678
C270  C     C_1   0.000250 0.110815 0.751353 -0.008103
C271  C     C_R   0.500129 0.650476 0.750312 0.505352
C272  C     C_1   0.000434 0.110875 0.249291 0.002275
C273  C     C_1   0.501347 0.389189 0.247484 0.000452
C274  C     C_1   0.499761 0.389112 0.750467 -0.012823
C275  C     C_1   0.500248 0.610815 0.751352 -0.007994
C276  C     C_1   0.500445 0.610874 0.249282 0.002185
C277  C     C_1   0.500081 0.889127 0.748967 0.001290
C278  C     C_1   0.500844 0.889180 0.252040 -0.013210
C279  C     C_1   0.499864 0.110873 0.250233 -0.006110
C280  C     C_1   0.500233 0.110824 0.749144 0.000213
C281  C     C_3   0.497068 0.036648 0.744917 0.084628
C282  C     C_R   0.500089 0.849530 0.250242 0.505140
C283  C     C_3   0.497741 0.036722 0.255128 0.062291
C284  C     C_3   0.498843 0.963355 0.259011 0.077425
C285  C     C_3   0.496891 0.963244 0.743134 0.078368
C286  C     C_3   0.500265 0.536772 0.243419 0.084764
C287  C     C_3   0.496216 0.536617 0.755070 0.062843
C288  C     C_3   0.495577 0.463206 0.756146 0.076683
C289  C     C_3   0.501779 0.463374 0.240271 0.078208
C290  C     C_3   0.000220 0.036773 0.243440 0.084709
C291  C     C_3   0.996209 0.036617 0.755052 0.062887
C292  C     C_3   0.995556 0.963206 0.756115 0.076633
C293  C     C_R   0.499956 0.849505 0.749889 0.504405
C294  C     C_3   0.001725 0.963375 0.240287 0.078158
C295  C     C_3   0.000241 0.536773 0.743430 0.084762
C296  C     C_3   0.996200 0.536617 0.255053 0.062842
C297  C     C_3   0.995551 0.463206 0.256121 0.076675
C298  C     C_3   0.001747 0.463375 0.740280 0.078202
C299  C     C_3   0.057519 0.479223 0.741766 -0.262690
C300  C     C_3   0.045771 0.478656 0.280800 -0.257151
C301  C     C_3   0.047120 0.521466 0.278061 -0.246895
C302  C     C_3   0.056468 0.522082 0.746617 -0.252612
C303  C     C_3   0.057498 0.979224 0.241686 -0.262674
C304  C     C_R   0.500075 0.150478 0.749853 0.504151
C305  C     C_3   0.045756 0.978654 0.780838 -0.257112
C306  C     C_3   0.047109 0.021465 0.778103 -0.246920
C307  C     C_3   0.056452 0.022084 0.246538 -0.252608
C308  C     C_3   0.557545 0.479220 0.241987 -0.262690
C309  C     C_3   0.545861 0.478661 0.780691 -0.257150
C310  C     C_3   0.547199 0.521470 0.777945 -0.246895
C311  C     C_3   0.556477 0.522079 0.246837 -0.252610
C312  C     C_3   0.543556 0.978886 0.712281 -0.262721
C313  C     C_3   0.554498 0.979340 0.260024 -0.257368
C314  C     C_3   0.553848 0.022035 0.255522 -0.246714
C315  C     C_R   0.499911 0.150497 0.249990 0.507035
C316  C     C_3   0.545248 0.021816 0.715917 -0.252026
C317  C     C_1   0.001923 0.422522 0.744300 -0.042374
C318  C     C_1   0.998442 0.422438 0.252366 -0.078440
C319  C     C_1   0.999111 0.577460 0.252986 -0.071837
C320  C     C_1   0.000524 0.577545 0.747431 -0.032927
C321  C     C_1   0.001909 0.922522 0.244306 -0.042352
C322  C     C_1   0.998447 0.922438 0.752361 -0.078382
C323  C     C_1   0.999120 0.077460 0.752988 -0.071895
C324  C     C_1   0.000511 0.077545 0.247440 -0.032873
C325  C     C_1   0.501938 0.422522 0.244292 -0.042378
C326  C     C_R   0.999943 0.349499 0.250014 0.504663
C327  C     C_1   0.498460 0.422438 0.752386 -0.078431
C328  C     C_1   0.499119 0.577460 0.752993 -0.071833
C329  C     C_1   0.500535 0.577544 0.247424 -0.032922
C330  C     C_1   0.499195 0.922462 0.746759 -0.042535
C331  C     C_1   0.500474 0.922508 0.255031 -0.077874
C332  C     C_1   0.499256 0.077528 0.251533 -0.071208
C333  C     C_1   0.499370 0.077472 0.747583 -0.034365
C334  C     C_R   0.532656 0.225874 0.973358 -0.138235
C335  C     C_R   0.532638 0.225883 0.026766 -0.138214
C336  C     C_R   0.532240 0.774384 0.026644 -0.137575
H1    H     H_    0.296790 0.207791 0.690841 0.134129
H2    H     H_    0.796797 0.207811 0.809382 0.134595
H3    H     H_    0.579979 0.967506 0.728477 0.120992
H4    H     H_    0.573277 0.529889 0.284767 0.120204
H5    H     H_    0.579941 0.529908 0.752826 0.121446
H6    H     H_    0.579701 0.467581 0.759350 0.123581
H7    H     H_    0.578313 0.467526 0.275839 0.121834
H8    H     H_    0.073467 0.029897 0.284372 0.120498
H9    H     H_    0.079940 0.029903 0.753100 0.121132
H10   H     H_    0.079669 0.967575 0.759613 0.123571
H11   H     H_    0.078458 0.967533 0.275420 0.122103
H12   H     H_    0.073424 0.529895 0.784477 0.120209
H13   H     H_    0.796744 0.792102 0.809311 0.137876
H14   H     H_    0.079929 0.529904 0.253028 0.121443
H15   H     H_    0.079666 0.467576 0.259546 0.123576
H16   H     H_    0.078427 0.467531 0.775534 0.121837
H17   H     H_    0.558025 0.206904 0.953330 0.135998
H18   H     H_    0.558001 0.206916 0.046896 0.136205
H19   H     H_    0.557209 0.793614 0.046674 0.136299
H20   H     H_    0.557176 0.793610 0.953109 0.136508
H21   H     H_    0.558136 0.706980 0.453332 0.135878
H22   H     H_    0.558110 0.706991 0.546898 0.136204
H23   H     H_    0.557119 0.293670 0.546671 0.136304
H24   H     H_    0.796738 0.792192 0.190624 0.138353
H25   H     H_    0.557099 0.293656 0.453108 0.136364
H26   H     H_    0.058027 0.206906 0.453330 0.136015
H27   H     H_    0.058003 0.206917 0.546896 0.136140
H28   H     H_    0.057207 0.793616 0.546674 0.136311
H29   H     H_    0.057175 0.793611 0.453109 0.136329
H30   H     H_    0.058026 0.706905 0.953330 0.135949
H31   H     H_    0.058002 0.706917 0.046896 0.136183
H32   H     H_    0.057205 0.293617 0.046674 0.136305
H33   H     H_    0.057173 0.293612 0.953110 0.136364
H34   H     H_    0.898396 0.471956 0.727222 0.219805
H35   H     H_    0.796787 0.707917 0.690677 0.136421
H36   H     H_    0.895052 0.469815 0.663080 0.218251
H37   H     H_    0.899320 0.434567 0.255445 0.233573
H38   H     H_    0.865763 0.472683 0.269266 0.239760
H39   H     H_    0.894234 0.525156 0.224023 0.251771
H40   H     H_    0.903029 0.565368 0.252512 0.216020
H41   H     H_    0.896961 0.530616 0.721992 0.225835
H42   H     H_    0.900676 0.531630 0.657208 0.210974
H43   H     H_    0.898353 0.971951 0.227390 0.219800
H44   H     H_    0.894909 0.969814 0.163253 0.218248
H45   H     H_    0.899325 0.934570 0.755351 0.233648
H46   H     H_    0.796796 0.707781 0.309342 0.134626
H47   H     H_    0.865758 0.972686 0.769147 0.239834
H48   H     H_    0.894270 0.025161 0.723934 0.251819
H49   H     H_    0.903040 0.065371 0.752436 0.215996
H50   H     H_    0.896906 0.030611 0.222166 0.225873
H51   H     H_    0.900519 0.031628 0.157377 0.210987
H52   H     H_    0.398482 0.471965 0.226787 0.219806
H53   H     H_    0.395403 0.469823 0.162631 0.218246
H54   H     H_    0.399347 0.434559 0.755735 0.233579
H55   H     H_    0.365824 0.472676 0.769634 0.239756
H56   H     H_    0.394172 0.525145 0.724303 0.251769
H57   H     H_    0.796743 0.292134 0.309269 0.137843
H58   H     H_    0.403036 0.565361 0.752764 0.216026
H59   H     H_    0.397073 0.530624 0.221549 0.225834
H60   H     H_    0.401058 0.531638 0.156782 0.210976
H61   H     H_    0.404951 0.973529 0.791800 0.219639
H62   H     H_    0.365327 0.969627 0.741626 0.219112
H63   H     H_    0.412858 0.933851 0.301989 0.235246
H64   H     H_    0.387177 0.972315 0.326663 0.239628
H65   H     H_    0.392115 0.022758 0.268646 0.252456
H66   H     H_    0.410181 0.064265 0.287667 0.216685
H67   H     H_    0.399639 0.032010 0.785111 0.225874
H68   H     H_    0.796739 0.292168 0.690591 0.138374
H69   H     H_    0.366283 0.031256 0.729319 0.212291
H70   H     H_    0.394758 0.088265 0.684968 0.149699
H71   H     H_    0.390633 0.116753 0.600611 0.107878
H72   H     H_    0.437051 0.089559 0.526824 0.105817
H73   H     H_    0.489456 0.032898 0.538811 0.116225
H74   H     H_    0.494934 0.003243 0.622046 0.101334
H75   H     H_    0.423296 0.080882 0.367069 0.129515
H76   H     H_    0.460138 0.112087 0.440155 0.099842
H77   H     H_    0.544810 0.093431 0.474936 0.111214
H78   H     H_    0.593394 0.042485 0.433723 0.106082
H79   H     H_    0.442352 0.293347 0.046669 0.138345
H80   H     H_    0.558821 0.010376 0.359751 0.102504
H81   H     H_    0.420948 0.992632 0.400875 0.119821
H82   H     H_    0.443868 0.971613 0.487122 0.115209
H83   H     H_    0.516965 0.928592 0.500343 0.102310
H84   H     H_    0.566541 0.905915 0.425562 0.106682
H85   H     H_    0.545768 0.925734 0.339552 0.105047
H86   H     H_    0.494634 0.923589 0.652082 0.100071
H87   H     H_    0.464493 0.898319 0.572297 0.105432
H88   H     H_    0.381958 0.918565 0.534388 0.109526
H89   H     H_    0.328721 0.965321 0.579269 0.104141
H90   H     H_    0.442393 0.293351 0.953096 0.136718
H91   H     H_    0.356711 0.991628 0.660785 0.091133
H92   H     H_    0.446623 0.588529 0.135953 0.149778
H93   H     H_    0.489714 0.618305 0.064394 0.106021
H94   H     H_    0.571412 0.593355 0.030151 0.111032
H95   H     H_    0.610595 0.537737 0.069963 0.106399
H96   H     H_    0.569206 0.506707 0.141270 0.103100
H97   H     H_    0.383009 0.578489 0.831866 0.127962
H98   H     H_    0.385829 0.604875 0.916951 0.104102
H99   H     H_    0.449210 0.583231 0.981214 0.109679
H100  H     H_    0.510907 0.533680 0.958517 0.112860
H101  H     H_    0.443332 0.705998 0.953325 0.133819
H102  H     H_    0.509651 0.505787 0.874061 0.099540
H103  H     H_    0.364370 0.489905 0.852194 0.120428
H104  H     H_    0.344001 0.462087 0.935424 0.104368
H105  H     H_    0.402137 0.415562 0.974577 0.113784
H106  H     H_    0.482069 0.397423 0.929699 0.106329
H107  H     H_    0.504432 0.424081 0.847876 0.104180
H108  H     H_    0.552219 0.424478 0.163711 0.100681
H109  H     H_    0.578546 0.404290 0.079709 0.107197
H110  H     H_    0.536304 0.428443 0.001294 0.103790
H111  H     H_    0.464566 0.473289 0.008853 0.121163
H112  H     H_    0.296795 0.207861 0.309445 0.135518
H113  H     H_    0.443397 0.705982 0.046904 0.131331
H114  H     H_    0.435164 0.494017 0.092799 0.092407
H115  H     H_    0.945947 0.088521 0.136278 0.149798
H116  H     H_    0.988615 0.118297 0.064465 0.105980
H117  H     H_    0.070119 0.093356 0.029751 0.111047
H118  H     H_    0.109548 0.037748 0.069346 0.106129
H119  H     H_    0.068584 0.006719 0.140901 0.103015
H120  H     H_    0.882765 0.078504 0.831468 0.127905
H121  H     H_    0.885300 0.104875 0.916569 0.104081
H122  H     H_    0.948441 0.083202 0.981050 0.109694
H123  H     H_    0.010190 0.033635 0.958557 0.112974
H124  H     H_    0.442222 0.793260 0.546673 0.135920
H125  H     H_    0.009223 0.005763 0.874085 0.099560
H126  H     H_    0.864019 0.989915 0.851707 0.120443
H127  H     H_    0.843347 0.962085 0.934856 0.104382
H128  H     H_    0.901318 0.915532 0.974189 0.113651
H129  H     H_    0.981390 0.897374 0.929576 0.106298
H130  H     H_    0.004073 0.924065 0.847864 0.104258
H131  H     H_    0.051745 0.924488 0.163446 0.100681
H132  H     H_    0.077649 0.904341 0.079294 0.107185
H133  H     H_    0.034984 0.928503 0.001120 0.103904
H134  H     H_    0.963221 0.973294 0.009081 0.121074
H135  H     H_    0.442237 0.793238 0.453101 0.137390
H136  H     H_    0.934261 0.993999 0.093194 0.092362
H137  H     H_    0.946141 0.588521 0.636179 0.149781
H138  H     H_    0.988925 0.618293 0.564432 0.105988
H139  H     H_    0.070483 0.593348 0.529850 0.111046
H140  H     H_    0.109846 0.537740 0.569511 0.106372
H141  H     H_    0.068764 0.506713 0.641000 0.103098
H142  H     H_    0.882814 0.578500 0.331562 0.127959
H143  H     H_    0.885421 0.604878 0.416658 0.104094
H144  H     H_    0.948622 0.583214 0.481085 0.109675
H145  H     H_    0.010359 0.533651 0.458543 0.112930
H146  H     H_    0.443430 0.205926 0.453320 0.131485
H147  H     H_    0.009319 0.505771 0.374077 0.099545
H148  H     H_    0.864095 0.489913 0.351826 0.120435
H149  H     H_    0.843501 0.462091 0.434998 0.104354
H150  H     H_    0.901516 0.415548 0.474291 0.113682
H151  H     H_    0.981551 0.397393 0.429611 0.106267
H152  H     H_    0.004151 0.424070 0.347867 0.104189
H153  H     H_    0.051884 0.424484 0.663517 0.100682
H154  H     H_    0.077899 0.404321 0.579407 0.107185
H155  H     H_    0.035345 0.428476 0.501166 0.103816
H156  H     H_    0.963591 0.473284 0.509015 0.121092
H157  H     H_    0.443429 0.205952 0.546901 0.132269
H158  H     H_    0.934516 0.494001 0.593082 0.092372
H159  H     H_    0.942349 0.293346 0.546669 0.138340
H160  H     H_    0.942390 0.293349 0.453096 0.136705
H161  H     H_    0.943334 0.705997 0.453325 0.133804
H162  H     H_    0.943399 0.705981 0.546905 0.131301
H163  H     H_    0.942350 0.793346 0.046669 0.138338
H164  H     H_    0.296742 0.792063 0.309361 0.136852
H165  H     H_    0.942391 0.793350 0.953096 0.136687
H166  H     H_    0.943336 0.205996 0.953325 0.133800
H167  H     H_    0.943401 0.205979 0.046905 0.131286
H168  H     H_    0.203286 0.207796 0.690831 0.135656
H169  H     H_    0.203286 0.207859 0.309448 0.136119
H170  H     H_    0.203239 0.792060 0.309354 0.136395
H171  H     H_    0.203233 0.792247 0.690709 0.137053
H172  H     H_    0.203283 0.707950 0.190626 0.136202
H173  H     H_    0.203288 0.707734 0.809277 0.135789
H174  H     H_    0.203241 0.292202 0.809158 0.136572
H175  H     H_    0.296740 0.792256 0.690706 0.139410
H176  H     H_    0.203231 0.292119 0.190536 0.136790
H177  H     H_    0.703284 0.207886 0.190715 0.136276
H178  H     H_    0.703288 0.207814 0.809391 0.135634
H179  H     H_    0.703240 0.792095 0.809308 0.136703
H180  H     H_    0.703232 0.792187 0.190631 0.136704
H181  H     H_    0.703284 0.707916 0.690673 0.136203
H182  H     H_    0.703287 0.707783 0.309349 0.135749
H183  H     H_    0.703239 0.292127 0.309265 0.136606
H184  H     H_    0.703232 0.292164 0.690599 0.136792
H185  H     H_    0.536949 0.031658 0.819127 0.113214
H186  H     H_    0.296787 0.707949 0.190631 0.136420
H187  H     H_    0.496363 0.029502 0.171184 0.114737
H188  H     H_    0.494851 0.966765 0.174218 0.108550
H189  H     H_    0.543215 0.969557 0.813427 0.115116
H190  H     H_    0.491345 0.530770 0.327027 0.111924
H191  H     H_    0.528937 0.530970 0.677447 0.114554
H192  H     H_    0.527925 0.468231 0.677946 0.108281
H193  H     H_    0.498991 0.468683 0.324584 0.114778
H194  H     H_    0.991780 0.030771 0.327099 0.112068
H195  H     H_    0.029197 0.030974 0.677542 0.114406
H196  H     H_    0.028181 0.968235 0.678030 0.108221
H197  H     H_    0.296797 0.707733 0.809272 0.134653
H198  H     H_    0.999415 0.968684 0.324615 0.114900
H199  H     H_    0.991669 0.530771 0.827076 0.111935
H200  H     H_    0.029122 0.530972 0.177515 0.114555
H201  H     H_    0.028107 0.468233 0.178007 0.108288
H202  H     H_    0.999306 0.468684 0.824604 0.114793
H203  H     H_    0.469720 0.029931 0.825966 0.113944
H204  H     H_    0.434284 0.031429 0.198140 0.111481
H205  H     H_    0.433326 0.967439 0.204207 0.151996
H206  H     H_    0.477432 0.965672 0.827279 0.119130
H207  H     H_    0.431995 0.529682 0.294751 0.114942
H208  H     H_    0.296744 0.292206 0.809163 0.137790
H209  H     H_    0.461258 0.532362 0.677018 0.112444
H210  H     H_    0.459538 0.468287 0.678758 0.152181
H211  H     H_    0.437276 0.465331 0.297762 0.117404
H212  H     H_    0.932247 0.029681 0.295165 0.115007
H213  H     H_    0.961519 0.032368 0.676879 0.112520
H214  H     H_    0.959792 0.968292 0.678599 0.152281
H215  H     H_    0.937549 0.965329 0.298145 0.117408
H216  H     H_    0.932186 0.529681 0.795047 0.114945
H217  H     H_    0.961444 0.532366 0.176910 0.112451
H218  H     H_    0.959718 0.468290 0.178637 0.152189
H219  H     H_    0.296738 0.292126 0.190531 0.138378
H220  H     H_    0.937482 0.465330 0.798038 0.117403
H221  H     H_    0.549824 0.034661 0.677417 0.121618
H222  H     H_    0.577817 0.035336 0.285474 0.118115
H223  H     H_    0.576134 0.971249 0.294838 0.101065
H224  H     H_    0.543701 0.970175 0.671624 0.097055
H225  H     H_    0.582206 0.535400 0.218305 0.121149
H226  H     H_    0.556632 0.534038 0.815631 0.118436
H227  H     H_    0.551395 0.469485 0.820855 0.097798
H228  H     H_    0.580890 0.471084 0.208408 0.100097
H229  H     H_    0.082016 0.035406 0.217859 0.121009
H230  H     H_    0.796787 0.207887 0.190717 0.136439
H231  H     H_    0.056411 0.034029 0.815825 0.118453
H232  H     H_    0.051148 0.969473 0.821018 0.097892
H233  H     H_    0.080654 0.971091 0.207976 0.100021
H234  H     H_    0.082077 0.535404 0.717978 0.121133
H235  H     H_    0.056455 0.534032 0.315773 0.118436
H236  H     H_    0.051198 0.469477 0.320976 0.097790
H237  H     H_    0.080727 0.471088 0.708093 0.100089
H238  H     H_    0.580639 0.030016 0.737248 0.119760
H239  H     H_    0.573271 0.030006 0.218885 0.122047
H240  H     H_    0.576777 0.967830 0.227075 0.124304
N1    N     N_3   0.918104 0.463103 0.694655 -0.628317
N2    N     N_3   0.401068 0.463576 0.755000 -0.651330
N3    N     N_3   0.399968 0.536975 0.760446 -0.658371
N4    N     N_3   0.420043 0.538778 0.190815 -0.663792
N5    N     N_3   0.402413 0.963435 0.754414 -0.628714
N6    N     N_3   0.412948 0.962809 0.298763 -0.651122
N7    N     N_3   0.411553 0.036296 0.298292 -0.657331
N8    N     N_3   0.401153 0.038873 0.746271 -0.666925
N9    N     N_3   0.901045 0.463584 0.254723 -0.651324
N10   N     N_3   0.899938 0.536982 0.260183 -0.658360
N11   N     N_3   0.919800 0.538772 0.691162 -0.663802
N12   N     N_3   0.918011 0.963101 0.194792 -0.628344
N13   N     N_3   0.901051 0.963587 0.754634 -0.651196
N14   N     N_3   0.899942 0.036984 0.760101 -0.658381
N15   N     N_3   0.919697 0.038770 0.191301 -0.663772
N16   N     N_3   0.418324 0.463109 0.194302 -0.628312
O1    O     O_3   0.500010 0.250000 0.750000 -0.432918
O2    O     O_R   0.469640 0.332020 0.219590 -0.530549
O3    O     O_R   0.030350 0.667980 0.219700 -0.539571
O4    O     O_R   0.030350 0.832020 0.719700 -0.539892
O5    O     O_R   0.030350 0.832020 0.280300 -0.543777
O6    O     O_R   0.030350 0.167980 0.280300 -0.541455
O7    O     O_R   0.030350 0.167980 0.719700 -0.539675
O8    O     O_R   0.469640 0.667980 0.219590 -0.538316
O9    O     O_R   0.469640 0.667980 0.780410 -0.539643
O10   O     O_R   0.469640 0.832020 0.280410 -0.538164
O11   O     O_R   0.469640 0.832020 0.719590 -0.533364
O12   O     O_R   0.469640 0.167980 0.719590 -0.539341
O13   O     O_R   0.469640 0.167980 0.280410 -0.541149
O14   O     O_R   0.969640 0.332020 0.280410 -0.537701
O15   O     O_R   0.969640 0.332020 0.719590 -0.530529
O16   O     O_R   0.969640 0.667980 0.719590 -0.538322
O17   O     O_3   0.500010 0.250000 0.250000 -0.433721
O18   O     O_R   0.969640 0.667980 0.280410 -0.539522
O19   O     O_R   0.969640 0.832020 0.780410 -0.537677
O20   O     O_R   0.969640 0.832020 0.219590 -0.530554
O21   O     O_R   0.969640 0.167980 0.219590 -0.538316
O22   O     O_R   0.969640 0.167980 0.780410 -0.539501
O23   O     O_R   0.530360 0.271520 0.634240 -0.548604
O24   O     O_R   0.530360 0.271520 0.365760 -0.548266
O25   O     O_R   0.530360 0.728480 0.365760 -0.549391
O26   O     O_R   0.530360 0.728480 0.634240 -0.549187
O27   O     O_R   0.530360 0.771520 0.134240 -0.548443
O28   O     O_3   0.500010 0.750000 0.250000 -0.433044
O29   O     O_R   0.530360 0.771520 0.865760 -0.548225
O30   O     O_R   0.530360 0.228480 0.865760 -0.548985
O31   O     O_R   0.530360 0.228480 0.134240 -0.549625
O32   O     O_R   0.030360 0.271520 0.134240 -0.548470
O33   O     O_R   0.030360 0.271520 0.865760 -0.548439
O34   O     O_R   0.030360 0.728480 0.865760 -0.549255
O35   O     O_R   0.030360 0.728480 0.134240 -0.549440
O36   O     O_R   0.030360 0.771520 0.634240 -0.548470
O37   O     O_R   0.030360 0.771520 0.365760 -0.548466
O38   O     O_R   0.030360 0.228480 0.365760 -0.549242
O39   O     O_3   0.500010 0.750000 0.750000 -0.433695
O40   O     O_R   0.030360 0.228480 0.634240 -0.549468
O41   O     O_R   0.615810 0.271520 0.719700 -0.548663
O42   O     O_R   0.615810 0.271520 0.280300 -0.548847
O43   O     O_R   0.615810 0.728480 0.280300 -0.548582
O44   O     O_R   0.615810 0.728480 0.719700 -0.548868
O45   O     O_R   0.615810 0.771520 0.219700 -0.548737
O46   O     O_R   0.615810 0.771520 0.780300 -0.549010
O47   O     O_R   0.615810 0.228480 0.780300 -0.548964
O48   O     O_R   0.615810 0.228480 0.219700 -0.548582
O49   O     O_R   0.115810 0.271520 0.219700 -0.548657
O50   O     O_3   0.000010 0.250000 0.250000 -0.433212
O51   O     O_R   0.115810 0.271520 0.780300 -0.548905
O52   O     O_R   0.115810 0.728480 0.780300 -0.548588
O53   O     O_R   0.115810 0.728480 0.219700 -0.548800
O54   O     O_R   0.115810 0.771520 0.719700 -0.548578
O55   O     O_R   0.115810 0.771520 0.280300 -0.548934
O56   O     O_R   0.115810 0.228480 0.280300 -0.548564
O57   O     O_R   0.115810 0.228480 0.719700 -0.548886
O58   O     O_R   0.384200 0.271530 0.780390 -0.547544
O59   O     O_R   0.384200 0.271530 0.219610 -0.547222
O60   O     O_R   0.384200 0.728470 0.219610 -0.548719
O61   O     O_3   0.000010 0.250000 0.750000 -0.433713
O62   O     O_R   0.384200 0.728470 0.780390 -0.550104
O63   O     O_R   0.384200 0.771530 0.280390 -0.548469
O64   O     O_R   0.384200 0.771530 0.719610 -0.545936
O65   O     O_R   0.384200 0.228470 0.719610 -0.550063
O66   O     O_R   0.384200 0.228470 0.280390 -0.550005
O67   O     O_R   0.884200 0.271530 0.280390 -0.547767
O68   O     O_R   0.884200 0.271530 0.719610 -0.547194
O69   O     O_R   0.884200 0.728470 0.719610 -0.548790
O70   O     O_R   0.884200 0.728470 0.280390 -0.550160
O71   O     O_R   0.884200 0.771530 0.780390 -0.547767
O72   O     O_3   0.000010 0.750000 0.750000 -0.433226
O73   O     O_R   0.884200 0.771530 0.219610 -0.547203
O74   O     O_R   0.884200 0.228470 0.219610 -0.548781
O75   O     O_R   0.884200 0.228470 0.780390 -0.550176
O76   O     O_R   0.469640 0.228530 0.634220 -0.549507
O77   O     O_R   0.469640 0.228530 0.365780 -0.548957
O78   O     O_R   0.469640 0.771470 0.365780 -0.548155
O79   O     O_R   0.469640 0.771470 0.634220 -0.549488
O80   O     O_R   0.469640 0.728530 0.134220 -0.549911
O81   O     O_R   0.469640 0.728530 0.865780 -0.548457
O82   O     O_R   0.469640 0.271470 0.865780 -0.548518
O83   O     O_3   0.000010 0.750000 0.250000 -0.433741
O84   O     O_R   0.469640 0.271470 0.134220 -0.547791
O85   O     O_R   0.969640 0.228530 0.134220 -0.549937
O86   O     O_R   0.969640 0.228530 0.865780 -0.548544
O87   O     O_R   0.969640 0.771470 0.865780 -0.548599
O88   O     O_R   0.969640 0.771470 0.134220 -0.547761
O89   O     O_R   0.969640 0.728530 0.634220 -0.549924
O90   O     O_R   0.969640 0.728530 0.365780 -0.548542
O91   O     O_R   0.969640 0.271470 0.365780 -0.548586
O92   O     O_R   0.969640 0.271470 0.634220 -0.547754
O93   O     O_R   0.530350 0.332020 0.719700 -0.539948
O94   O     O_R   0.469640 0.332020 0.780410 -0.537701
O95   O     O_R   0.530350 0.332020 0.280300 -0.543902
O96   O     O_R   0.530350 0.667980 0.280300 -0.541561
O97   O     O_R   0.530350 0.667980 0.719700 -0.539547
O98   O     O_R   0.530350 0.832020 0.219700 -0.540151
O99   O     O_R   0.530350 0.832020 0.780300 -0.542307
O100  O     O_R   0.530350 0.167980 0.780300 -0.541099
O101  O     O_R   0.530350 0.167980 0.219700 -0.539142
O102  O     O_R   0.030350 0.332020 0.219700 -0.539986
O103  O     O_R   0.030350 0.332020 0.780300 -0.543811
O104  O     O_R   0.030350 0.667980 0.780300 -0.541566
Zn1   Zn    Zn3+2 0.456630 0.219310 0.706640 0.931136
Zn2   Zn    Zn3+2 0.956630 0.219310 0.793360 0.932011
Zn3   Zn    Zn3+2 0.956630 0.780690 0.793360 0.934665
Zn4   Zn    Zn3+2 0.956630 0.780690 0.206640 0.939675
Zn5   Zn    Zn3+2 0.956630 0.719310 0.706640 0.932857
Zn6   Zn    Zn3+2 0.956630 0.719310 0.293360 0.932029
Zn7   Zn    Zn3+2 0.956630 0.280690 0.293360 0.934600
Zn8   Zn    Zn3+2 0.956630 0.280690 0.706640 0.939692
Zn9   Zn    Zn3+2 0.543380 0.280740 0.706670 0.932741
Zn10  Zn    Zn3+2 0.543380 0.280740 0.293330 0.931991
Zn11  Zn    Zn3+2 0.543380 0.719260 0.293330 0.932704
Zn12  Zn    Zn3+2 0.456630 0.219310 0.293360 0.931523
Zn13  Zn    Zn3+2 0.543380 0.719260 0.706670 0.931695
Zn14  Zn    Zn3+2 0.543380 0.780740 0.206670 0.932968
Zn15  Zn    Zn3+2 0.543380 0.780740 0.793330 0.932744
Zn16  Zn    Zn3+2 0.543380 0.219260 0.793330 0.932467
Zn17  Zn    Zn3+2 0.543380 0.219260 0.206670 0.932760
Zn18  Zn    Zn3+2 0.043380 0.280740 0.206670 0.933006
Zn19  Zn    Zn3+2 0.043380 0.280740 0.793330 0.931540
Zn20  Zn    Zn3+2 0.043380 0.719260 0.793330 0.932662
Zn21  Zn    Zn3+2 0.043380 0.719260 0.206670 0.931954
Zn22  Zn    Zn3+2 0.043380 0.780740 0.706670 0.933229
Zn23  Zn    Zn3+2 0.456630 0.780690 0.293360 0.934200
Zn24  Zn    Zn3+2 0.043380 0.780740 0.293330 0.931516
Zn25  Zn    Zn3+2 0.043380 0.219260 0.293330 0.932766
Zn26  Zn    Zn3+2 0.043380 0.219260 0.706670 0.931760
Zn27  Zn    Zn3+2 0.456630 0.780690 0.706640 0.938470
Zn28  Zn    Zn3+2 0.456630 0.719310 0.206640 0.932885
Zn29  Zn    Zn3+2 0.456630 0.719310 0.793360 0.932706
Zn30  Zn    Zn3+2 0.456630 0.280690 0.793360 0.934895
Zn31  Zn    Zn3+2 0.456630 0.280690 0.206640 0.939605
Zn32  Zn    Zn3+2 0.956630 0.219310 0.206640 0.932881

loop_
_geom_bond_atom_site_label_1
_geom_bond_atom_site_label_2
_ccdc_geom_bond_type
C172  C177  A    
C262  H155  S    
C52   O23   A    
C168  C290  S    
O88   Zn4   S    
C271  O9    A    
C58   O29   A    
C260  H153  S    
C335  H18   S    
C240  H137  S    
C93   C136  A    
O19   Zn3   S    
C113  H189  S    
C101  H205  S    
C81   C134  S    
O50   Zn7   S    
C170  H78   S    
H61   N5    S    
C72   C131  S    
O38   Zn25  S    
C212  H216  S    
C316  H238  S    
C228  H127  S    
C14   C30   A    
C88   C133  A    
C154  C158  S    
C120  H182  S    
C271  O97   A    
C92   C109  A    
O54   Zn22  S    
C6    C25   A    
C303  H233  S    
C246  C298  S    
C158  C259  S    
C155  N10   S    
C94   C111  A    
C95   C133  A    
C119  C130  A    
C105  C123  A    
H56   N3    S    
C235  C297  S    
C314  H239  S    
C182  C183  A    
C118  C131  A    
C19   C37   A    
C78   O65   A    
C113  C285  S    
C63   O34   A    
C15   H32   S    
C255  H150  S    
O63   Zn23  S    
C266  C319  T    
C8    H26   S    
C47   H162  S    
C186  H92   S    
C224  C296  S    
C153  C232  S    
C3    C19   A    
C229  H128  S    
C246  H220  S    
C288  C327  S    
O51   Zn19  S    
O50   Zn18  S    
C308  C311  S    
C201  H215  S    
C93   C110  A    
C234  H132  S    
C202  H105  S    
C155  C245  S    
C199  C200  A    
O39   Zn13  S    
C121  H183  S    
C221  H122  S    
C176  H84   S    
O43   Zn11  S    
C204  H107  S    
C234  C236  A    
C278  C331  T    
O42   Zn10  S    
C35   O19   A    
C219  H120  S    
C78   O58   A    
O41   Zn9   S    
C228  C229  A    
C9    C26   A    
C83   O67   A    
C256  H151  S    
C45   C47   A    
O84   Zn31  S    
C26   C69   S    
C243  H140  S    
C202  C203  A    
C252  C258  A    
C112  C273  S    
C121  C128  A    
C82   O64   A    
C141  C144  S    
C21   C55   S    
C286  C329  S    
C206  C207  A    
C196  C197  A    
H50   N15   S    
C67   O91   A    
O76   Zn1   S    
C208  H110  S    
C277  C330  T    
C70   C129  S    
C49   H165  S    
C80   C133  S    
O94   Zn30  S    
O71   Zn3   S    
C43   C44   A    
C56   O27   A    
C229  C230  A    
C11   H29   S    
C104  H68   S    
C306  H9    S    
C175  C176  A    
C135  C146  S    
C195  H99   S    
O28   Zn11  S    
C191  H96   S    
C145  C286  S    
C294  C303  S    
H48   N14   S    
O26   Zn13  S    
H37   N9    S    
O74   Zn32  S    
C287  C328  S    
C326  O14   A    
C144  C178  S    
C198  C204  A    
C65   O36   A    
C71   C128  S    
C33   C51   A    
C298  C299  S    
H69   N8    S    
C283  C332  S    
C103  C121  A    
C17   C335  A    
C300  C301  S    
O60   Zn28  S    
O9    Zn29  S    
C174  H82   S    
H45   N13   S    
C315  O101  A    
C73   C130  S    
O58   Zn30  S    
C101  C284  S    
O86   Zn2   S    
C21   C39   A    
C326  O102  A    
O62   Zn29  S    
C4    C5    A    
C283  C314  S    
C257  C317  T    
C310  H5    S    
C7    H25   S    
C309  C310  S    
C6    C7    A    
C79   C281  S    
C57   O21   A    
O57   Zn26  S    
C53   O77   A    
C23   C41   A    
C155  C296  S    
C111  H174  S    
C103  C137  A    
C99   H24   S    
C32   C62   S    
C56   O80   A    
C34   H79   S    
O99   Zn15  S    
H44   N12   S    
C42   H157  S    
C61   O85   A    
O33   Zn19  S    
H62   N5    S    
C85   O69   A    
O1    Zn9   S    
C195  C196  A    
C312  C316  S    
C81   O63   A    
C5    C21   A    
C33   C61   S    
C193  C194  A    
C148  C288  S    
O65   Zn1   S    
H66   N7    S    
C76   C127  S    
O72   Zn20  S    
C190  H196  S    
C53   O24   A    
C180  H86   S    
C186  C187  A    
C313  H223  S    
C61   O32   A    
C181  H87   S    
O64   Zn27  S    
C292  C305  S    
C252  C253  A    
C235  H218  S    
C70   O47   A    
C165  C171  A    
C113  H206  S    
C147  C148  S    
C10   C29   A    
C179  H195  S    
C197  H102  S    
C82   O62   A    
O37   Zn24  S    
C175  H83   S    
C4    H21   S    
O1    Zn16  S    
C313  C314  S    
C89   H164  S    
C22   C54   S    
C83   O74   A    
C284  C313  S    
H55   N2    S    
C214  C215  A    
C106  C125  A    
C249  C250  A    
H39   N10   S    
C29   C47   A    
C281  C333  S    
C156  N9    S    
C309  H227  S    
C30   C48   A    
C224  C235  S    
C68   O22   A    
C143  C172  S    
C168  H212  S    
C261  C262  A    
C104  C122  A    
C170  C171  A    
O53   Zn21  S    
C199  H103  S    
C20   C38   A    
C236  C237  A    
C200  H104  S    
C171  H80   S    
C88   H112  S    
C78   C132  S    
C5    H22   S    
C250  H145  S    
C95   H219  S    
C27   C44   A    
C141  C159  S    
C247  H142  S    
C213  H115  S    
C91   C136  A    
C66   O37   A    
C256  C258  A    
C180  C181  A    
C308  H228  S    
C177  H85   S    
C309  H6    S    
C272  C324  T    
C313  H240  S    
C282  O10   A    
C233  C234  A    
O95   Zn10  S    
C107  H170  S    
C46   O5    A    
C147  C287  S    
C55   O79   A    
O87   Zn3   S    
C237  C238  A    
H60   N4    S    
C299  H16   S    
C275  C328  T    
C152  C292  S    
O61   Zn8   S    
C169  H77   S    
C301  H14   S    
C220  C221  A    
O28   Zn28  S    
C246  H202  S    
C248  H143  S    
C84   O68   A    
C226  C231  A    
C206  H108  S    
C15   C16   A    
C55   O26   A    
O30   Zn16  S    
C265  C318  T    
C212  H199  S    
C31   C63   S    
C156  C297  S    
C251  H147  S    
C62   O33   A    
C267  C320  T    
C75   O57   A    
C39   C40   A    
C334  C335  A    
C222  C225  A    
O83   Zn21  S    
C115  C128  A    
O56   Zn25  S    
C145  C185  S    
C187  H93   S    
C69   O92   A    
O16   Zn5   S    
C85   O71   A    
C6    H23   S    
C221  C222  A    
O100  Zn16  S    
C100  C139  A    
C4    C22   A    
C115  H177  S    
C87   C105  A    
C151  C152  S    
C13   O104  A    
C124  H190  S    
C16   H33   S    
C291  C306  S    
C209  C210  A    
C100  C119  A    
C235  H201  S    
O50   Zn32  S    
C87   H1    S    
C298  C317  S    
C1    C274  S    
C314  H222  S    
C29   C65   S    
O49   Zn18  S    
C106  H169  S    
C200  C202  A    
H34   N1    S    
C79   C113  S    
C12   C31   A    
C157  H193  S    
C150  C290  S    
C210  H114  S    
C118  H180  S    
C216  H118  S    
C288  C309  S    
C155  C156  S    
H64   N6    S    
C312  H3    S    
C207  H109  S    
O25   Zn11  S    
O81   Zn29  S    
C263  H156  S    
C222  H123  S    
C54   O25   A    
C24   C266  S    
C90   C283  S    
C3    H20   S    
C308  H7    S    
C92   C134  A    
C220  H121  S    
O17   Zn17  S    
C260  C261  A    
O72   Zn5   S    
C35   O4    A    
C262  C263  A    
C289  C325  S    
C153  C294  S    
C16   C32   A    
C188  H94   S    
O90   Zn6   S    
C93   H197  S    
C189  H95   S    
C168  H194  S    
C98   C139  A    
O103  Zn19  S    
C103  H57   S    
C25   C52   S    
H51   N15   S    
O3    Zn21  S    
C300  H15   S    
C302  H234  S    
C194  H98   S    
C100  H35   S    
O8    Zn28  S    
C205  C210  A    
C7    C23   A    
C63   O87   A    
C240  C241  A    
C276  C329  T    
C194  C195  A    
C34   C36   A    
O96   Zn11  S    
C14   H31   S    
C99   C140  A    
C299  C302  S    
C145  C149  S    
C27   C67   S    
C10   C11   A    
C108  H171  S    
C90   H204  S    
C98   H13   S    
C18   C59   S    
C2    C257  S    
C46   C268  S    
C226  C227  A    
C173  H81   S    
C159  C164  A    
C209  H111  S    
O50   Zn25  S    
C94   H208  S    
O61   Zn2   S    
C259  C260  A    
C307  H229  S    
C124  C286  S    
O68   Zn8   S    
C81   O60   A    
C51   H167  S    
O104  Zn20  S    
C30   C64   S    
C120  C131  A    
C41   C42   A    
C152  N13   S    
C239  C240  A    
O32   Zn18  S    
C279  C332  T    
O18   Zn6   S    
O47   Zn16  S    
C161  C162  A    
C263  C264  A    
C213  C214  A    
C279  C315  S    
C316  H221  S    
C1    O93   A    
O22   Zn2   S    
C43   H159  S    
C166  H75   S    
O39   Zn15  S    
O78   Zn23  S    
C231  H130  S    
C2    O15   A    
O20   Zn4   S    
C86   O73   A    
C35   C269  S    
O82   Zn30  S    
C84   O75   A    
C292  C322  S    
C74   C125  S    
C95   C114  A    
C243  C244  A    
C253  H148  S    
H54   N2    S    
C59   O30   A    
O79   Zn27  S    
C57   O6    A    
C157  H211  S    
C295  C302  S    
O14   Zn7   S    
C158  C298  S    
C190  C292  S    
C223  C276  S    
C163  C164  A    
O59   Zn31  S    
C208  C209  A    
C150  C153  S    
C112  O2    A    
C238  H136  S    
C270  C323  T    
C281  C316  S    
O89   Zn5   S    
C305  H232  S    
C114  H176  S    
C122  C129  A    
C36   H90   S    
C306  H231  S    
C20   C56   S    
C225  H125  S    
C146  H192  S    
C154  N11   S    
C245  C251  A    
C19   C58   S    
C146  H210  S    
C122  H184  S    
C77   O53   A    
C31   C49   A    
O72   Zn3   S    
C40   H135  S    
C79   H185  S    
C75   O51   A    
C185  C191  A    
C269  C322  T    
O40   Zn26  S    
C211  C217  A    
C154  C295  S    
O52   Zn20  S    
C13   O16   A    
C111  C123  A    
C207  C208  A    
C310  H226  S    
C241  H138  S    
C265  C326  S    
C167  C169  A    
C259  C264  A    
C304  O12   A    
C290  C324  S    
C219  C220  A    
C143  N6    S    
C285  C330  S    
C315  O13   A    
C250  C251  A    
C205  C206  A    
C144  N5    S    
C182  H88   S    
O17   Zn10  S    
C307  H8    S    
C254  C255  A    
C68   O7    A    
C142  C283  S    
O70   Zn6   S    
O85   Zn32  S    
C10   H28   S    
C159  C160  A    
C294  C321  S    
C167  H76   S    
C223  O96   A    
C73   O44   A    
C124  C157  S    
C89   C107  A    
C242  C243  A    
C143  C284  S    
O91   Zn7   S    
C102  C140  A    
C192  C197  A    
C97   C116  A    
C141  C281  S    
C152  C226  S    
C212  C246  S    
C48   C49   A    
C249  H144  S    
C261  H154  S    
C245  C247  A    
C336  H19   S    
O93   Zn9   S    
O7    Zn26  S    
C24   O18   A    
O29   Zn15  S    
C158  N1    S    
C97   H2    S    
C149  C205  S    
C224  H200  S    
C83   C137  S    
C102  C120  A    
C248  C249  A    
H41   N11   S    
C86   O70   A    
C162  C163  A    
C286  C311  S    
C274  C327  T    
C46   O20   A    
O102  Zn18  S    
O39   Zn27  S    
C1    O94   A    
C66   O90   A    
O101  Zn17  S    
C25   C42   A    
O27   Zn14  S    
C178  C180  A    
C156  C252  S    
O73   Zn4   S    
C264  H158  S    
C52   O76   A    
H40   N10   S    
C142  N7    S    
C72   O45   A    
O69   Zn5   S    
C101  H188  S    
C150  C211  S    
C187  C188  A    
C60   O31   A    
C50   H166  S    
C39   H124  S    
C192  C193  A    
C76   O52   A    
C70   O41   A    
C185  C186  A    
C253  C254  A    
H43   N12   S    
C312  H224  S    
C48   H163  S    
O44   Zn13  S    
C23   C53   S    
C148  N2    S    
C232  C233  A    
C60   O84   A    
C150  N15   S    
O83   Zn6   S    
C151  C291  S    
C287  C310  S    
O28   Zn14  S    
C230  C231  A    
C293  O99   A    
O34   Zn20  S    
C94   C132  A    
H38   N9    S    
C146  C288  S    
C20   C336  A    
O2    Zn31  S    
O4    Zn22  S    
C280  C333  T    
C112  O95   A    
C302  H12   S    
C64   O88   A    
C305  C306  S    
O17   Zn31  S    
C74   O49   A    
C96   H230  S    
C244  H141  S    
C212  C295  S    
C8    C27   A    
C142  C143  S    
C77   O55   A    
C214  H116  S    
C284  C331  S    
C18   C36   A    
O61   Zn26  S    
O36   Zn22  S    
C77   C126  S    
C73   O46   A    
C99   C118  A    
O46   Zn15  S    
C203  C204  A    
C105  H168  S    
C147  N3    S    
C165  C166  A    
C45   H161  S    
C201  H198  S    
O77   Zn12  S    
C169  C170  A    
C71   O42   A    
C28   C66   S    
C236  H133  S    
O6    Zn25  S    
C305  H10   S    
C183  C184  A    
C37   H101  S    
O31   Zn17  S    
C135  H191  S    
C109  H172  S    
C173  C174  A    
O92   Zn8   S    
C289  C308  S    
C271  C275  S    
C295  C320  S    
C135  H209  S    
C290  C307  S    
C37   C38   A    
C296  C319  S    
C75   C123  S    
O17   Zn12  S    
O72   Zn22  S    
C190  H214  S    
C24   O3    A    
C241  C242  A    
C224  H217  S    
C217  H119  S    
C179  H213  S    
C54   O78   A    
O21   Zn32  S    
C151  N14   S    
C181  C182  A    
O83   Zn24  S    
C254  H149  S    
C116  H178  S    
C168  C201  S    
C299  H237  S    
C189  C191  A    
C237  H134  S    
C161  H71   S    
C162  H72   S    
C41   H146  S    
C301  H235  S    
C174  C175  A    
C90   C101  S    
C116  C129  A    
C227  C228  A    
O67   Zn7   S    
C8    C9    A    
C102  H46   S    
C227  H126  S    
C96   C115  A    
C179  C291  S    
C239  C244  A    
C91   C108  A    
C9    H27   S    
C85   C139  S    
C74   O56   A    
C38   H113  S    
C86   C140  S    
C110  C127  A    
O48   Zn17  S    
C80   O66   A    
C90   H187  S    
O98   Zn14  S    
C84   C138  S    
C188  C189  A    
C64   O35   A    
O97   Zn13  S    
H58   N3    S    
C232  C238  A    
C223  O8    A    
C142  C165  S    
C119  H181  S    
C91   H175  S    
C297  C318  S    
C300  H236  S    
O28   Zn23  S    
H36   N1    S    
C13   C267  S    
O1    Zn1   S    
C67   O38   A    
C196  H100  S    
C26   C43   A    
C50   C51   A    
C184  H91   S    
H47   N13   S    
C296  C301  S    
O80   Zn28  S    
C28   C45   A    
C203  H106  S    
C149  C289  S    
C215  H117  S    
C280  C304  S    
C124  H207  S    
C157  C289  S    
C216  C217  A    
O11   Zn27  S    
C96   C137  A    
C114  C125  A    
C76   O54   A    
O12   Zn1   S    
C201  C294  S    
C145  N4    S    
C303  C307  S    
C17   C60   S    
C57   C272  S    
C18   C334  A    
C154  C239  S    
C163  H73   S    
C65   O89   A    
O83   Zn4   S    
C87   C132  A    
C230  H129  S    
C68   C270  S    
C273  C325  T    
H49   N14   S    
C141  N8    S    
C88   C106  A    
C109  C126  A    
O1    Zn30  S    
C233  H131  S    
C291  C323  S    
C147  C192  S    
C153  N12   S    
C22   C40   A    
C334  H17   S    
C12   H30   S    
C151  C218  S    
C117  C130  A    
C311  H225  S    
C32   C50   A    
H67   N8    S    
C198  C199  A    
C193  H97   S    
O15   Zn8   S    
C149  N16   S    
C176  C177  A    
C211  C213  A    
C12   C14   A    
O45   Zn14  S    
O39   Zn29  S    
O35   Zn21  S    
C72   O43   A    
C278  C282  S    
C166  C167  A    
C117  H179  S    
C297  C300  S    
C11   C28   A    
C71   O48   A    
O13   Zn12  S    
C135  C287  S    
O66   Zn12  S    
C255  C256  A    
C304  O100  A    
C97   C138  A    
H52   N16   S    
C160  H70   S    
C172  C173  A    
C98   C117  A    
O24   Zn10  S    
C89   C134  A    
C218  C225  A    
C62   O86   A    
C144  C285  S    
C303  H11   S    
C183  H89   S    
O61   Zn19  S    
C107  C126  A    
O75   Zn2   S    
H42   N11   S    
C247  C248  A    
C44   H160  S    
C285  C312  S    
C258  H152  S    
C80   O59   A    
C268  C321  T    
C69   O40   A    
C242  H139  S    
C92   H186  S    
C160  C161  A    
C164  H74   S    
C59   O82   A    
H53   N16   S    
C148  C198  S    
C218  C219  A    
C179  C190  S    
O23   Zn9   S    
C3    C336  A    
C104  C138  A    
H65   N7    S    
C2    O103  A    
C282  O98   A    
C108  C127  A    
C82   C136  S    
C293  O11   A    
O10   Zn23  S    
C215  C216  A    
C277  C293  S    
H59   N4    S    
C17   C34   A    
H63   N6    S    
C110  H173  S    
C311  H4    S    
C58   O81   A    
C79   H203  S    
C15   C33   A    
C178  C184  A    
O5    Zn24  S    
O55   Zn24  S    
