data_mof_unit_18437.cif
_audit_creation_date              2012-12-11T15:55:02-0500
_audit_creation_method            fapswitch 2.2
_symmetry_space_group_name_H-M    P1
_symmetry_Int_Tables_number       1
_space_group_crystal_system       triclinic
_cell_length_a                    17.568676
_cell_length_b                    24.411288
_cell_length_c                    15.019038
_cell_angle_alpha                 90.158287
_cell_angle_beta                  125.553308
_cell_angle_gamma                 89.905072
_cell_volume                      5240.43956574

loop_
_atom_site_label
_atom_site_type_symbol
_atom_type_description
_atom_site_fract_x
_atom_site_fract_y
_atom_site_fract_z
_atom_type_partial_charge
C1    C     C_R   0.906522 0.870765 0.092243 -0.133979
C2    C     C_R   0.905760 0.127735 0.092980 -0.129258
C3    C     C_R   0.406515 0.370772 0.092243 -0.133976
C4    C     C_R   0.405737 0.627710 0.092977 -0.129274
C5    C     C_R   0.061258 0.848805 0.907889 0.505518
C6    C     C_R   0.056996 0.152225 0.909135 0.519292
C7    C     C_R   0.561217 0.348793 0.907883 0.505456
C8    C     C_R   0.556996 0.652225 0.909135 0.519270
C9    C     C_R   0.146493 0.152737 0.090768 -0.261268
C10   C     C_R   0.147356 0.847745 0.091085 -0.227611
C11   C     C_R   0.646494 0.652737 0.090768 -0.261279
C12   C     C_R   0.647336 0.347741 0.091085 -0.227664
C13   C     C_R   0.324178 0.000577 0.280514 0.016827
C14   C     C_R   0.824178 0.500578 0.280517 0.016841
C15   C     C_R   0.922171 0.001510 0.628270 -0.042197
C16   C     C_R   0.422201 0.501502 0.628286 -0.042129
C17   C     C_R   0.118267 0.816083 0.000249 -0.127088
C18   C     C_R   0.116383 0.184478 0.999673 -0.154399
C19   C     C_R   0.618229 0.316076 0.000252 -0.126977
C20   C     C_R   0.616383 0.684477 0.999673 -0.154373
C21   C     C_3   0.909928 0.052813 0.380261 -0.397189
C22   C     C_3   0.906193 0.949825 0.377435 -0.392193
C23   C     C_3   0.409859 0.552749 0.380192 -0.397212
C24   C     C_3   0.406374 0.449762 0.377584 -0.392200
C25   C     C_3   0.888623 0.052792 0.465728 -0.415438
C26   C     C_3   0.886700 0.950061 0.464528 -0.422081
C27   C     C_3   0.388445 0.552697 0.465567 -0.415314
C28   C     C_3   0.386970 0.449964 0.464749 -0.422174
C29   C     C_3   0.059642 0.999382 0.507886 -0.419873
C30   C     C_3   0.559692 0.499447 0.507930 -0.419914
C31   C     C_3   0.966577 0.000549 0.393229 0.402551
C32   C     C_3   0.466632 0.500529 0.393273 0.402522
C33   C     C_3   0.932602 0.001195 0.538852 0.412140
C34   C     C_3   0.432644 0.501180 0.538881 0.412130
C35   C     C_R   0.811107 0.125034 0.909562 -0.176787
C36   C     C_R   0.812154 0.873379 0.908508 -0.118825
C37   C     C_R   0.311096 0.625015 0.909559 -0.176743
C38   C     C_R   0.312150 0.373383 0.908507 -0.118729
C39   C     C_3   0.039920 0.000306 0.593826 -0.373906
C40   C     C_3   0.539968 0.500440 0.593866 -0.373884
C41   C     C_3   0.654758 0.174845 0.913696 -0.445187
C42   C     C_3   0.654906 0.823826 0.910548 -0.441642
C43   C     C_3   0.154735 0.674822 0.913696 -0.445257
C44   C     C_3   0.154901 0.323830 0.910553 -0.441628
C45   C     C_3   0.099270 0.723186 0.914671 -0.355462
C46   C     C_3   0.098686 0.274653 0.907253 -0.379164
C47   C     C_3   0.599259 0.223146 0.914797 -0.355736
C48   C     C_3   0.598689 0.774650 0.907248 -0.379146
C49   C     C_3   0.293772 0.736928 0.985308 -0.404993
C50   C     C_3   0.293855 0.260416 0.982984 -0.399848
C51   C     C_3   0.793784 0.236958 0.985322 -0.404873
C52   C     C_3   0.793861 0.760410 0.982990 -0.399877
C53   C     C_3   0.771538 0.186082 0.116593 -0.402438
C54   C     C_3   0.771805 0.812535 0.112768 -0.410779
C55   C     C_3   0.271507 0.686060 0.116576 -0.402498
C56   C     C_3   0.271804 0.312536 0.112770 -0.410777
C57   C     C_3   0.759899 0.182939 0.005150 0.402406
C58   C     C_3   0.760273 0.815044 0.001966 0.407317
C59   C     C_3   0.259875 0.682912 0.005140 0.402423
C60   C     C_3   0.260267 0.315048 0.001966 0.407310
C61   C     C_3   0.166667 0.765561 0.005229 0.398306
C62   C     C_3   0.164911 0.233645 0.000463 0.423581
C63   C     C_3   0.666667 0.265566 0.005237 0.398424
C64   C     C_3   0.664913 0.733643 0.000462 0.423577
C65   C     C_3   0.246708 0.785246 0.997569 -0.398041
C66   C     C_3   0.239646 0.212636 0.984976 -0.401110
C67   C     C_3   0.746605 0.285267 0.997421 -0.398125
C68   C     C_3   0.739650 0.712632 0.984981 -0.401094
C69   C     C_3   0.213931 0.734186 0.115455 -0.400363
C70   C     C_3   0.213947 0.265084 0.110928 -0.393619
C71   C     C_3   0.714045 0.234239 0.115528 -0.400454
C72   C     C_3   0.713946 0.765084 0.110926 -0.393622
C73   C     C_3   0.484256 0.967040 0.344646 0.605077
C74   C     C_3   0.464178 0.061200 0.399103 0.588931
C75   C     C_3   0.984259 0.467055 0.344638 0.605090
C76   C     C_3   0.964167 0.561202 0.399133 0.588939
C77   C     C_R   0.742532 0.954689 0.697245 -0.158675
C78   C     C_R   0.744529 0.046192 0.698181 -0.158335
C79   C     C_R   0.242531 0.454689 0.697246 -0.158672
C80   C     C_R   0.244528 0.546192 0.698181 -0.158353
C81   C     C_3   0.586764 0.964147 0.447334 -0.541678
C82   C     C_3   0.568401 0.060410 0.491375 -0.540083
C83   C     C_3   0.086768 0.464163 0.447323 -0.541694
C84   C     C_3   0.068387 0.560414 0.491408 -0.540076
C85   C     C_3   0.435106 0.977012 0.472903 -0.321547
C86   C     C_3   0.935107 0.476994 0.472899 -0.321537
C87   C     C_3   0.424779 0.001464 0.370962 0.014336
C88   C     C_3   0.924777 0.501464 0.370967 0.014328
C89   C     C_3   0.599031 0.001607 0.538439 0.235727
C90   C     C_3   0.099028 0.501607 0.538445 0.235730
C91   C     C_3   0.536192 0.980892 0.572558 -0.394910
C92   C     C_3   0.036193 0.480872 0.572554 -0.394915
C93   C     C_R   0.009851 0.045975 0.278686 -0.131878
C94   C     C_R   0.009090 0.954244 0.278082 -0.141105
C95   C     C_R   0.509880 0.545969 0.278718 -0.131917
C96   C     C_R   0.509133 0.454237 0.278109 -0.141104
C97   C     C_R   0.818047 0.857900 0.001353 -0.016575
C98   C     C_R   0.816769 0.139752 0.002983 0.011345
C99   C     C_R   0.318040 0.357906 0.001353 -0.016630
C100  C     C_R   0.316742 0.639720 0.002977 0.011370
C101  C     C_R   0.694976 0.000889 0.637581 0.098529
C102  C     C_R   0.194973 0.500888 0.637585 0.098531
C103  C     C_R   0.989609 0.000249 0.314699 -0.008605
C104  C     C_R   0.489665 0.500237 0.314747 -0.008580
C105  C     C_R   0.268432 0.954139 0.251348 -0.082315
C106  C     C_R   0.266850 0.046264 0.247154 -0.074495
C107  C     C_R   0.768432 0.454139 0.251346 -0.082316
C108  C     C_R   0.766850 0.546264 0.247155 -0.074464
C109  C     C_R   0.945813 0.046224 0.694699 -0.133972
C110  C     C_R   0.939114 0.955907 0.690840 -0.146925
C111  C     C_R   0.445825 0.546220 0.694699 -0.134004
C112  C     C_R   0.439137 0.455902 0.690855 -0.147012
H1    H     H_    0.939313 0.857655 0.175035 0.085842
H2    H     H_    0.938449 0.140984 0.175747 0.085869
H3    H     H_    0.439300 0.357667 0.175037 0.085848
H4    H     H_    0.438406 0.640951 0.175745 0.085886
H5    H     H_    0.843437 0.054472 0.296532 0.153016
H6    H     H_    0.838974 0.950347 0.294293 0.155870
H7    H     H_    0.343410 0.554373 0.296430 0.152991
H8    H     H_    0.339126 0.450250 0.294475 0.155919
H9    H     H_    0.811657 0.053264 0.424575 0.153124
H10   H     H_    0.809972 0.949925 0.424929 0.157914
H11   H     H_    0.311460 0.553025 0.424323 0.153157
H12   H     H_    0.310250 0.449681 0.425223 0.157905
H13   H     H_    0.917666 0.091109 0.514274 0.155876
H14   H     H_    0.916204 0.911910 0.512824 0.161784
H15   H     H_    0.417237 0.591074 0.513974 0.155736
H16   H     H_    0.416726 0.411867 0.513194 0.161845
H17   H     H_    0.103526 0.035397 0.519689 0.161939
H18   H     H_    0.100025 0.961778 0.518146 0.155925
H19   H     H_    0.603533 0.535465 0.519631 0.161917
H20   H     H_    0.600117 0.461848 0.518291 0.155976
H21   H     H_    0.074032 0.037072 0.646767 0.163453
H22   H     H_    0.072591 0.963601 0.647095 0.149923
H23   H     H_    0.573904 0.537296 0.646587 0.163475
H24   H     H_    0.572815 0.463820 0.647363 0.149936
H25   H     H_    0.641519 0.172733 0.831840 0.159066
H26   H     H_    0.641798 0.827972 0.829048 0.152231
H27   H     H_    0.141495 0.672625 0.831843 0.159005
H28   H     H_    0.141790 0.327979 0.829052 0.152225
H29   H     H_    0.629779 0.135717 0.926209 0.164780
H30   H     H_    0.630037 0.862191 0.926089 0.164023
H31   H     H_    0.129726 0.635732 0.926308 0.164821
H32   H     H_    0.130032 0.362194 0.926098 0.164024
H33   H     H_    0.548851 0.207706 0.931031 0.155458
H34   H     H_    0.542704 0.788864 0.915214 0.147037
H35   H     H_    0.048676 0.707808 0.930671 0.155457
H36   H     H_    0.042702 0.288865 0.915223 0.147034
H37   H     H_    0.056263 0.739729 0.831596 0.202157
H38   H     H_    0.064958 0.255623 0.825656 0.217355
H39   H     H_    0.556036 0.239656 0.831714 0.202126
H40   H     H_    0.564962 0.755619 0.825652 0.217374
H41   H     H_    0.277028 0.737281 0.901466 0.152914
H42   H     H_    0.283726 0.260958 0.902562 0.164559
H43   H     H_    0.777138 0.237292 0.901526 0.152842
H44   H     H_    0.783736 0.760950 0.902569 0.164545
H45   H     H_    0.754651 0.132948 0.825280 0.097666
H46   H     H_    0.756488 0.865190 0.823957 0.092864
H47   H     H_    0.254643 0.632930 0.825277 0.097653
H48   H     H_    0.256483 0.365193 0.823957 0.092857
H49   H     H_    0.224450 0.814994 0.931310 0.125348
H50   H     H_    0.206273 0.189223 0.906990 0.171026
H51   H     H_    0.724228 0.314943 0.931023 0.125296
H52   H     H_    0.706278 0.689218 0.906996 0.171020
H53   H     H_    0.845544 0.193263 0.185897 0.153317
H54   H     H_    0.845660 0.805106 0.182264 0.150251
H55   H     H_    0.345507 0.693283 0.185862 0.153365
H56   H     H_    0.345660 0.305106 0.182262 0.150252
H57   H     H_    0.748831 0.146967 0.132274 0.151381
H58   H     H_    0.749512 0.851894 0.128603 0.156356
H59   H     H_    0.248867 0.646932 0.132307 0.151350
H60   H     H_    0.249514 0.351894 0.128610 0.156352
H61   H     H_    0.660528 0.218889 0.126730 0.153546
H62   H     H_    0.661003 0.780906 0.122849 0.159737
H63   H     H_    0.160328 0.718796 0.126482 0.153582
H64   H     H_    0.161006 0.280904 0.122855 0.159736
H65   H     H_    0.262527 0.760958 0.186563 0.160901
H66   H     H_    0.262641 0.237985 0.181128 0.161097
H67   H     H_    0.762713 0.261038 0.186550 0.161004
H68   H     H_    0.762639 0.737986 0.181129 0.161095
H69   H     H_    0.371054 0.741483 0.044409 0.161124
H70   H     H_    0.369933 0.254254 0.047400 0.156940
H71   H     H_    0.871052 0.241540 0.044504 0.161138
H72   H     H_    0.869939 0.754248 0.047409 0.156934
H73   H     H_    0.299791 0.807804 0.073945 0.189124
H74   H     H_    0.289119 0.184357 0.052795 0.158262
H75   H     H_    0.799649 0.307912 0.073680 0.189060
H76   H     H_    0.789121 0.684353 0.052802 0.158258
H77   H     H_    0.482246 0.986833 0.276661 -0.003239
H78   H     H_    0.453169 0.081076 0.325826 -0.020472
H79   H     H_    0.982243 0.486859 0.276657 -0.003244
H80   H     H_    0.953160 0.581090 0.325865 -0.020484
H81   H     H_    0.634975 0.977255 0.426026 0.132774
H82   H     H_    0.609325 0.074711 0.460625 0.122247
H83   H     H_    0.134975 0.477287 0.426018 0.132777
H84   H     H_    0.109312 0.574732 0.460668 0.122255
H85   H     H_    0.726946 0.912594 0.669747 0.098614
H86   H     H_    0.733855 0.088430 0.672395 0.088498
H87   H     H_    0.226946 0.412594 0.669746 0.098629
H88   H     H_    0.233853 0.588429 0.672392 0.088503
H89   H     H_    0.604740 0.921112 0.476652 0.212498
H90   H     H_    0.580803 0.089810 0.555267 0.215490
H91   H     H_    0.104756 0.421126 0.476624 0.212496
H92   H     H_    0.080782 0.589802 0.555315 0.215489
H93   H     H_    0.413685 0.933185 0.458911 0.174551
H94   H     H_    0.389197 0.999003 0.489879 0.198323
H95   H     H_    0.913690 0.433166 0.458889 0.174548
H96   H     H_    0.889196 0.498975 0.489885 0.198324
H97   H     H_    0.559187 0.939787 0.611622 0.154198
H98   H     H_    0.540910 0.009425 0.633620 0.182778
H99   H     H_    0.059192 0.439761 0.611596 0.154196
H100  H     H_    0.040908 0.509391 0.633633 0.182769
H101  H     H_    0.020097 0.087253 0.309057 0.087047
H102  H     H_    0.018105 0.912931 0.307566 0.083117
H103  H     H_    0.520116 0.587246 0.309094 0.087056
H104  H     H_    0.518173 0.412923 0.307591 0.083111
H105  H     H_    0.290378 0.911853 0.269167 0.158932
H106  H     H_    0.285544 0.088915 0.255419 0.156708
H107  H     H_    0.790378 0.411852 0.269161 0.158901
H108  H     H_    0.785544 0.588915 0.255423 0.156676
H109  H     H_    0.936494 0.088697 0.671663 0.150059
H110  H     H_    0.911331 0.915785 0.659326 0.140440
H111  H     H_    0.436547 0.588693 0.671665 0.150051
H112  H     H_    0.411334 0.415784 0.659339 0.140412
H113  H     H_    0.186845 0.165718 0.175242 0.142628
H114  H     H_    0.187028 0.834932 0.175506 0.124813
H115  H     H_    0.686847 0.665718 0.175243 0.142628
H116  H     H_    0.687005 0.334929 0.175507 0.124815
H117  H     H_    0.950006 0.090646 0.392363 0.149897
H118  H     H_    0.942618 0.910928 0.385494 0.146233
H119  H     H_    0.449891 0.590603 0.392310 0.149943
H120  H     H_    0.442851 0.410892 0.385636 0.146192
N1    N     N_R   0.950530 0.896220 0.057200 -0.036032
N2    N     N_R   0.950530 0.103780 0.057200 -0.034088
N3    N     N_R   0.450530 0.396220 0.057200 -0.036036
N4    N     N_R   0.450530 0.603780 0.057200 -0.034096
N5    N     N_R   0.893330 0.103780 0.942800 -0.055081
N6    N     N_R   0.893330 0.896220 0.942800 -0.032362
N7    N     N_R   0.393330 0.603780 0.942800 -0.055100
N8    N     N_R   0.393330 0.396220 0.942800 -0.032329
N9    N     N_R   0.818150 0.971400 0.792440 -0.032880
N10   N     N_R   0.818150 0.028600 0.792440 -0.038441
N11   N     N_R   0.318150 0.471400 0.792440 -0.032878
N12   N     N_R   0.318150 0.528600 0.792440 -0.038448
N13   N     N_R   0.025710 0.028600 0.207560 -0.030325
N14   N     N_R   0.025710 0.971400 0.207560 -0.032980
N15   N     N_R   0.525710 0.528600 0.207560 -0.030317
N16   N     N_R   0.525710 0.471400 0.207560 -0.032981
N17   N     N_R   0.181850 0.971400 0.207560 -0.058118
N18   N     N_R   0.181850 0.028600 0.207560 -0.047962
N19   N     N_R   0.681850 0.471400 0.207560 -0.058118
N20   N     N_R   0.681850 0.528600 0.207560 -0.047956
N21   N     N_R   0.974290 0.028600 0.792440 -0.041651
N22   N     N_R   0.974290 0.971400 0.792440 -0.041370
N23   N     N_R   0.474290 0.528600 0.792440 -0.041647
N24   N     N_R   0.474290 0.471400 0.792440 -0.041351
N25   N     N_R   0.049470 0.896220 0.942800 -0.084711
N26   N     N_R   0.049470 0.103780 0.942800 -0.095010
N27   N     N_R   0.549470 0.396220 0.942800 -0.084680
N28   N     N_R   0.549470 0.603780 0.942800 -0.095018
N29   N     N_R   0.106670 0.103780 0.057200 -0.062085
N30   N     N_R   0.106670 0.896220 0.057200 -0.062810
N31   N     N_R   0.606670 0.603780 0.057200 -0.062084
N32   N     N_R   0.606670 0.396220 0.057200 -0.062798
Ni1   Ni    Ni4+2 0.065600 0.934400 0.131190 0.200308
Ni2   Ni    Ni4+2 0.065600 0.065600 0.131190 0.212249
Ni3   Ni    Ni4+2 0.565600 0.434400 0.131190 0.200316
Ni4   Ni    Ni4+2 0.565600 0.565600 0.131190 0.212258
Ni5   Ni    Ni4+2 0.934400 0.065600 0.868810 0.203034
Ni6   Ni    Ni4+2 0.934400 0.934400 0.868810 0.244785
Ni7   Ni    Ni4+2 0.434400 0.565600 0.868810 0.203026
Ni8   Ni    Ni4+2 0.434400 0.434400 0.868810 0.244848
F1    F     F_    0.449458 0.914350 0.311569 -0.717243
F2    F     F_    0.420136 0.092599 0.434182 -0.712369
F3    F     F_    0.949468 0.414364 0.311544 -0.717230
F4    F     F_    0.920115 0.592587 0.434218 -0.712354
O1    O     O_3   0.996729 0.829401 0.802992 -0.643742
C113  C     C_3   0.034044 0.832972 0.741136 0.188727
H121  H     H_    0.097469 0.807813 0.775574 0.095513
H122  H     H_    0.053262 0.875587 0.736451 0.088190
C114  C     C_3   0.962924 0.810312 0.626586 -0.906127
H123  H     H_    0.893706 0.830106 0.588349 0.252397
H124  H     H_    0.987811 0.817308 0.574427 0.209827
H125  H     H_    0.954216 0.765563 0.630919 0.260566
O2    O     O_3   0.002780 0.168873 0.801393 -0.671482
C115  C     C_3   0.911961 0.180986 0.770843 0.224546
H126  H     H_    0.913616 0.209458 0.830205 0.090592
H127  H     H_    0.875054 0.142781 0.764428 0.109287
C116  C     C_3   0.856337 0.208237 0.659056 -0.952123
H128  H     H_    0.852190 0.180692 0.597387 0.254424
H129  H     H_    0.784312 0.217178 0.633725 0.215842
H130  H     H_    0.890410 0.247235 0.662485 0.257571
O3    O     O_3   0.496596 0.329370 0.803029 -0.643684
C117  C     C_3   0.533806 0.332852 0.741054 0.188577
H131  H     H_    0.597157 0.307636 0.775419 0.095653
H132  H     H_    0.553093 0.375441 0.736313 0.088156
C118  C     C_3   0.462551 0.310200 0.626541 -0.906121
H133  H     H_    0.393433 0.330118 0.588306 0.252312
H134  H     H_    0.487430 0.317042 0.574340 0.209867
H135  H     H_    0.453644 0.265488 0.630940 0.260693
O4    O     O_3   0.502781 0.668875 0.801394 -0.671486
C119  C     C_3   0.411953 0.680969 0.770832 0.224595
H136  H     H_    0.413587 0.709428 0.830197 0.090603
H137  H     H_    0.375058 0.642755 0.764395 0.109307
C120  C     C_3   0.356331 0.708229 0.659055 -0.952313
H138  H     H_    0.352251 0.680715 0.597400 0.254490
H139  H     H_    0.284287 0.717126 0.633680 0.215878
H140  H     H_    0.390358 0.747249 0.662521 0.257578

loop_
_geom_bond_atom_site_label_1
_geom_bond_atom_site_label_2
_ccdc_geom_bond_type
C105  N17   A    
C55   C59   S    
C4    N4    A    
C15   C109  A    
C7    N27   A    
C42   C58   S    
C7    O3    S    
O4    C119  S    
C114  H125  S    
C46   C62   S    
C49   H41   S    
C51   H71   S    
C86   C88   S    
C37   N7    A    
C30   H19   S    
N9    Ni6   S    
C62   C70   S    
C26   H14   S    
N6    Ni6   S    
C21   H5    S    
C17   C61   S    
C74   H78   S    
C77   C101  A    
C46   H36   S    
C1    N1    A    
C32   C104  S    
C79   C102  A    
C36   C97   A    
C51   C57   S    
C79   N11   A    
N14   Ni1   S    
C89   C101  S    
C84   H92   S    
N13   N14   A    
C78   C101  A    
C112  H112  S    
C1    H1    S    
C91   H98   S    
C73   C81   S    
C44   C46   S    
C63   C67   S    
C68   H52   S    
C111  N23   A    
C40   H23   S    
C11   C20   A    
C94   H102  S    
C82   H90   S    
C74   F2    S    
C10   N30   A    
N2    N5    A    
C35   H45   S    
C90   C92   S    
C22   H118  S    
C52   C58   S    
C107  H107  S    
C14   C107  A    
C63   C71   S    
C7    C19   A    
C96   C104  A    
C53   C71   S    
N19   Ni3   S    
C109  H109  S    
C22   H6    S    
C115  C116  S    
C75   F3    S    
C52   H72   S    
C13   C106  A    
C86   H95   S    
C96   H104  S    
C106  N18   A    
N28   Ni7   S    
C14   C88   S    
N29   Ni2   S    
C115  H127  S    
C2    H2    S    
C110  N22   A    
C83   H83   S    
C48   C64   S    
C81   H81   S    
C80   N12   A    
C65   H49   S    
C78   H86   S    
C25   H9    S    
C23   H119  S    
C16   C111  A    
C39   H22   S    
N3    N8    A    
C35   N5    A    
C93   C103  A    
C85   H93   S    
C21   C31   S    
C51   H43   S    
N17   N18   A    
C82   C89   S    
C108  N20   A    
C77   N9    A    
C64   C68   S    
C23   H7    S    
N21   N22   A    
N9    N10   A    
C12   N32   A    
N17   Ni1   S    
N26   Ni5   S    
N11   Ni8   S    
C90   C102  S    
C16   C34   S    
C29   H17   S    
C120  H139  S    
C74   C87   S    
C89   C91   S    
C43   C59   S    
C3    N3    A    
O1    C113  S    
C59   C100  S    
C118  H134  S    
C29   C39   S    
C50   H70   S    
C84   C90   S    
N20   Ni4   S    
N3    Ni3   S    
C119  H137  S    
C62   C66   S    
N10   Ni5   S    
C6    O2    S    
N21   Ni5   S    
C18   C62   S    
C42   C48   S    
C38   N8    A    
C80   C102  A    
C8    N28   A    
C75   H79   S    
O3    C117  S    
C76   H80   S    
C61   C65   S    
C26   C33   S    
C13   C87   S    
C5    N25   A    
C116  H128  S    
C41   C47   S    
C51   C67   S    
C43   C45   S    
C55   C69   S    
C19   C63   S    
C49   H69   S    
C92   H100  S    
C72   H68   S    
C21   C25   S    
C8    O4    S    
C45   H35   S    
C24   C28   S    
C28   H12   S    
C114  H124  S    
C69   H63   S    
C56   C70   S    
C49   C59   S    
N4    N7    A    
C50   C60   S    
C37   H47   S    
C38   H48   S    
C70   H64   S    
C84   H84   S    
N32   Ni3   S    
C30   H20   S    
N1    Ni1   S    
C3    C99   A    
C9    C18   A    
C68   H76   S    
C11   H115  S    
C113  H121  S    
C9    H113  S    
C112  N24   A    
C78   N10   A    
C37   C100  A    
C25   C33   S    
C47   H33   S    
C42   H26   S    
C54   H58   S    
C43   H31   S    
C55   H55   S    
C91   H97   S    
C76   C84   S    
N30   Ni1   S    
N19   N20   A    
N16   Ni3   S    
C40   H24   S    
C54   H54   S    
C47   C63   S    
C117  H131  S    
C12   H116  S    
C5    C17   A    
C61   C69   S    
N11   N12   A    
C116  H130  S    
C66   H50   S    
C25   H13   S    
C73   C87   S    
C69   H65   S    
C27   H15   S    
C2    N2    A    
C67   H75   S    
C113  C114  S    
C72   H62   S    
C35   C98   A    
C41   H25   S    
C53   H57   S    
C81   C89   S    
C14   C108  A    
C28   C34   S    
C44   H28   S    
C56   H60   S    
C15   C110  A    
C74   C82   S    
N28   N31   A    
C55   H59   S    
C36   N6    A    
N31   Ni4   S    
C24   H8    S    
C93   H101  S    
N25   N30   A    
C79   H87   S    
N18   Ni2   S    
C117  C118  S    
C13   C105  A    
N27   N32   A    
C86   H96   S    
C53   C57   S    
C81   H89   S    
C56   C60   S    
N1    N6    A    
O2    C115  S    
C21   H117  S    
C33   C39   S    
C94   N14   A    
C83   H91   S    
C106  H106  S    
C47   H39   S    
C94   C103  A    
C48   H40   S    
C110  H110  S    
C16   C112  A    
C39   H21   S    
C4    H4    S    
C38   C99   A    
C24   H120  S    
C107  N19   A    
C6    N26   A    
C23   C32   S    
C41   C57   S    
C3    H3    S    
C75   C83   S    
C44   C60   S    
C57   C98   S    
C12   C19   A    
C45   C61   S    
C82   H82   S    
C108  H108  S    
C120  H138  S    
C22   C26   S    
N4    Ni4   S    
N5    Ni5   S    
C26   H10   S    
C77   H85   S    
C96   N16   A    
C73   H77   S    
C28   H16   S    
C117  H132  S    
N12   Ni7   S    
C95   H103  S    
C118  H133  S    
N13   Ni2   S    
C60   C99   S    
C109  N21   A    
C24   C32   S    
C85   C91   S    
N23   Ni7   S    
N24   Ni8   S    
C119  C120  S    
C8    C20   A    
C49   C65   S    
C34   C40   S    
C115  H126  S    
N2    Ni2   S    
C10   C17   A    
C80   H88   S    
C76   F4    S    
C71   H67   S    
C73   F1    S    
C48   H34   S    
C42   H30   S    
C43   H27   S    
C23   C27   S    
C76   C88   S    
C52   C68   S    
C36   H46   S    
C95   N15   A    
C58   C97   S    
C85   H94   S    
C85   C87   S    
C27   C34   S    
C6    C18   A    
C65   H73   S    
C22   C31   S    
C5    O1    S    
C1    C97   A    
C27   H11   S    
C70   H66   S    
C111  H111  S    
C114  H123  S    
N22   Ni6   S    
C71   H61   S    
C9    N29   A    
C31   C103  S    
C20   C64   S    
C41   H29   S    
C67   H51   S    
C29   H18   S    
C44   H32   S    
C120  H140  S    
C56   H56   S    
C30   C40   S    
C50   C66   S    
C93   N13   A    
N15   Ni4   S    
C46   H38   S    
C11   N31   A    
C4    C100  A    
C118  H135  S    
C113  H122  S    
N26   N29   A    
N23   N24   A    
C95   C104  A    
C54   C58   S    
C53   H53   S    
C83   C90   S    
C119  H136  S    
N15   N16   A    
C52   H44   S    
C105  H105  S    
N7    Ni7   S    
N8    Ni8   S    
C66   H74   S    
C29   C31   S    
C86   C92   S    
C30   C32   S    
C50   H42   S    
C116  H129  S    
C45   H37   S    
C64   C72   S    
C75   C88   S    
C54   C72   S    
C2    C98   A    
C10   H114  S    
C92   H99   S    
N25   Ni6   S    
C15   C33   S    
N27   Ni8   S    
