data_mof_unit_23807.cif
_audit_creation_date              2013-03-05T15:40:45-0500
_audit_creation_method            fapswitch 2.2
_symmetry_space_group_name_H-M    P1
_symmetry_Int_Tables_number       1
_space_group_crystal_system       triclinic
_cell_length_a                    6.931011
_cell_length_b                    17.348923
_cell_length_c                    23.992819
_cell_angle_alpha                 103.81162
_cell_angle_beta                  90.124666
_cell_angle_gamma                 89.793976
_cell_volume                      2801.59155082

loop_
_atom_site_label
_atom_site_type_symbol
_atom_site_description
_atom_site_fract_x
_atom_site_fract_y
_atom_site_fract_z
_atom_type_partial_charge
O1    O     O_R   0.494290 0.391990 0.999150 -0.571970
O2    O     O_R   0.827170 0.534410 0.082350 -0.546539
O3    O     O_R   0.994360 0.608010 0.000850 -0.568952
C1    C     C_R   0.657969 0.548034 0.106205 0.880150
O4    O     O_R   0.824210 0.388010 0.004470 -0.522652
O5    O     O_R   0.991370 0.460560 0.922410 -0.560620
C2    C     C_R   0.654944 0.355384 0.002397 0.857604
O6    O     O_R   0.497270 0.539440 0.077590 -0.539898
O7    O     O_3   0.659770 0.523970 0.973170 -0.261621
V1    V     V_3+5 0.935840 0.495550 0.004980 1.238883
O8    O     O_R   0.320910 0.465590 0.917650 -0.521103
C3    C     C_R   0.152351 0.451501 0.893564 0.880032
O9    O     O_R   0.323870 0.611990 0.995530 -0.561633
C4    C     C_R   0.154217 0.645077 0.998525 0.859951
V2    V     V_3+5 0.435470 0.504450 0.995020 1.234825
O10   O     O_3   0.161670 0.476030 0.026830 -0.239492
C5    C     C_2   0.142592 0.730145 0.998134 -0.230179
H1    H     H_    0.276996 0.760720 0.994711 0.108443
C6    C     C_2   0.972959 0.769940 0.002125 -0.218840
H2    H     H_    0.838555 0.739375 0.005566 0.106990
C7    C     C_R   0.071952 0.243443 0.627681 0.643422
N1    N     N_R   0.089121 0.324052 0.647929 -0.431657
C8    C     C_R   0.087111 0.373228 0.610788 0.703378
C9    C     C_R   0.072855 0.341614 0.550991 -0.083328
C10   C     C_R   0.053881 0.259068 0.529697 -0.046890
C11   C     C_R   0.052551 0.209575 0.568346 -0.067938
C12   C     C_R   0.081687 0.390636 0.512239 0.010540
C13   C     C_R   0.067011 0.359190 0.452740 0.375803
C14   C     C_R   0.034240 0.276550 0.431347 -0.102727
C15   C     C_R   0.036133 0.226076 0.469839 -0.111184
C16   C     C_R   0.019910 0.142736 0.448538 -0.099277
C17   C     C_R   0.008536 0.093585 0.488260 0.405724
C18   C     C_R   0.029069 0.127561 0.547226 -0.004107
C19   C     C_R   0.995937 0.242306 0.372822 0.609031
N2    N     N_R   0.003664 0.161860 0.351933 -0.462323
C20   C     C_R   0.022049 0.112090 0.388175 0.638232
O11   O     O_2   0.075342 0.195973 0.664779 -0.521209
O12   O     O_2   0.098102 0.452517 0.631589 -0.436944
H3    H     H_    0.106244 0.453724 0.528058 0.189445
O13   O     O_2   0.945007 0.288388 0.337169 -0.448713
O14   O     O_2   0.048796 0.033896 0.365634 -0.417421
H4    H     H_    0.020181 0.089457 0.576918 0.182906
C21   C     C_R   0.844411 0.079598 0.265779 -0.024724
H5    H     H_    0.736476 0.063180 0.293393 0.154285
C22   C     C_R   0.833399 0.049344 0.205958 0.292500
C23   C     C_R   0.974141 0.072066 0.169904 -0.187088
C24   C     C_R   0.126525 0.121518 0.195424 -0.084401
H6    H     H_    0.236490 0.139544 0.169162 0.128495
C25   C     C_R   0.137157 0.149869 0.254929 0.040595
H7    H     H_    0.255271 0.188293 0.273449 0.120050
C26   C     C_R   0.995480 0.129769 0.290537 0.187702
C27   C     C_R   0.281291 0.396477 0.732215 0.348025
C28   C     C_R   0.296463 0.429656 0.792158 0.278689
C29   C     C_R   0.142346 0.421451 0.829526 -0.187336
C30   C     C_R   0.974055 0.382164 0.805146 -0.129247
H8    H     H_    0.853944 0.374380 0.832046 0.149515
C31   C     C_R   0.957924 0.351113 0.746049 -0.003162
H9    H     H_    0.825927 0.321486 0.728823 0.159202
C32   C     C_R   0.110183 0.357262 0.709111 0.145395
C33   C     C_R   0.487464 0.887730 0.611093 0.622092
N3    N     N_R   0.509559 0.839054 0.647814 -0.465174
C34   C     C_R   0.544546 0.759829 0.627975 0.599965
C35   C     C_R   0.560363 0.725409 0.568312 -0.123939
C36   C     C_R   0.539430 0.774834 0.529321 -0.121117
C37   C     C_R   0.502982 0.857228 0.550610 -0.115408
C38   C     C_R   0.590795 0.642865 0.546734 0.277307
C39   C     C_R   0.606062 0.610075 0.487313 0.300989
C40   C     C_R   0.598349 0.659954 0.448234 -0.119379
C41   C     C_R   0.556099 0.741816 0.469119 -0.127193
C42   C     C_R   0.527791 0.790211 0.429700 -0.126087
C43   C     C_R   0.479120 0.871498 0.451306 0.446049
C44   C     C_R   0.479848 0.905589 0.510837 0.428396
C45   C     C_R   0.632654 0.630508 0.388624 0.635695
N4    N     N_R   0.601625 0.677209 0.351002 -0.462067
C46   C     C_R   0.550005 0.755197 0.369961 0.630293
O15   O     O_2   0.449216 0.965052 0.633606 -0.462881
O16   O     O_2   0.562545 0.714811 0.666418 -0.454049
O17   O     O_2   0.702856 0.556569 0.368251 -0.422209
O18   O     O_2   0.523545 0.798316 0.330726 -0.447123
C47   C     C_R   0.774095 0.662011 0.258460 0.030684
H10   H     H_    0.883590 0.702957 0.279871 0.116530
C48   C     C_R   0.788176 0.629112 0.199242 -0.103459
H11   H     H_    0.907771 0.646414 0.175948 0.116763
C49   C     C_R   0.646921 0.576400 0.169971 -0.167058
C50   C     C_R   0.492284 0.554982 0.202070 0.296485
C51   C     C_R   0.479343 0.589204 0.261431 -0.036076
H12   H     H_    0.361487 0.573215 0.286001 0.146873
C52   C     C_R   0.618789 0.642772 0.289903 0.192647
C53   C     C_R   0.662603 0.878923 0.743282 0.005899
H13   H     H_    0.802255 0.863595 0.723501 0.076273
C54   C     C_R   0.649668 0.905021 0.803012 -0.105854
H14   H     H_    0.781242 0.909690 0.827995 0.093820
C55   C     C_R   0.469467 0.923919 0.830067 -0.098380
C56   C     C_R   0.302801 0.916895 0.795473 -0.110841
H15   H     H_    0.161883 0.931083 0.814648 0.090655
C57   C     C_R   0.316251 0.890899 0.735558 0.010691
H16   H     H_    0.186361 0.884711 0.709735 0.080954
C58   C     C_R   0.496206 0.871368 0.709113 0.264110
C59   C     C_2   0.646788 0.271776 0.006114 0.198112
C60   C     C_2   0.477916 0.230145 0.998138 -0.249946
H17   H     H_    0.345958 0.259352 0.989621 0.108081
O19   O     O_R   0.618210 0.960470 0.922400 -0.573389
O20   O     O_R   0.291310 0.111960 0.995450 -0.535278
O21   O     O_R   0.124210 0.039530 0.077580 -0.550838
C61   C     C_R   0.461641 0.145267 0.999083 0.893351
O22   O     O_R   0.288310 0.965490 0.917650 -0.572427
O23   O     O_R   0.121180 0.892010 0.999220 -0.567335
C62   C     C_R   0.457441 0.951162 0.893811 0.815071
O24   O     O_R   0.621230 0.107990 0.000760 -0.514820
O25   O     O_3   0.455770 0.976060 0.026840 -0.257590
V3    V     V_3+5 0.179680 0.004440 0.995020 1.207715
O26   O     O_R   0.791670 0.888040 0.004570 -0.550369
C63   C     C_R   0.961331 0.854973 0.001636 0.872414
O27   O     O_R   0.794680 0.034510 0.082370 -0.519292
C64   C     C_R   0.963720 0.046788 0.106181 0.922464
V4    V     V_3+5 0.680070 0.995560 0.005010 1.236180
O28   O     O_3   0.953840 0.023940 0.973160 -0.260268
N5    N     N_R   0.440875 0.400806 0.694888 0.112996
O29   O     O_R   0.499040 0.337554 0.657710 -0.370138
O30   O     O_R   0.519664 0.468797 0.695001 -0.189533
Cl1   Cl    Cl    0.510499 0.480801 0.818828 -0.591908
N6    N     N_R   0.594796 0.590301 0.584619 0.159725
O31   O     O_R   0.756580 0.576531 0.608165 -0.224569
O32   O     O_R   0.441730 0.549873 0.590602 -0.244391
N7    N     N_R   0.609569 0.525077 0.467043 0.146590
O33   O     O_R   0.478350 0.490351 0.431156 -0.244782
O34   O     O_R   0.718372 0.481724 0.491665 -0.299357
Cl2   Cl    Cl    0.406283 0.933127 0.405554 -0.402959
Cl3   Cl    Cl    0.459164 0.010572 0.533161 -0.513799
N8    N     N_R   0.351975 0.496591 0.175869 0.105762
O35   O     O_R   0.406763 0.431185 0.140379 -0.327328
O36   O     O_R   0.174589 0.502738 0.194114 -0.329873
Cl4   Cl    Cl    0.869143 0.231959 0.023635 -0.621947
N9    N     N_R   0.102697 0.410756 0.414910 0.157186
O37   O     O_R   0.218044 0.387805 0.371292 -0.243581
O38   O     O_R   0.053628 0.485296 0.430072 -0.268871
N10   N     N_R   0.959803 0.010763 0.470584 0.141262
O39   O     O_R   0.816933 0.988481 0.435324 -0.264846
O40   O     O_R   0.025513 0.961155 0.499101 -0.335583
N11   N     N_R   0.684200 0.993275 0.183189 0.102286
O41   O     O_R   0.726947 0.927444 0.146228 -0.349611
O42   O     O_R   0.513772 0.001078 0.206564 -0.336081

loop_
_geom_bond_atom_site_label_1
_geom_bond_atom_site_label_2
_geom_bond_distance
_ccdc_geom_bond_type
C30   H8    1.082860 S    
C55   C56   1.409512 A    
C45   N4    1.365511 A    
C34   O16   1.348726 S    
O2    C1    1.301960 A    
N2    C20   1.369354 A    
C9    C12   1.403462 A    
O26   V4    2.014504 S    
C1    O6    1.297360 A    
O27   C64   1.298158 A    
C44   Cl3   1.776914 S    
C24   C25   1.396488 A    
C28   C29   1.425244 A    
N10   O40   1.301246 A    
C60   C61   1.482824 S    
C34   C35   1.417668 A    
C2    C59   1.475643 S    
C23   C64   1.488171 S    
C13   N9    1.440702 S    
C18   H4    1.083348 S    
C13   C14   1.421645 A    
N11   O42   1.301408 A    
C41   C42   1.419531 A    
C39   N7    1.438401 S    
C55   C62   1.491481 S    
O5    C3    1.303374 A    
C15   C16   1.418609 A    
C51   C52   1.401768 A    
C31   C32   1.400184 A    
C6    C63   1.479987 S    
V2    O10   2.149328 S    
V4    O28   2.149319 S    
C59   Cl4   1.776852 S    
O20   V3    2.019761 S    
C19   N2    1.366564 A    
C23   C24   1.406894 A    
N5    O29   1.301307 A    
O23   C63   1.291075 A    
O24   V4    2.017520 S    
O25   V3    2.157180 S    
O8    V2    1.982626 S    
O2    V1    1.967903 S    
C16   C17   1.424928 A    
C12   H3    1.083369 S    
C40   C41   1.418355 A    
C25   C26   1.401469 A    
C57   C58   1.403871 A    
C8    C9    1.411734 A    
C38   N6    1.433200 S    
O19   C62   1.297418 A    
C42   C43   1.421140 A    
O1    V2    2.017194 S    
C53   C54   1.399027 A    
O7    V1    2.157176 S    
C38   C39   1.407258 A    
C35   C38   1.416904 A    
O9    C4    1.301208 A    
C4    C5    1.480025 S    
C20   O14   1.347396 S    
C56   H15   1.082753 S    
O26   C63   1.301183 A    
C7    C11   1.410812 A    
O22   V3    1.967979 S    
N1    C8    1.372960 A    
N11   O41   1.301423 A    
N4    C46   1.367087 A    
C39   C40   1.420442 A    
C9    C10   1.407461 A    
C47   C48   1.402484 A    
C53   H13   1.082934 S    
C54   H14   1.082801 S    
O4    C2    1.300113 A    
C51   H12   1.083287 S    
N9    O38   1.301189 A    
C10   C11   1.406218 A    
C50   C51   1.409052 A    
C14   C19   1.412922 A    
C33   O15   1.346716 S    
C22   N11   1.437034 S    
C33   N3    1.366224 A    
N8    O36   1.301424 A    
C21   H5    1.083298 S    
C14   C15   1.416290 A    
C27   C32   1.414043 A    
C50   N8    1.437880 S    
C54   C55   1.409882 A    
O21   C64   1.298136 A    
C11   C18   1.401721 A    
C24   H6    1.083350 S    
C1    C49   1.493141 S    
C45   O17   1.348445 S    
C57   H16   1.082783 S    
C5    H1    1.086546 S    
O20   C61   1.309825 A    
C36   C41   1.425837 A    
C49   C50   1.422327 A    
C56   C57   1.403307 A    
C21   C22   1.407640 A    
O3    C4    1.291031 A    
C33   C37   1.425154 A    
C48   H11   1.083275 S    
O6    V2    1.975011 S    
C48   C49   1.408844 A    
C30   C31   1.395771 A    
N2    C26   1.446157 S    
N7    O33   1.297830 A    
C19   O13   1.348585 S    
C43   Cl2   1.776816 S    
N6    O32   1.300828 A    
C8    O12   1.349037 S    
O25   V4    1.702224 S    
N1    C32   1.450486 S    
C27   C28   1.419618 A    
C10   C15   1.418655 A    
C61   O24   1.284694 A    
C29   C30   1.407001 A    
O1    C2    1.291283 A    
O23   V3    2.019622 S    
C47   H10   1.082783 S    
O5    V1    1.966921 S    
O21   V3    1.966733 S    
O27   V4    1.982747 S    
O8    C3    1.300102 A    
N9    O37   1.302031 A    
C37   C44   1.421587 A    
N10   O39   1.299481 A    
C59   C60   1.366503 D    
C53   C58   1.401802 A    
V3    O28   1.707932 S    
C43   C44   1.409438 A    
C17   C18   1.403862 A    
C6    H2    1.086545 S    
O9    V2    2.014462 S    
N8    O35   1.301470 A    
C40   C45   1.419423 A    
C17   N10   1.438908 S    
C47   C52   1.401991 A    
O3    V1    2.019691 S    
C28   Cl1   1.769679 S    
C36   C37   1.420358 A    
N3    C58   1.446516 S    
C21   C26   1.401353 A    
C31   H9    1.082741 S    
O22   C62   1.302320 A    
C60   H17   1.086418 S    
C5    C6    1.353234 D    
O7    V2    1.702491 S    
N3    C34   1.363919 A    
N5    O30   1.301036 A    
O19   V4    1.976110 S    
C35   C36   1.418795 A    
C22   C23   1.422864 A    
O4    V1    2.019669 S    
C7    O11   1.349364 S    
C25   H7    1.083007 S    
C42   C46   1.425355 A    
N7    O34   1.299794 A    
C16   C20   1.418737 A    
V1    O10   1.707876 S    
N4    C52   1.449867 S    
N6    O31   1.301296 A    
C7    N1    1.372033 A    
C46   O18   1.346799 S    
C3    C29   1.501538 S    
C12   C13   1.404910 A    
C27   N5    1.438110 S    
