data_mof_unit_41658.cif
_audit_creation_date              2012-12-11T15:18:41-0500
_audit_creation_method            fapswitch 2.2
_symmetry_space_group_name_H-M    P1
_symmetry_Int_Tables_number       1
_space_group_crystal_system       triclinic
_cell_length_a                    15.999304
_cell_length_b                    16.003498
_cell_length_c                    17.636647
_cell_angle_alpha                 107.775706
_cell_angle_beta                  105.699377
_cell_angle_gamma                 110.138596
_cell_volume                      3663.50729364

loop_
_atom_site_label
_atom_site_type_symbol
_atom_type_description
_atom_site_fract_x
_atom_site_fract_y
_atom_site_fract_z
_atom_type_partial_charge
C1    C     C_R   0.894958 0.897421 0.667891 0.577731
C2    C     C_R   0.917239 0.708984 0.452584 -0.115132
C3    C     C_R   0.749068 0.819009 0.255967 -0.160440
C4    C     C_R   0.084290 0.285201 0.503005 -0.058792
C5    C     C_R   0.271522 0.989597 0.569324 -0.144956
C6    C     C_R   0.695796 0.727634 0.251336 0.097478
C7    C     C_R   0.328698 0.038446 0.536723 0.029327
C8    C     C_R   0.999761 0.696177 0.468090 0.022852
C9    C     C_R   0.029817 0.982088 0.239383 0.099054
C10   C     C_1   0.655892 0.053515 0.552122 0.112310
C11   C     C_1   0.589850 0.064251 0.563033 -0.013983
C12   C     C_R   0.003158 0.292271 0.459796 -0.161126
C13   C     C_1   0.505083 0.065751 0.564889 -0.005620
C14   C     C_1   0.426290 0.057259 0.556375 -0.020094
C15   C     C_1   0.006855 0.372829 0.441036 0.007446
C16   C     C_R   0.210828 0.188645 0.751554 -0.129165
C17   C     C_1   0.006554 0.443297 0.432282 -0.018738
C18   C     C_1   0.002673 0.528206 0.432998 -0.004529
C19   C     C_1   0.999641 0.603790 0.444167 -0.036880
C20   C     C_1   0.280602 0.371076 0.839260 -0.047221
C21   C     C_2   0.384996 0.528037 0.990685 0.014712
C22   C     C_2   0.438047 0.511859 0.052500 -0.242065
C23   C     C_R   0.237272 0.283711 0.759793 0.070282
C24   C     C_1   0.524899 0.589667 0.126840 0.044845
C25   C     C_1   0.323170 0.444079 0.907464 -0.029068
C26   C     C_1   0.601909 0.653579 0.185042 -0.074011
C27   C     C_1   0.038533 0.939537 0.160165 -0.036706
C28   C     C_R   0.760523 0.053961 0.472098 0.505790
C29   C     C_2   0.046939 0.873627 0.007321 0.663353
C30   C     C_2   0.963090 0.841423 0.938922 -0.362946
C31   C     C_1   0.965432 0.860710 0.865311 0.092819
C32   C     C_1   0.044053 0.906324 0.092018 -0.191137
C33   C     C_1   0.968459 0.886991 0.808877 0.029912
C34   C     C_R   0.727682 0.032934 0.531849 -0.278053
C35   C     C_R   0.217981 0.279811 0.677732 -0.157094
C36   C     C_R   0.752816 0.963113 0.545513 0.510949
C37   C     C_R   0.921231 0.202474 0.427720 0.622792
C38   C     C_R   0.057922 0.983463 0.743003 0.517008
C39   C     C_R   0.972490 0.926278 0.746391 -0.301371
C40   C     C_3   0.761259 0.801804 0.685335 -0.117501
C41   C     C_R   0.337711 0.172199 0.491123 0.108150
C42   C     C_R   0.373974 0.167242 0.426521 -0.173173
C43   C     C_R   0.442592 0.253518 0.431274 -0.106705
C44   C     C_R   0.478350 0.344890 0.502262 -0.098436
C45   C     C_R   0.741070 0.727676 0.329502 -0.153891
C46   C     C_R   0.444721 0.350137 0.568061 -0.085628
C47   C     C_R   0.374529 0.264261 0.562433 -0.127913
C48   C     C_R   0.174570 0.796964 0.582529 0.083249
C49   C     C_R   0.229287 0.763278 0.542716 -0.137233
C50   C     C_R   0.316720 0.769235 0.594038 -0.108935
C51   C     C_R   0.349384 0.807596 0.685133 -0.109784
C52   C     C_R   0.294366 0.839519 0.724963 -0.103411
C53   C     C_R   0.206920 0.833677 0.673791 -0.136592
C54   C     C_R   0.397925 0.627402 0.999122 0.178813
C55   C     C_R   0.316291 0.645241 0.984106 -0.161998
C56   C     C_R   0.281574 0.080261 0.495652 0.010374
C57   C     C_R   0.326359 0.737701 0.990289 -0.121667
C58   C     C_R   0.417799 0.812856 0.010919 -0.098679
C59   C     C_R   0.499158 0.795365 0.024644 -0.135785
C60   C     C_R   0.489316 0.702846 0.018129 -0.151436
C61   C     C_R   0.181642 0.346649 0.509733 0.156775
C62   C     C_R   0.207512 0.315004 0.440265 -0.128948
C63   C     C_R   0.288049 0.380968 0.435644 -0.088363
C64   C     C_R   0.344086 0.478795 0.500840 -0.111566
C65   C     C_R   0.318724 0.511150 0.570074 -0.114142
C66   C     C_R   0.236785 0.445964 0.573653 -0.165478
C67   C     C_R   0.080084 0.786454 0.528255 0.035162
C68   C     C_3   0.213239 0.918333 0.071641 -0.291234
C69   C     C_3   0.646890 0.004381 0.337022 -0.134723
C70   C     C_3   0.629266 0.810392 0.497923 -0.147000
C71   C     C_3   0.798086 0.227086 0.346921 -0.132872
C72   C     C_3   0.178651 0.049015 0.882104 -0.267243
C73   C     C_R   0.943170 0.964969 0.248388 -0.098842
C74   C     C_R   0.106294 0.043202 0.321457 -0.173039
H1    H     H_    0.869855 0.919071 0.196804 0.098403
H2    H     H_    0.710167 0.674043 0.352313 0.095335
H3    H     H_    0.777112 0.874266 0.735602 0.118661
H4    H     H_    0.782402 0.757140 0.716349 0.117084
H5    H     H_    0.680623 0.759279 0.646916 0.146153
H6    H     H_    0.350906 0.096273 0.373683 0.105124
H7    H     H_    0.469732 0.249216 0.380995 0.105616
H8    H     H_    0.532409 0.411517 0.506536 0.100444
H9    H     H_    0.473504 0.420693 0.623741 0.108794
H10   H     H_    0.353286 0.268931 0.616056 0.118722
H11   H     H_    0.204552 0.733145 0.472168 0.115280
H12   H     H_    0.182728 0.068608 0.336437 0.116359
H13   H     H_    0.358947 0.743778 0.563179 0.107710
H14   H     H_    0.416871 0.811819 0.724759 0.104878
H15   H     H_    0.318945 0.867848 0.795381 0.123671
H16   H     H_    0.163198 0.855151 0.704778 0.177886
H17   H     H_    0.244962 0.587670 0.968073 0.114320
H18   H     H_    0.263175 0.750954 0.978925 0.128943
H19   H     H_    0.425458 0.884391 0.015702 0.099212
H20   H     H_    0.569761 0.853293 0.039754 0.110245
H21   H     H_    0.552612 0.689907 0.026824 0.115103
H22   H     H_    0.162323 0.241264 0.387123 0.119609
H23   H     H_    0.842145 0.651973 0.413479 0.109554
H24   H     H_    0.306686 0.356360 0.381186 0.109846
H25   H     H_    0.406673 0.529633 0.497343 0.094091
H26   H     H_    0.361062 0.587369 0.619752 0.110703
H27   H     H_    0.214730 0.473466 0.624959 0.117728
H28   H     H_    0.195753 0.857185 0.091765 0.144341
H29   H     H_    0.234845 0.989897 0.126485 0.150785
H30   H     H_    0.277334 0.926577 0.055850 0.163985
H31   H     H_    0.593325 0.947398 0.347183 0.095969
H32   H     H_    0.682419 0.971095 0.299774 0.147265
H33   H     H_    0.604580 0.029259 0.296309 0.138311
H34   H     H_    0.725401 0.848217 0.211225 0.096172
H35   H     H_    0.661481 0.768704 0.463662 0.146762
H36   H     H_    0.580918 0.826160 0.451838 0.096271
H37   H     H_    0.581984 0.762042 0.518835 0.135667
H38   H     H_    0.829149 0.269747 0.313530 0.121699
H39   H     H_    0.808211 0.277040 0.412328 0.127221
H40   H     H_    0.718053 0.183398 0.305447 0.153271
H41   H     H_    0.163196 0.993503 0.908168 0.225266
H42   H     H_    0.143190 0.096559 0.899622 0.116557
H43   H     H_    0.259084 0.097967 0.915403 0.158337
H44   H     H_    0.297657 0.970372 0.621172 0.142441
H45   H     H_    0.424681 0.436662 0.040822 0.136967
H46   H     H_    0.894900 0.824499 0.946757 0.108143
H47   H     H_    0.218084 0.167750 0.804294 0.151728
H48   H     H_    0.231416 0.341606 0.662357 0.118746
N1    N     N_R   0.932430 0.938480 0.620530 -0.132151
N2    N     N_R   0.173120 0.127600 0.665820 -0.036491
N3    N     N_R   0.812300 0.005460 0.456230 -0.137038
N4    N     N_R   0.178530 0.184580 0.620530 -0.048382
N5    N     N_R   0.806890 0.948480 0.501510 -0.134462
N6    N     N_R   0.952060 0.145220 0.456230 -0.109185
N7    N     N_R   0.033360 0.987840 0.665820 -0.130096
N8    N     N_R   0.821470 0.815420 0.379470 -0.039808
N9    N     N_R   0.193110 0.051520 0.498490 -0.059715
N10   N     N_R   0.047940 0.854780 0.543770 -0.065401
N11   N     N_R   0.966640 0.012160 0.334180 -0.039549
N12   N     N_R   0.067570 0.061520 0.379470 -0.049145
N13   N     N_R   0.947010 0.805420 0.498490 -0.047991
N14   N     N_R   0.826880 0.872400 0.334180 -0.041128
N15   N     N_R   0.187700 0.994540 0.543770 -0.048714
N16   N     N_R   0.052990 0.194580 0.501510 -0.094015
Ni1   Ni    Ni4+2 0.878060 0.878060 0.500000 0.228157
Ni2   Ni    Ni4+2 0.121940 0.121940 0.500000 0.199422
Ni3   Ni    Ni4+2 0.109540 0.991270 0.603850 0.232476
Ni4   Ni    Ni4+2 0.890460 0.008730 0.396150 0.230113
O1    O     O_3   0.805649 0.811813 0.627220 -0.596851
O2    O     O_3   0.134042 0.896376 0.996320 -0.624961
O3    O     O_3   0.717949 0.087244 0.417093 -0.597968
O4    O     O_3   0.703581 0.897769 0.572950 -0.595689
O5    O     O_3   0.836961 0.160804 0.351105 -0.611616
O6    O     O_3   0.151659 0.001316 0.791137 -0.635029

loop_
_geom_bond_atom_site_label_1
_geom_bond_atom_site_label_2
_ccdc_geom_bond_type
C71   O5    S    
C63   H24   S    
C42   H6    S    
C57   H18   S    
C62   H22   S    
C69   O3    S    
C41   C42   A    
C67   N10   A    
C68   H29   S    
C16   H47   S    
C3    C6    A    
C69   H33   S    
C54   C60   A    
C52   C53   A    
N13   Ni1   S    
C72   H41   S    
N4    Ni2   S    
N11   Ni4   S    
C29   C30   D    
N5    Ni1   S    
C45   H2    S    
N9    N15   A    
C6    C45   A    
C58   H19   S    
C24   C26   T    
C18   C19   T    
C29   C32   S    
C44   H8    S    
N12   Ni2   S    
C21   C54   S    
N7    Ni3   S    
C20   C25   T    
N1    Ni1   S    
C71   H39   S    
C3    N14   A    
C12   C37   A    
N6    N16   A    
N14   Ni4   S    
N9    Ni2   S    
C70   H36   S    
C46   C47   A    
C61   C66   A    
C64   H25   S    
C2    H23   S    
C72   H43   S    
C55   H17   S    
C31   C33   T    
C70   O4    S    
C59   H20   S    
C4    C12   A    
C34   C36   A    
C37   N6    A    
C28   C34   A    
C59   C60   A    
C21   C22   D    
N1    N7    A    
C73   H1    S    
C66   H27   S    
C52   H15   S    
C22   H45   S    
C9    C73   A    
C7    C56   A    
N8    Ni1   S    
C44   C46   A    
C50   C51   A    
C7    C14   S    
C41   C47   A    
C48   C53   A    
N8    N14   A    
C8    C19   S    
C51   C52   A    
C38   N7    A    
C49   H11   S    
C38   C39   A    
C10   C11   T    
C5    C7    A    
C69   H31   S    
C58   C59   A    
C72   O6    S    
C29   O2    S    
C4    C61   S    
C37   O5    S    
C46   H9    S    
C71   H40   S    
C35   N4    A    
C43   C44   A    
C1    N1    A    
C41   C56   S    
C62   C63   A    
C1    O1    S    
C70   H35   S    
C20   C23   S    
N3    Ni4   S    
C71   H38   S    
C17   C18   S    
C28   O3    S    
C40   H5    S    
C10   C34   S    
C33   C39   S    
C47   H10   S    
C74   H12   S    
C38   O6    S    
N16   Ni2   S    
C50   H13   S    
C36   O4    S    
C48   C49   A    
C73   N11   A    
C49   C50   A    
C12   C15   S    
C23   C35   A    
N15   Ni3   S    
C55   C57   A    
N11   N12   A    
C43   H7    S    
C40   H4    S    
N2    Ni3   S    
C36   N5    A    
C9    C74   A    
C28   N3    A    
C9    C27   S    
N2    N4    A    
N10   Ni3   S    
C15   C17   T    
C21   C25   S    
C54   C55   A    
C27   C32   T    
C35   H48   S    
C2    C8    A    
C68   H30   S    
C65   H26   S    
C68   H28   S    
C51   H14   S    
C69   H32   S    
C5    N15   A    
C6    C26   S    
C3    H34   S    
C16   C23   A    
C72   H42   S    
C2    N13   A    
C5    H44   S    
C64   C65   A    
C16   N2    A    
C11   C13   S    
C57   C58   A    
C30   C31   S    
C30   H46   S    
N10   N13   A    
C74   N12   A    
C68   O2    S    
C22   C24   S    
C48   C67   S    
C61   C62   A    
C56   N9    A    
C70   H37   S    
C1    C39   A    
C4    N16   A    
C63   C64   A    
C60   H21   S    
C45   N8    A    
C8    C67   A    
C65   C66   A    
C42   C43   A    
C40   O1    S    
C53   H16   S    
N3    N5    A    
C40   H3    S    
C13   C14   T    
N6    Ni4   S    
