data_mof_unit_40231.cif
_audit_creation_date              2012-12-11T14:05:40-0500
_audit_creation_method            fapswitch 2.2
_symmetry_space_group_name_H-M    P1
_symmetry_Int_Tables_number       1
_space_group_crystal_system       tetragonal
_cell_length_a                    17.468573
_cell_length_b                    17.468573
_cell_length_c                    17.468571
_cell_angle_alpha                 90.0
_cell_angle_beta                  90.0
_cell_angle_gamma                 90.0
_cell_volume                      5330.55265437

loop_
_atom_site_label
_atom_site_type_symbol
_atom_type_description
_atom_site_fract_x
_atom_site_fract_y
_atom_site_fract_z
_atom_type_partial_charge
Br1   Br    Br    0.635257 0.635257 0.150163 -0.373372
Br2   Br    Br    0.849836 0.364743 0.364743 -0.373372
Br3   Br    Br    0.150163 0.364743 0.635257 -0.373372
Br4   Br    Br    0.849837 0.635257 0.364743 -0.373372
Br5   Br    Br    0.150163 0.364743 0.364743 -0.373372
Br6   Br    Br    0.849836 0.635257 0.635257 -0.373372
Br7   Br    Br    0.150163 0.635257 0.364743 -0.373372
Br8   Br    Br    0.849836 0.364743 0.635257 -0.373372
Br9   Br    Br    0.635257 0.150163 0.635257 -0.373372
Br10  Br    Br    0.364743 0.849836 0.364743 -0.373372
Br11  Br    Br    0.635257 0.150163 0.364743 -0.373372
Br12  Br    Br    0.364743 0.364743 0.849837 -0.373372
Br13  Br    Br    0.364743 0.849836 0.635257 -0.373372
Br14  Br    Br    0.364743 0.150163 0.364743 -0.373372
Br15  Br    Br    0.635257 0.849836 0.635257 -0.373372
Br16  Br    Br    0.364743 0.150163 0.635257 -0.373372
Br17  Br    Br    0.635257 0.849837 0.364743 -0.373372
Br18  Br    Br    0.364743 0.635257 0.150163 -0.373372
Br19  Br    Br    0.635257 0.364743 0.849836 -0.373372
Br20  Br    Br    0.364743 0.364743 0.150163 -0.373372
Br21  Br    Br    0.635257 0.635257 0.849837 -0.373372
Br22  Br    Br    0.635257 0.364743 0.150163 -0.373372
Br23  Br    Br    0.364743 0.635257 0.849836 -0.373372
Br24  Br    Br    0.150163 0.635257 0.635257 -0.373372
C1    C     C_R   0.677608 0.775781 0.224218 -0.025635
C2    C     C_R   0.322392 0.775781 0.224219 -0.025633
C3    C     C_R   0.904325 0.815890 0.617073 -0.113179
C4    C     C_R   0.095675 0.382927 0.815889 -0.113179
C5    C     C_R   0.904325 0.617073 0.184110 -0.113179
C6    C     C_R   0.095675 0.815890 0.617073 -0.113179
C7    C     C_R   0.904325 0.184110 0.382927 -0.113179
C8    C     C_R   0.815890 0.904325 0.617073 -0.113179
C9    C     C_R   0.184110 0.095675 0.382927 -0.113179
C10   C     C_R   0.617073 0.904325 0.184110 -0.113179
C11   C     C_R   0.382927 0.095675 0.815889 -0.113179
C12   C     C_R   0.184110 0.904325 0.382927 -0.113179
C13   C     C_R   0.224218 0.322391 0.775781 -0.025635
C14   C     C_R   0.815890 0.095675 0.617073 -0.113179
C15   C     C_R   0.382927 0.904325 0.815890 -0.113178
C16   C     C_R   0.617073 0.095675 0.184110 -0.113178
C17   C     C_R   0.184110 0.095675 0.617073 -0.113179
C18   C     C_R   0.815890 0.904325 0.382927 -0.113179
C19   C     C_R   0.382927 0.095675 0.184110 -0.113179
C20   C     C_R   0.617073 0.904325 0.815889 -0.113179
C21   C     C_R   0.815890 0.095675 0.382927 -0.113179
C22   C     C_R   0.184110 0.904325 0.617073 -0.113179
C23   C     C_R   0.617073 0.095675 0.815890 -0.113179
C24   C     C_R   0.775781 0.677608 0.224218 -0.025635
C25   C     C_R   0.382927 0.904325 0.184110 -0.113179
C26   C     C_R   0.322391 0.775781 0.775781 -0.025634
C27   C     C_R   0.677608 0.224219 0.224218 -0.025634
C28   C     C_R   0.775781 0.677608 0.775781 -0.025635
C29   C     C_R   0.224219 0.322391 0.224218 -0.025635
C30   C     C_R   0.224219 0.224219 0.677608 -0.025635
C31   C     C_R   0.775781 0.775781 0.322391 -0.025635
C32   C     C_R   0.224219 0.775781 0.322391 -0.025634
C33   C     C_R   0.322391 0.224218 0.775781 -0.025635
C34   C     C_R   0.775781 0.224219 0.677608 -0.025634
C35   C     C_R   0.775781 0.224219 0.322391 -0.025634
C36   C     C_R   0.224219 0.775781 0.677608 -0.025634
C37   C     C_R   0.775781 0.775781 0.677608 -0.025634
C38   C     C_R   0.224219 0.224219 0.322391 -0.025634
C39   C     C_R   0.637679 0.828849 0.828849 0.108915
C40   C     C_R   0.362321 0.171151 0.171151 0.108915
C41   C     C_R   0.171151 0.637679 0.828849 0.108914
C42   C     C_R   0.828849 0.362321 0.171151 0.108914
C43   C     C_R   0.362321 0.171151 0.828849 0.108915
C44   C     C_R   0.224219 0.677608 0.224218 -0.025634
C45   C     C_R   0.637679 0.828849 0.171151 0.108915
C46   C     C_R   0.828849 0.362321 0.828849 0.108914
C47   C     C_R   0.171151 0.637679 0.171151 0.108914
C48   C     C_R   0.637679 0.171151 0.171151 0.108914
C49   C     C_R   0.362321 0.828849 0.828849 0.108914
C50   C     C_R   0.171151 0.362321 0.171151 0.108915
C51   C     C_R   0.828849 0.637679 0.828849 0.108915
C52   C     C_R   0.362321 0.828849 0.171151 0.108914
C53   C     C_R   0.637679 0.171151 0.828849 0.108914
C54   C     C_R   0.828849 0.637679 0.171151 0.108915
C55   C     C_R   0.775781 0.322391 0.775781 -0.025634
C56   C     C_R   0.171151 0.362321 0.828849 0.108915
C57   C     C_R   0.828849 0.171151 0.637679 0.108915
C58   C     C_R   0.171151 0.828849 0.362321 0.108915
C59   C     C_R   0.828849 0.828849 0.362321 0.108915
C60   C     C_R   0.171151 0.171151 0.637679 0.108915
C61   C     C_R   0.171151 0.171151 0.362321 0.108915
C62   C     C_R   0.828849 0.828849 0.637679 0.108915
C63   C     C_R   0.171151 0.828849 0.637679 0.108915
C64   C     C_R   0.828849 0.171151 0.362321 0.108915
C65   C     C_R   0.706313 0.706313 0.195977 0.191989
C66   C     C_R   0.322391 0.224219 0.224218 -0.025635
C67   C     C_R   0.293687 0.293687 0.804023 0.191989
C68   C     C_R   0.293687 0.706313 0.195977 0.191988
C69   C     C_R   0.706313 0.293687 0.804023 0.191988
C70   C     C_R   0.293687 0.293687 0.195977 0.191989
C71   C     C_R   0.706313 0.706313 0.804023 0.191989
C72   C     C_R   0.706313 0.293687 0.195977 0.191988
C73   C     C_R   0.293687 0.706313 0.804023 0.191988
C74   C     C_R   0.195977 0.706313 0.706313 0.191988
C75   C     C_R   0.804023 0.293687 0.293687 0.191988
C76   C     C_R   0.195977 0.293687 0.706313 0.191989
C77   C     C_R   0.677608 0.775781 0.775781 -0.025635
C78   C     C_R   0.804023 0.706313 0.293687 0.191989
C79   C     C_R   0.195977 0.293687 0.293687 0.191989
C80   C     C_R   0.804023 0.706313 0.706313 0.191989
C81   C     C_R   0.195977 0.706313 0.293687 0.191988
C82   C     C_R   0.804023 0.293687 0.706313 0.191988
C83   C     C_R   0.706313 0.195977 0.706313 0.191988
C84   C     C_R   0.293687 0.804023 0.293687 0.191988
C85   C     C_R   0.706313 0.195977 0.293687 0.191988
C86   C     C_R   0.293687 0.804023 0.706313 0.191988
C87   C     C_R   0.293687 0.195977 0.293687 0.191989
C88   C     C_R   0.775781 0.322392 0.224219 -0.025633
C89   C     C_R   0.706313 0.804023 0.706313 0.191989
C90   C     C_R   0.293687 0.195977 0.706313 0.191989
C91   C     C_R   0.706313 0.804023 0.293687 0.191989
C92   C     C_R   0.617073 0.815890 0.904325 -0.113179
C93   C     C_R   0.382927 0.184110 0.095675 -0.113179
C94   C     C_R   0.184110 0.617073 0.904325 -0.113179
C95   C     C_R   0.815890 0.382927 0.095675 -0.113179
C96   C     C_R   0.382927 0.184110 0.904325 -0.113179
C97   C     C_R   0.617073 0.815890 0.095675 -0.113179
C98   C     C_R   0.815890 0.382927 0.904325 -0.113179
C99   C     C_R   0.224219 0.677608 0.775781 -0.025633
C100  C     C_R   0.184110 0.617073 0.095675 -0.113179
C101  C     C_R   0.617073 0.184110 0.095675 -0.113179
C102  C     C_R   0.382927 0.815890 0.904325 -0.113179
C103  C     C_R   0.184110 0.382927 0.095675 -0.113179
C104  C     C_R   0.815890 0.617073 0.904325 -0.113179
C105  C     C_R   0.382927 0.815890 0.095675 -0.113179
C106  C     C_R   0.617073 0.184110 0.904325 -0.113179
C107  C     C_R   0.815890 0.617073 0.095675 -0.113179
C108  C     C_R   0.184110 0.382927 0.904325 -0.113179
C109  C     C_R   0.904325 0.617073 0.815889 -0.113179
C110  C     C_R   0.677608 0.224219 0.775781 -0.025633
C111  C     C_R   0.095675 0.382927 0.184110 -0.113179
C112  C     C_R   0.904325 0.184110 0.617073 -0.113179
C113  C     C_R   0.095675 0.815890 0.382927 -0.113179
C114  C     C_R   0.904325 0.382927 0.184110 -0.113179
C115  C     C_R   0.095675 0.617073 0.815890 -0.113179
C116  C     C_R   0.904325 0.815890 0.382927 -0.113179
C117  C     C_R   0.095675 0.184110 0.617073 -0.113179
C118  C     C_R   0.095675 0.617073 0.184110 -0.113178
C119  C     C_R   0.904325 0.382927 0.815890 -0.113178
C120  C     C_R   0.095675 0.184110 0.382927 -0.113179
H1    H     H_    0.618077 0.762375 0.934669 0.152162
H2    H     H_    0.381922 0.762375 0.934669 0.152162
H3    H     H_    0.237625 0.381922 0.065331 0.152162
H4    H     H_    0.762375 0.618077 0.934669 0.152162
H5    H     H_    0.381922 0.762375 0.065331 0.152162
H6    H     H_    0.618078 0.237625 0.934669 0.152162
H7    H     H_    0.762375 0.618077 0.065331 0.152162
H8    H     H_    0.237625 0.381922 0.934669 0.152162
H9    H     H_    0.934669 0.618078 0.762375 0.152162
H10   H     H_    0.065331 0.381922 0.237625 0.152162
H11   H     H_    0.934669 0.237625 0.618078 0.152162
H12   H     H_    0.381922 0.237625 0.065331 0.152162
H13   H     H_    0.065331 0.762375 0.381922 0.152162
H14   H     H_    0.934669 0.381922 0.237625 0.152162
H15   H     H_    0.065331 0.618078 0.762375 0.152162
H16   H     H_    0.934669 0.762375 0.381922 0.152162
H17   H     H_    0.065331 0.237625 0.618078 0.152162
H18   H     H_    0.065331 0.618078 0.237625 0.152162
H19   H     H_    0.934669 0.381922 0.762375 0.152162
H20   H     H_    0.065331 0.237625 0.381922 0.152162
H21   H     H_    0.934669 0.762375 0.618078 0.152162
H22   H     H_    0.065331 0.381922 0.762375 0.152162
H23   H     H_    0.237625 0.618078 0.934669 0.152162
H24   H     H_    0.934669 0.618078 0.237625 0.152162
H25   H     H_    0.065331 0.762375 0.618078 0.152162
H26   H     H_    0.934669 0.237625 0.381922 0.152162
H27   H     H_    0.762375 0.934669 0.618078 0.152162
H28   H     H_    0.237625 0.065331 0.381922 0.152162
H29   H     H_    0.618078 0.934669 0.237625 0.152162
H30   H     H_    0.381922 0.065331 0.762375 0.152162
H31   H     H_    0.237625 0.934669 0.381922 0.152162
H32   H     H_    0.762375 0.065331 0.618078 0.152162
H33   H     H_    0.381922 0.934669 0.762375 0.152162
H34   H     H_    0.762375 0.381922 0.065331 0.152162
H35   H     H_    0.618078 0.065331 0.237625 0.152162
H36   H     H_    0.237625 0.065331 0.618078 0.152162
H37   H     H_    0.762375 0.934669 0.381922 0.152162
H38   H     H_    0.381922 0.065331 0.237625 0.152162
H39   H     H_    0.618078 0.934669 0.762375 0.152162
H40   H     H_    0.762375 0.065331 0.381922 0.152162
H41   H     H_    0.237625 0.934669 0.618078 0.152162
H42   H     H_    0.618078 0.065331 0.762375 0.152162
H43   H     H_    0.381922 0.934669 0.237625 0.152162
H44   H     H_    0.381922 0.237625 0.934669 0.152162
H45   H     H_    0.618077 0.762375 0.065331 0.152162
H46   H     H_    0.762375 0.381922 0.934669 0.152162
H47   H     H_    0.237625 0.618078 0.065331 0.152162
H48   H     H_    0.618078 0.237625 0.065331 0.152162
N1    N     N_R   0.584840 0.879720 0.932190 -0.054947
N2    N     N_R   0.415160 0.879720 0.932190 -0.054947
N3    N     N_R   0.120280 0.415160 0.067810 -0.054947
N4    N     N_R   0.879720 0.584840 0.932190 -0.054947
N5    N     N_R   0.415160 0.879720 0.067810 -0.054947
N6    N     N_R   0.584840 0.120280 0.932190 -0.054948
N7    N     N_R   0.879720 0.584840 0.067810 -0.054947
N8    N     N_R   0.120280 0.415160 0.932190 -0.054947
N9    N     N_R   0.932190 0.584840 0.879720 -0.054947
N10   N     N_R   0.067810 0.415160 0.120280 -0.054947
N11   N     N_R   0.932190 0.120280 0.584840 -0.054947
N12   N     N_R   0.415160 0.120280 0.067810 -0.054947
N13   N     N_R   0.067810 0.879720 0.415160 -0.054947
N14   N     N_R   0.932190 0.415160 0.120280 -0.054947
N15   N     N_R   0.067810 0.584840 0.879720 -0.054947
N16   N     N_R   0.932190 0.879720 0.415160 -0.054947
N17   N     N_R   0.067810 0.120280 0.584840 -0.054948
N18   N     N_R   0.067810 0.584840 0.120280 -0.054948
N19   N     N_R   0.932190 0.415160 0.879720 -0.054947
N20   N     N_R   0.067810 0.120280 0.415160 -0.054947
N21   N     N_R   0.932190 0.879720 0.584840 -0.054947
N22   N     N_R   0.067810 0.415160 0.879720 -0.054947
N23   N     N_R   0.120280 0.584840 0.932190 -0.054948
N24   N     N_R   0.932190 0.584840 0.120280 -0.054947
N25   N     N_R   0.067810 0.879720 0.584840 -0.054947
N26   N     N_R   0.932190 0.120280 0.415160 -0.054947
N27   N     N_R   0.879720 0.932190 0.584840 -0.054947
N28   N     N_R   0.120280 0.067810 0.415160 -0.054947
N29   N     N_R   0.584840 0.932190 0.120280 -0.054947
N30   N     N_R   0.415160 0.067810 0.879720 -0.054947
N31   N     N_R   0.120280 0.932190 0.415160 -0.054947
N32   N     N_R   0.879720 0.067810 0.584840 -0.054947
N33   N     N_R   0.415160 0.932190 0.879720 -0.054947
N34   N     N_R   0.879720 0.415160 0.067810 -0.054947
N35   N     N_R   0.584840 0.067810 0.120280 -0.054948
N36   N     N_R   0.120280 0.067810 0.584840 -0.054948
N37   N     N_R   0.879720 0.932190 0.415160 -0.054947
N38   N     N_R   0.415160 0.067810 0.120280 -0.054947
N39   N     N_R   0.584840 0.932190 0.879720 -0.054947
N40   N     N_R   0.879720 0.067810 0.415160 -0.054947
N41   N     N_R   0.120280 0.932190 0.584840 -0.054947
N42   N     N_R   0.584840 0.067810 0.879720 -0.054947
N43   N     N_R   0.415160 0.932190 0.120280 -0.054947
N44   N     N_R   0.415160 0.120280 0.932190 -0.054947
N45   N     N_R   0.584840 0.879720 0.067810 -0.054947
N46   N     N_R   0.879720 0.415160 0.932190 -0.054947
N47   N     N_R   0.120280 0.584840 0.067810 -0.054947
N48   N     N_R   0.584840 0.120280 0.067810 -0.054947
Ni1   Ni    Ni4+2 0.500000 0.880920 0.000000 0.260064
Ni2   Ni    Ni4+2 0.119080 0.000000 0.500000 0.260064
Ni3   Ni    Ni4+2 0.500000 0.000000 0.119080 0.260064
Ni4   Ni    Ni4+2 0.500000 0.000000 0.880920 0.260064
Ni5   Ni    Ni4+2 0.500000 0.119080 0.000000 0.260064
Ni6   Ni    Ni4+2 0.119080 0.500000 0.000000 0.260064
Ni7   Ni    Ni4+2 0.880920 0.500000 0.000000 0.260064
Ni8   Ni    Ni4+2 0.000000 0.500000 0.880920 0.260064
Ni9   Ni    Ni4+2 1.000000 0.500000 0.119080 0.260064
Ni10  Ni    Ni4+2 0.000000 0.119080 0.500000 0.260064
Ni11  Ni    Ni4+2 0.000000 0.880920 0.500000 0.260064
Ni12  Ni    Ni4+2 0.880920 0.000000 0.500000 0.260064

loop_
_geom_bond_atom_site_label_1
_geom_bond_atom_site_label_2
_ccdc_geom_bond_type
Br5   C79   S    
C117  H17   S    
C56   C108  A    
N2    Ni1   S    
Br11  C85   S    
C77   C89   A    
Br12  C67   S    
C107  H7    S    
C29   C50   S    
C26   C86   A    
C39   C77   S    
C28   C51   S    
N15   Ni8   S    
C30   C60   S    
C102  H2    S    
C19   N38   A    
C106  H6    S    
N34   Ni7   S    
N3    N10   A    
C113  N13   A    
C11   N30   A    
N33   Ni4   S    
C72   C88   A    
C31   C78   A    
N5    Ni1   S    
C46   C119  A    
C111  H10   S    
N47   Ni6   S    
Br24  C74   S    
C13   C76   A    
C5    H24   S    
C116  H16   S    
C20   N39   A    
C39   C92   A    
C55   C69   A    
C83   C110  A    
C36   C74   A    
N17   N36   A    
C1    C91   A    
N8    Ni6   S    
C97   H45   S    
C92   H1    S    
C10   C45   A    
C118  H18   S    
N35   N48   A    
N6    Ni5   S    
C2    C68   A    
C49   C102  A    
N11   Ni10  S    
C2    C84   A    
C116  N16   A    
C94   H23   S    
C108  N8    A    
C35   C75   A    
C46   C98   A    
C28   C71   A    
C51   C104  A    
C48   C101  A    
C14   N32   A    
C37   C62   S    
N14   Ni9   S    
C9    C61   A    
C35   C64   S    
C32   C84   A    
N38   Ni3   S    
C17   H36   S    
C44   C68   A    
Br10  C84   S    
Br3   C76   S    
C38   C87   A    
C12   C58   A    
N24   Ni9   S    
Br4   C78   S    
N46   Ni7   S    
N14   N34   A    
N8    N22   A    
C41   C94   A    
Br7   C81   S    
C98   H46   S    
C94   N23   A    
N40   Ni12  S    
C21   N40   A    
Br6   C80   S    
C93   N12   A    
C16   C48   A    
C43   C96   A    
N18   Ni9   S    
C24   C54   S    
N12   Ni5   S    
Br19  C69   S    
C10   N29   A    
C4    H22   S    
N17   Ni10  S    
C23   N42   A    
N31   Ni2   S    
C15   C49   A    
C46   C55   S    
C17   N36   A    
C115  H15   S    
C27   C85   A    
N9    Ni8   S    
C120  H20   S    
C4    N22   A    
N26   Ni10  S    
C30   C76   A    
C74   C99   A    
Br22  C72   S    
C66   C87   A    
C33   C43   S    
C96   H44   S    
C61   C120  A    
C119  H19   S    
C59   C116  A    
C15   H33   S    
C36   C63   S    
N29   Ni3   S    
C19   C40   A    
C66   C70   A    
C111  N10   A    
N5    N43   A    
C18   H37   S    
N21   N27   A    
Br14  C87   S    
C13   C56   S    
Br1   C65   S    
N19   N46   A    
C5    C54   A    
N7    N24   A    
C8    N27   A    
C22   N41   A    
C47   C100  A    
C37   C80   A    
C114  H14   S    
C120  N20   A    
C69   C110  A    
N6    N42   A    
C26   C49   S    
N25   N41   A    
C100  N47   A    
C13   C67   A    
C104  H4    S    
C5    N24   A    
C119  N19   A    
N20   N28   A    
C17   C60   A    
N28   Ni2   S    
N13   N31   A    
C40   C93   A    
C55   C82   A    
Br8   C82   S    
C34   C82   A    
N16   Ni11  S    
N19   Ni8   S    
C3    C62   A    
C107  N7    A    
C54   C107  A    
C6    H25   S    
C105  H5    S    
Br13  C86   S    
N13   Ni11  S    
C27   C72   A    
C103  N3    A    
C16   H35   S    
Br15  C89   S    
C52   C105  A    
C102  N2    A    
C40   C66   S    
C14   H32   S    
C50   C103  A    
C42   C114  A    
C45   C97   A    
C8    C62   A    
C50   C111  A    
C21   C64   A    
C93   H12   S    
N15   N23   A    
C25   C52   A    
C25   H43   S    
N3    Ni6   S    
C100  H47   S    
C23   H42   S    
C12   N31   A    
C20   H39   S    
N43   Ni3   S    
C101  N48   A    
C115  N15   A    
C3    H21   S    
C6    N25   A    
C92   N1    A    
Br23  C73   S    
C8    H27   S    
Br2   C75   S    
N27   Ni12  S    
C47   C118  A    
C14   C57   A    
C37   C89   A    
N48   Ni5   S    
C108  H8    S    
C109  H9    S    
C34   C57   S    
C1    C45   S    
C27   C48   S    
C23   C53   A    
N20   Ni10  S    
C2    C52   S    
C117  N17   A    
C34   C83   A    
Br17  C91   S    
C57   C112  A    
C22   C63   A    
N26   N40   A    
C9    N28   A    
N2    N33   A    
N4    Ni7   S    
C112  H11   S    
Br20  C70   S    
C114  N14   A    
C28   C80   A    
C26   C73   A    
N30   Ni4   S    
C7    C64   A    
C33   C67   A    
C29   C70   A    
C11   H30   S    
N1    Ni1   S    
N44   Ni5   S    
C18   C59   A    
C104  N4    A    
C12   H31   S    
Br16  C90   S    
C38   C79   A    
C51   C109  A    
C32   C58   S    
C33   C90   A    
N30   N44   A    
C7    H26   S    
N7    Ni7   S    
C58   C113  A    
Br21  C71   S    
N16   N37   A    
C19   H38   S    
C1    C65   A    
C113  H13   S    
N45   Ni1   S    
C24   C78   A    
C42   C95   A    
Br18  C68   S    
N18   N47   A    
C7    N26   A    
C16   N35   A    
N39   Ni4   S    
C6    C63   A    
Br9   C83   S    
C73   C99   A    
C10   H29   S    
C96   N44   A    
N35   Ni3   S    
N4    N9    A    
C98   N46   A    
C31   C91   A    
C60   C117  A    
C29   C79   A    
C44   C47   S    
C97   N45   A    
C75   C88   A    
C30   C90   A    
C35   C85   A    
N11   N32   A    
N21   Ni11  S    
C101  H48   S    
C53   C106  A    
C41   C99   S    
C22   H41   S    
N12   N38   A    
C4    C56   A    
C32   C81   A    
C15   N33   A    
N37   Ni12  S    
C36   C86   A    
C11   C43   A    
N32   Ni12  S    
C41   C115  A    
C18   N37   A    
N41   Ni2   S    
N10   Ni9   S    
N36   Ni2   S    
C95   N34   A    
N23   Ni6   S    
C25   N43   A    
C20   C39   A    
C53   C110  S    
N29   N45   A    
C3    N21   A    
C95   H34   S    
C118  N18   A    
C38   C61   S    
N22   Ni8   S    
N25   Ni11  S    
N1    N39   A    
C42   C88   S    
C109  N9    A    
C106  N6    A    
C9    H28   S    
C31   C59   S    
C44   C81   A    
C112  N11   A    
C105  N5    A    
C24   C65   A    
C71   C77   A    
C21   H40   S    
C103  H3    S    
N42   Ni4   S    
