data_mof_unit_11610.cif
_audit_creation_date              2013-03-05T16:09:57-0500
_audit_creation_method            fapswitch 2.2
_symmetry_space_group_name_H-M    P1
_symmetry_Int_Tables_number       1
_space_group_crystal_system       triclinic
_cell_length_a                    10.649623
_cell_length_b                    9.871214
_cell_length_c                    10.676081
_cell_angle_alpha                 89.27772
_cell_angle_beta                  89.705557
_cell_angle_gamma                 90.436551
_cell_volume                      1122.18276334

loop_
_atom_site_label
_atom_site_type_symbol
_atom_site_description
_atom_site_fract_x
_atom_site_fract_y
_atom_site_fract_z
_atom_type_partial_charge
O1    O     O_R   0.316770 0.614620 0.499990 -0.607322
O2    O     O_R   0.683230 0.614620 0.500010 -0.610844
O3    O     O_R   0.316800 0.385290 0.500000 -0.591914
O4    O     O_R   0.683200 0.385290 0.500000 -0.599668
C1    C     C_R   0.260172 0.498992 0.503702 0.902435
C2    C     C_R   0.739485 0.500468 0.505560 0.960715
O5    O     O_R   0.500010 0.614690 0.316770 -0.640076
O6    O     O_R   0.499990 0.614690 0.683230 -0.604794
O7    O     O_R   0.500040 0.385360 0.316770 -0.574749
O8    O     O_R   0.499960 0.385360 0.683230 -0.553642
C3    C     C_R   0.514895 0.500517 0.259866 0.931825
C4    C     C_R   0.483608 0.498737 0.739565 0.990468
Zn1   Zn    Zn3+2 0.500000 0.653120 0.500000 0.976505
Zn2   Zn    Zn3+2 0.500000 0.346880 0.500000 1.078545
C5    C     C_R   0.569486 0.747613 0.096834 0.221410
C6    C     C_R   0.405706 0.738984 0.892282 0.231519
C7    C     C_R   0.527986 0.867489 0.040127 -0.194161
C8    C     C_R   0.440358 0.863179 0.944095 -0.198517
H1    H     H_    0.565840 0.963598 0.069368 0.249695
H2    H     H_    0.402833 0.956488 0.906677 0.236382
C9    C     C_R   0.460353 0.617905 0.940097 -0.020528
C10   C     C_R   0.520979 0.621820 0.055685 -0.005596
C11   C     C_R   0.530667 0.499400 0.124441 -0.271613
C12   C     C_R   0.464925 0.494778 0.874296 -0.265174
C13   C     C_R   0.520908 0.374033 0.062981 0.240537
C14   C     C_R   0.487358 0.371544 0.938521 0.263383
C15   C     C_R   0.063574 0.407694 0.592559 0.200550
C16   C     C_R   0.933083 0.412879 0.597954 0.215774
C17   C     C_R   0.871645 0.502357 0.515620 -0.169155
C18   C     C_R   0.127494 0.496704 0.509746 -0.182224
C19   C     C_R   0.936624 0.591905 0.437130 -0.241972
C20   C     C_R   0.064629 0.588988 0.434041 -0.197870
H3    H     H_    0.887734 0.661920 0.376552 0.172460
H4    H     H_    0.114835 0.656242 0.370496 0.182417
C21   C     C_R   0.581831 0.071818 0.572912 -0.056569
C22   C     C_R   0.416420 0.073430 0.429323 0.015374
H5    H     H_    0.647171 0.126671 0.630984 0.213336
H6    H     H_    0.351576 0.131792 0.373636 0.181210
C23   C     C_R   0.582424 0.927824 0.573165 0.196833
C24   C     C_R   0.415556 0.928881 0.427767 0.213270
N1    N     N_R   0.500000 0.857200 0.500000 -0.133169
N2    N     N_R   0.500000 0.142810 0.500000 -0.113599
N3    N     N_R   0.541806 0.247356 0.126409 0.239594
O9    O     O_R   0.448921 0.162491 0.142454 -0.443803
O10   O     O_R   0.651206 0.220196 0.173877 -0.376418
N4    N     N_R   0.476741 0.242499 0.878647 0.233881
O11   O     O_R   0.572607 0.161690 0.874645 -0.386823
O12   O     O_R   0.370601 0.204897 0.829894 -0.333939
N5    N     N_2   0.673839 0.753150 0.179397 -0.292257
H7    H     H_    0.678632 0.841223 0.230300 0.237416
C25   C     C_3   0.791662 0.723330 0.117609 -0.737005
H8    H     H_    0.871230 0.742278 0.181542 0.220402
H9    H     H_    0.805192 0.789891 0.033689 0.253465
H10   H     H_    0.793403 0.615532 0.089004 0.266037
N6    N     N_2   0.313123 0.736311 0.796303 -0.289606
H11   H     H_    0.303770 0.826389 0.747231 0.250748
C26   C     C_3   0.193397 0.679237 0.834842 -0.712850
H12   H     H_    0.130593 0.672249 0.752420 0.242436
H13   H     H_    0.148631 0.744764 0.905951 0.240874
H14   H     H_    0.205527 0.575954 0.874911 0.271772
N7    N     N_R   0.130648 0.318874 0.675190 0.242417
O13   O     O_R   0.127105 0.339062 0.795288 -0.343606
O14   O     O_R   0.170958 0.203576 0.633837 -0.335678
N8    N     N_R   0.864013 0.333099 0.689135 0.226946
O15   O     O_R   0.893446 0.207499 0.711338 -0.345809
O16   O     O_R   0.777474 0.389046 0.757180 -0.394484
N9    N     N_2   0.666890 0.856195 0.651470 -0.258581
H15   H     H_    0.654579 0.877601 0.745017 0.244088
C27   C     C_3   0.797227 0.867295 0.613610 -0.675700
H16   H     H_    0.853428 0.792108 0.667032 0.243256
H17   H     H_    0.834251 0.970165 0.632923 0.264770
H18   H     H_    0.807866 0.847030 0.511990 0.238652
N10   N     N_2   0.330468 0.857246 0.349069 -0.273180
H19   H     H_    0.374667 0.806673 0.278122 0.259638
C28   C     C_3   0.217351 0.924252 0.306891 -0.785283
H20   H     H_    0.155801 0.850555 0.258696 0.230688
H21   H     H_    0.240653 0.005660 0.237707 0.270744
H22   H     H_    0.165031 0.965987 0.387855 0.265710

loop_
_geom_bond_atom_site_label_1
_geom_bond_atom_site_label_2
_geom_bond_distance
_ccdc_geom_bond_type
N6    H11   1.032068 S    
C6    C9    1.423394 A    
N10   H19   1.026615 S    
C22   N2    1.356948 A    
O7    Zn2   1.988008 S    
C13   N3    1.433926 S    
Zn1   N1    2.014517 S    
C23   N1    1.370441 A    
O5    C3    1.297455 A    
O6    Zn1   1.987921 S    
O1    C1    1.286771 A    
C16   C17   1.405713 A    
C21   H5    1.081176 S    
C12   C14   1.411423 A    
C26   H13   1.111476 S    
C28   H21   1.110413 S    
C24   N10   1.428320 S    
C27   H17   1.108660 S    
N7    O14   1.301039 A    
O2    Zn1   1.990834 S    
C15   N7    1.433080 S    
C5    C10   1.417066 A    
N5    C25   1.448536 S    
C19   H3    1.079211 S    
N7    O13   1.300445 A    
Zn2   N2    2.014420 S    
C5    N5    1.423145 S    
C9    C10   1.396481 A    
C15   C18   1.407897 A    
N10   C28   1.449703 S    
O2    C2    1.281063 A    
N4    O12   1.300342 A    
N9    H15   1.031348 S    
C22   C24   1.427134 A    
O4    C2    1.283414 A    
C21   N2    1.363448 A    
O8    Zn2   1.997409 S    
C26   H14   1.109369 S    
C13   C14   1.378186 A    
C25   H8    1.107089 S    
N9    C27   1.446667 S    
C20   H4    1.079989 S    
C27   H18   1.111053 S    
C21   C23   1.421423 A    
C28   H20   1.108719 S    
O7    C3    1.290398 A    
C19   C20   1.363961 A    
O6    C4    1.296449 A    
C7    C8    1.390730 A    
N3    O10   1.301341 A    
O3    Zn2   1.990346 S    
O8    C4    1.289751 A    
C16   N8    1.439912 S    
C24   N1    1.381001 A    
N6    C26   1.445767 S    
N3    O9    1.300623 A    
O1    Zn1   1.985151 S    
C1    C18   1.414110 S    
C5    C7    1.398119 A    
N4    O11   1.301254 A    
C23   N9    1.417917 S    
O3    C1    1.279126 A    
C4    C12   1.451081 S    
C25   H10   1.111010 S    
N8    O15   1.300343 A    
C22   H6    1.078835 S    
C6    N6    1.426002 S    
C17   C19   1.388692 A    
C18   C20   1.388368 A    
C26   H12   1.110528 S    
C3    C11   1.454861 S    
C7    H1    1.078410 S    
C8    H2    1.079640 S    
C11   C13   1.411390 A    
O4    Zn2   1.984673 S    
C27   H16   1.110832 S    
C28   H22   1.111242 S    
C14   N4    1.436345 S    
O5    Zn1   1.997311 S    
C2    C17   1.412093 S    
C6    C8    1.399092 A    
N5    H7    1.032135 S    
C9    C12   1.412504 A    
C15   C16   1.391934 A    
C10   C11   1.410703 A    
C25   H9    1.112459 S    
N8    O16   1.301185 A    
