data_mof_unit_41612.cif
_audit_creation_date              2013-03-05T15:50:10-0500
_audit_creation_method            fapswitch 2.2
_symmetry_space_group_name_H-M    P1
_symmetry_Int_Tables_number       1
_space_group_crystal_system       triclinic
_cell_length_a                    20.019391
_cell_length_b                    6.865902
_cell_length_c                    18.160775
_cell_angle_alpha                 89.999587
_cell_angle_beta                  104.16989
_cell_angle_gamma                 90.000086
_cell_volume                      2420.27023067

loop_
_atom_site_label
_atom_site_type_symbol
_atom_site_description
_atom_site_fract_x
_atom_site_fract_y
_atom_site_fract_z
_atom_type_partial_charge
O1    O     O_R   0.312200 0.620210 0.189560 -0.602945
O2    O     O_R   0.687800 0.379790 0.810440 -0.602947
O3    O     O_R   0.187800 0.120210 0.310440 -0.602954
O4    O     O_R   0.812200 0.879790 0.689560 -0.602953
O5    O     O_R   0.171590 0.286140 0.165000 -0.579338
O6    O     O_R   0.828410 0.713860 0.835000 -0.579337
O7    O     O_R   0.328410 0.786140 0.335000 -0.579335
O8    O     O_R   0.671590 0.213860 0.665000 -0.579337
C1    C     C_R   0.145520 0.459492 0.143936 0.953666
C2    C     C_R   0.854480 0.540508 0.856063 0.953679
C3    C     C_R   0.354480 0.959491 0.356063 0.953703
C4    C     C_R   0.645520 0.040509 0.643937 0.953703
O9    O     O_R   0.310670 0.290220 0.180540 -0.607737
O10   O     O_R   0.689330 0.709780 0.819460 -0.607731
O11   O     O_R   0.189330 0.790220 0.319460 -0.607728
O12   O     O_R   0.810670 0.209780 0.680540 -0.607728
O13   O     O_R   0.327870 0.124170 0.326080 -0.587496
O14   O     O_R   0.672130 0.875830 0.673920 -0.587496
O15   O     O_R   0.172130 0.624170 0.173920 -0.587492
O16   O     O_R   0.827870 0.375830 0.826080 -0.587495
C5    C     C_R   0.331513 0.459292 0.164465 0.994488
C6    C     C_R   0.668487 0.540708 0.835535 0.994490
C7    C     C_R   0.168485 0.959290 0.335533 0.994493
C8    C     C_R   0.831514 0.040710 0.664465 0.994496
O17   O     O_3   0.255480 0.455050 0.297740 -0.271371
O18   O     O_3   0.744520 0.544950 0.702260 -0.271371
O19   O     O_3   0.244520 0.955050 0.202260 -0.271363
O20   O     O_3   0.755480 0.044950 0.797740 -0.271366
V1    V     V_3+5 0.248980 0.178550 0.241140 1.142182
V2    V     V_3+5 0.751020 0.821450 0.758860 1.142179
V3    V     V_3+5 0.251020 0.678550 0.258860 1.142184
V4    V     V_3+5 0.748980 0.321450 0.741140 1.142180
C9    C     C_R   0.940177 0.909378 0.636717 0.101853
C10   C     C_R   0.059821 0.090623 0.363281 0.101869
C11   C     C_R   0.559821 0.409380 0.863283 0.101850
C12   C     C_R   0.440182 0.590616 0.136722 0.101844
C13   C     C_R   0.880973 0.030412 0.615162 -0.208978
C14   C     C_R   0.119026 0.969589 0.384836 -0.208992
C15   C     C_R   0.619028 0.530405 0.884839 -0.208945
C16   C     C_R   0.380975 0.469593 0.115165 -0.208940
C17   C     C_R   0.870274 0.142255 0.547200 0.096935
C18   C     C_R   0.129725 0.857747 0.452798 0.096942
C19   C     C_R   0.629732 0.642228 0.952805 0.096909
C20   C     C_R   0.370274 0.357768 0.047200 0.096908
C21   C     C_R   0.923652 0.148546 0.507960 0.061094
C22   C     C_R   0.076346 0.851458 0.492038 0.061096
C23   C     C_R   0.576354 0.648528 0.992044 0.061098
C24   C     C_R   0.423654 0.351463 0.007964 0.061083
C25   C     C_R   0.975743 0.004830 0.522721 0.085119
C26   C     C_R   0.024255 0.995175 0.477277 0.085116
C27   C     C_R   0.524260 0.504822 0.977282 0.085123
C28   C     C_R   0.475748 0.495168 0.022727 0.085111
C29   C     C_R   0.979348 0.870608 0.582673 -0.027858
C30   C     C_R   0.020650 0.129396 0.417324 -0.027856
C31   C     C_R   0.520651 0.370606 0.917327 -0.027856
C32   C     C_R   0.479356 0.629386 0.082681 -0.027860
C33   C     C_R   0.928157 0.298764 0.456680 -0.184605
C34   C     C_R   0.071840 0.701238 0.543318 -0.184611
C35   C     C_R   0.571853 0.798742 0.043327 -0.184603
C36   C     C_R   0.428156 0.201245 0.956683 -0.184613
C37   C     C_R   0.977576 0.295253 0.413659 -0.043579
C38   C     C_R   0.022422 0.704750 0.586338 -0.043574
C39   C     C_R   0.522434 0.795236 0.086348 -0.043564
C40   C     C_R   0.477575 0.204751 0.913662 -0.043576
H1    H     H_    0.897209 0.428535 0.454418 0.157342
H2    H     H_    0.102789 0.571466 0.545579 0.157343
H3    H     H_    0.602807 0.928505 0.045591 0.157343
H4    H     H_    0.397203 0.071481 0.954420 0.157347
C41   C     C_1   0.583066 0.027527 0.581697 -0.301691
C42   C     C_1   0.416934 0.972473 0.418303 -0.301692
C43   C     C_1   0.916934 0.527526 0.918303 -0.301672
C44   C     C_1   0.083066 0.472474 0.081696 -0.301671
C45   C     C_1   0.530810 0.010920 0.530229 0.058961
C46   C     C_1   0.469190 0.989080 0.469771 0.058961
C47   C     C_1   0.969189 0.510920 0.969771 0.058959
C48   C     C_1   0.030810 0.489080 0.030229 0.058959
C49   C     C_3   0.967250 0.848111 0.719806 -0.385852
C50   C     C_3   0.984559 0.023604 0.773163 -0.823743
H5    H     H_    0.019122 0.125532 0.752611 0.281094
H6    H     H_    0.937669 0.102715 0.778175 0.241470
H7    H     H_    0.011442 0.972899 0.830896 0.242596
H8    H     H_    0.930058 0.751058 0.738091 0.194791
H9    H     H_    0.016310 0.766861 0.728703 0.198086
C51   C     C_3   0.032748 0.151882 0.280192 -0.385879
C52   C     C_3   0.015428 0.976380 0.226841 -0.823723
H10   H     H_    0.062310 0.897194 0.221852 0.241459
H11   H     H_    0.980838 0.874519 0.247382 0.281103
H12   H     H_    0.988569 0.027089 0.169100 0.242592
H13   H     H_    0.983693 0.233154 0.271294 0.198084
H14   H     H_    0.069944 0.248911 0.261902 0.194799
C53   C     C_3   0.532746 0.348128 0.780194 -0.385855
C54   C     C_3   0.515437 0.523633 0.726841 -0.823746
H15   H     H_    0.480880 0.625567 0.747400 0.281095
H16   H     H_    0.562328 0.602735 0.721826 0.241468
H17   H     H_    0.488547 0.472944 0.669109 0.242598
H18   H     H_    0.569936 0.251081 0.761904 0.194791
H19   H     H_    0.483685 0.266879 0.771297 0.198081
C55   C     C_3   0.467253 0.651874 0.219812 -0.385854
C56   C     C_3   0.484558 0.476375 0.273168 -0.823743
H20   H     H_    0.437667 0.397266 0.278176 0.241470
H21   H     H_    0.519121 0.374445 0.252617 0.281090
H22   H     H_    0.511440 0.527071 0.330902 0.242598
H23   H     H_    0.516315 0.733118 0.228712 0.198086
H24   H     H_    0.430062 0.748929 0.238097 0.194792
C57   C     C_3   0.800862 0.241398 0.514235 -0.379285
C58   C     C_3   0.742960 0.092191 0.489256 -0.847520
H25   H     H_    0.755070 0.992289 0.446173 0.265778
H26   H     H_    0.735069 0.004833 0.537666 0.227583
H27   H     H_    0.693955 0.168845 0.463491 0.249290
H28   H     H_    0.788194 0.345928 0.555258 0.213243
H29   H     H_    0.800268 0.327739 0.462765 0.198633
C59   C     C_3   0.199136 0.758601 0.485764 -0.379280
C60   C     C_3   0.257039 0.907806 0.510742 -0.847531
H30   H     H_    0.264931 0.995160 0.462332 0.227587
H31   H     H_    0.244930 0.007711 0.553824 0.265777
H32   H     H_    0.306043 0.831150 0.536508 0.249288
H33   H     H_    0.199730 0.672264 0.537234 0.198632
H34   H     H_    0.211804 0.654069 0.444740 0.213243
C61   C     C_3   0.699151 0.741315 0.985783 -0.379290
C62   C     C_3   0.757036 0.592053 0.010749 -0.847537
H35   H     H_    0.744887 0.492021 0.053773 0.265773
H36   H     H_    0.764959 0.504842 0.962319 0.227585
H37   H     H_    0.806037 0.668643 0.036586 0.249303
H38   H     H_    0.711832 0.845851 0.944768 0.213237
H39   H     H_    0.699748 0.827628 0.037259 0.198645
C63   C     C_3   0.300853 0.258693 0.014216 -0.379288
C64   C     C_3   0.242973 0.407969 0.989245 -0.847540
H40   H     H_    0.235039 0.495153 0.037677 0.227582
H41   H     H_    0.255136 0.508023 0.946236 0.265774
H42   H     H_    0.193974 0.331393 0.963389 0.249307
H43   H     H_    0.300258 0.172375 0.962741 0.198646
H44   H     H_    0.288165 0.154164 0.055229 0.213236
C65   C     C_2   0.989995 0.477186 0.374428 0.468904
H45   H     H_    0.037720 0.496507 0.357061 0.007791
O21   O     O_2   0.947656 0.608777 0.362077 -0.588933
C66   C     C_2   0.010002 0.522817 0.625569 0.468894
H46   H     H_    0.962276 0.503495 0.642935 0.007790
O22   O     O_2   0.052341 0.391226 0.637921 -0.588933
C67   C     C_2   0.510020 0.977169 0.125582 0.468902
H47   H     H_    0.462294 0.996502 0.142946 0.007790
O23   O     O_2   0.552364 0.108747 0.137937 -0.588928
C68   C     C_2   0.489993 0.022818 0.874431 0.468900
H48   H     H_    0.537714 0.003505 0.857055 0.007790
O24   O     O_2   0.447658 0.891215 0.862091 -0.588938

loop_
_geom_bond_atom_site_label_1
_geom_bond_atom_site_label_2
_geom_bond_distance
_ccdc_geom_bond_type
C34   C38   1.402922 A    
C43   C47   1.225689 T    
C4    C41   1.468629 S    
O1    C5    1.290026 A    
C63   C64   1.530187 S    
O19   V1    1.682399 S    
O13   V1    1.954597 S    
C45   C46   1.444526 S    
O3    C7    1.290029 A    
C1    C44   1.468630 S    
C44   C48   1.225688 T    
O15   V3    1.954600 S    
C3    C42   1.468629 S    
C37   C65   1.488779 S    
C49   C50   1.531833 S    
O7    C3    1.318176 A    
C21   C33   1.407236 A    
O5    C1    1.318177 A    
C26   C30   1.414726 A    
C10   C51   1.532060 S    
C63   H43   1.104462 S    
O9    V1    1.997424 S    
C57   H28   1.107692 S    
C14   C18   1.424588 A    
C59   H33   1.104451 S    
O4    C8    1.290031 A    
C50   H6    1.107390 S    
C58   H25   1.110997 S    
C49   H9    1.106458 S    
C55   H23   1.106462 S    
C55   C56   1.531831 S    
O1    V3    1.999793 S    
O2    V4    1.999790 S    
C18   C22   1.422836 A    
C38   C66   1.488782 S    
O3    V1    1.999785 S    
C18   C59   1.531475 S    
C12   C16   1.421781 A    
C35   H3    1.080273 S    
C53   H18   1.108908 S    
C1    O15   1.310223 A    
C2    O16   1.310224 A    
O2    C6    1.290030 A    
C41   C45   1.225689 T    
O14   V2    1.954596 S    
C21   C25   1.412848 A    
C16   C20   1.424576 A    
C62   H37   1.110699 S    
C60   H32   1.110697 S    
C2    C43   1.468630 S    
C58   H26   1.107080 S    
O11   C7    1.290924 A    
C57   H29   1.104451 S    
O12   C8    1.290924 A    
C61   H38   1.107689 S    
O18   V2    2.147570 S    
C22   C34   1.407237 A    
O17   V1    2.147570 S    
C51   H14   1.108924 S    
O10   V2    1.997421 S    
C59   C60   1.530185 S    
C62   H36   1.107052 S    
C24   C36   1.407236 A    
O5    V1    1.951707 S    
C52   H11   1.110963 S    
C9    C29   1.423341 A    
O7    V3    1.951712 S    
C11   C31   1.423343 A    
C27   C28   1.421656 A    
O8    V4    1.951715 S    
O20   V4    2.147556 S    
C51   C52   1.531833 S    
C66   O22   1.221452 D    
C53   C54   1.531833 S    
C50   H5    1.110980 S    
C15   C19   1.424582 A    
C52   H10   1.107390 S    
O19   V3    2.147557 S    
C54   H17   1.110786 S    
C9    C13   1.421773 A    
C11   C15   1.421777 A    
C47   C48   1.444524 S    
C64   H41   1.111038 S    
C42   C46   1.225690 T    
C12   C32   1.423346 A    
C29   C38   1.420104 A    
C56   H20   1.107394 S    
C63   H44   1.107688 S    
O8    C4    1.318175 A    
C20   C63   1.531463 S    
C31   C40   1.420110 A    
C54   H16   1.107392 S    
C8    C13   1.490343 S    
C32   C39   1.420113 A    
O9    C5    1.290932 A    
C53   H19   1.106464 S    
C61   C62   1.530187 S    
C33   C37   1.402926 A    
C17   C57   1.531473 S    
C61   H39   1.104458 S    
C56   H21   1.110984 S    
C10   C30   1.423335 A    
C65   H45   1.085109 S    
C68   O24   1.221458 D    
C51   H13   1.106449 S    
C64   H40   1.107056 S    
C62   H35   1.111028 S    
C34   H2    1.080268 S    
C60   H30   1.107076 S    
O16   V4    1.954599 S    
C52   H12   1.110792 S    
C3    O13   1.310222 A    
O6    V2    1.951709 S    
C10   C14   1.421775 A    
C39   C67   1.488783 S    
O17   V3    1.682390 S    
C33   H1    1.080269 S    
C66   H46   1.085110 S    
O6    C2    1.318174 A    
C23   C27   1.412843 A    
C67   H47   1.085108 S    
O11   V3    1.997427 S    
O18   V4    1.682390 S    
C30   C37   1.420104 A    
O12   V4    1.997430 S    
C7    C14   1.490348 S    
C57   C58   1.530184 S    
C22   C26   1.412851 A    
C35   C39   1.402930 A    
C36   C40   1.402927 A    
O10   C6    1.290931 A    
O20   V2    1.682398 S    
C64   H42   1.110696 S    
C59   H34   1.107697 S    
C67   O23   1.221455 D    
C50   H7    1.110791 S    
C9    C49   1.532068 S    
C5    C16   1.490346 S    
C40   C68   1.488787 S    
C49   H8    1.108917 S    
C25   C29   1.414726 A    
C6    C15   1.490342 S    
C54   H15   1.110988 S    
C27   C31   1.414726 A    
C13   C17   1.424593 A    
C23   C35   1.407232 A    
C28   C32   1.414729 A    
C24   C28   1.412844 A    
C56   H22   1.110787 S    
C36   H4    1.080277 S    
C25   C26   1.421666 A    
C4    O14   1.310221 A    
C65   O21   1.221453 D    
C17   C21   1.422833 A    
C68   H48   1.085105 S    
C12   C55   1.532069 S    
C19   C23   1.422824 A    
C55   H24   1.108914 S    
O4    V2    1.999788 S    
C20   C24   1.422818 A    
C19   C61   1.531465 S    
C60   H31   1.110992 S    
C58   H27   1.110696 S    
C11   C53   1.532065 S    
