data_mof_unit_13528.cif
_audit_creation_date              2012-10-26T21:20:12-0400
_audit_creation_method            fapswitch 2.2
_symmetry_space_group_name_H-M    P1
_symmetry_Int_Tables_number       1
_space_group_crystal_system       triclinic
_cell_length_a                    12.973355
_cell_length_b                    10.773092
_cell_length_c                    9.579262
_cell_angle_alpha                 89.228367
_cell_angle_beta                  95.676954
_cell_angle_gamma                 91.481121
_cell_volume                      1331.73622048

loop_
_atom_site_label
_atom_site_type_symbol
_atom_type_description
_atom_site_fract_x
_atom_site_fract_y
_atom_site_fract_z
_atom_type_partial_charge
C1    C     C_R   0.496568 0.262486 0.500193 0.548702
C2    C     C_R   0.699038 0.497702 0.526083 0.588767
C3    C     C_R   0.811694 0.497876 0.542129 -0.010107
C4    C     C_R   0.188248 0.502582 0.458331 -0.016163
C5    C     C_R   0.028274 0.433823 0.328443 -0.003654
C6    C     C_R   0.971187 0.573056 0.669037 0.034466
C7    C     C_R   0.135764 0.440162 0.344914 -0.145130
C8    C     C_R   0.863555 0.563318 0.653700 -0.117199
C9    C     C_R   0.132674 0.568197 0.550819 -0.004179
C10   C     C_R   0.868002 0.433119 0.449446 0.032994
C11   C     C_R   0.026182 0.538024 0.555161 0.015924
C12   C     C_R   0.503251 0.737519 0.499792 0.508181
C13   C     C_R   0.973167 0.468186 0.442458 0.011413
C14   C     C_R   0.425981 0.060272 0.405215 -0.000633
C15   C     C_R   0.573884 0.939741 0.594722 -0.005324
C16   C     C_R   0.433448 0.931541 0.404658 -0.084153
C17   C     C_R   0.566395 0.068468 0.595305 -0.066453
C18   C     C_2   0.825535 0.314016 0.384723 0.301471
C19   C     C_2   0.181657 0.681881 0.619244 0.216263
C20   C     C_2   0.978621 0.403133 0.186245 0.242618
C21   C     C_2   0.023470 0.607654 0.808981 0.324146
C22   C     C_2   0.343621 0.120906 0.310827 0.256871
C23   C     C_R   0.505497 0.871631 0.498917 -0.037762
C24   C     C_2   0.656319 0.879127 0.689006 0.266193
C25   C     C_2   0.345201 0.353226 0.841776 0.254150
C26   C     C_2   0.654335 0.647668 0.158077 0.290970
C27   C     C_R   0.494329 0.128375 0.501067 -0.024393
C28   C     C_R   0.427547 0.432929 0.067593 0.058170
C29   C     C_R   0.572431 0.567103 0.932379 0.064450
C30   C     C_R   0.426659 0.431731 0.919223 0.122672
C31   C     C_R   0.573239 0.568479 0.080749 0.129297
C32   C     C_R   0.300959 0.502826 0.473987 0.518485
Cu1   Cu    Cu3+1 0.500000 0.500020 0.640660 0.944615
Cu2   Cu    Cu3+1 0.500000 0.499980 0.359340 0.991414
H1    H     H_    0.875093 0.254118 0.332579 0.129229
H2    H     H_    0.619358 0.123280 0.665964 0.191592
H3    H     H_    0.370828 0.378644 0.119383 0.158746
H4    H     H_    0.629103 0.621394 0.880515 0.164694
H5    H     H_    0.354592 0.315906 0.740548 0.171419
H6    H     H_    0.645438 0.683616 0.260054 0.154453
H7    H     H_    0.264136 0.688606 0.650064 0.147870
H8    H     H_    0.819788 0.601847 0.732890 0.184498
H9    H     H_    0.178810 0.401951 0.264684 0.130552
H10   H     H_    0.020142 0.349818 0.115433 0.135072
H11   H     H_    0.103644 0.584323 0.837839 0.119613
H12   H     H_    0.325029 0.217158 0.325067 0.105241
H13   H     H_    0.674881 0.782869 0.674771 0.114328
H14   H     H_    0.380504 0.876734 0.333966 0.184350
N1    N     N_R   0.500030 0.500030 0.852080 -0.281304
N2    N     N_R   0.499970 0.499970 0.147920 -0.278117
O1    O     O_R   0.499990 0.319660 0.618740 -0.525688
O2    O     O_2   0.130361 0.773335 0.634447 -0.455394
O3    O     O_2   0.893713 0.442745 0.143870 -0.430690
O4    O     O_2   0.976901 0.659977 0.895116 -0.412431
O5    O     O_2   0.294366 0.063369 0.216357 -0.462818
O6    O     O_2   0.705680 0.936692 0.783361 -0.450057
O7    O     O_2   0.264662 0.326907 0.892769 -0.528988
O8    O     O_2   0.733986 0.676333 0.106061 -0.443452
O9    O     O_R   0.500010 0.680340 0.381260 -0.530986
O10   O     O_R   0.499990 0.319630 0.381170 -0.471276
O11   O     O_R   0.500010 0.680370 0.618830 -0.515533
O12   O     O_R   0.349000 0.499990 0.599490 -0.542818
O13   O     O_R   0.651000 0.500010 0.400510 -0.469782
O14   O     O_R   0.348990 0.499960 0.361920 -0.510765
O15   O     O_R   0.651010 0.500040 0.638080 -0.514605
O16   O     O_2   0.737294 0.276219 0.396391 -0.474030

loop_
_geom_bond_atom_site_label_1
_geom_bond_atom_site_label_2
_ccdc_geom_bond_type
C29   H4    S    
C5    C7    A    
C22   O5    D    
C17   H2    S    
C7    H9    S    
C14   C27   A    
C18   O16   D    
C1    O1    A    
C18   H1    S    
C5    C13   A    
C6    C11   A    
C21   O4    D    
C2    O15   A    
C1    C27   S    
C15   C23   A    
C14   C22   S    
Cu2   O14   S    
Cu1   Cu2   S    
C4    C9    A    
Cu1   O15   S    
C26   C31   S    
C29   C31   A    
C3    C10   A    
C29   N1    A    
C25   H5    S    
Cu2   O10   S    
C12   O11   A    
C9    C11   A    
C12   C23   S    
C26   H6    S    
C4    C32   S    
C25   O7    D    
C28   H3    S    
C10   C18   S    
C4    C7    A    
C28   C30   A    
C15   C24   S    
C20   H10   S    
C30   N1    A    
C8    H8    S    
C2    C3    S    
C16   C23   A    
C21   H11   S    
C6    C21   S    
C12   O9    A    
Cu2   O9    S    
C5    C20   S    
Cu2   N2    S    
C24   O6    D    
C31   N2    A    
C32   O12   A    
C17   C27   A    
C11   C13   A    
C16   H14   S    
C32   O14   A    
Cu1   O11   S    
C3    C8    A    
C1    O10   A    
C25   C30   S    
C15   C17   A    
C28   N2    A    
C2    O13   A    
Cu2   O13   S    
C6    C8    A    
Cu1   O12   S    
C22   H12   S    
C14   C16   A    
C24   H13   S    
Cu1   N1    S    
C19   O2    D    
C26   O8    D    
Cu1   O1    S    
C19   H7    S    
C9    C19   S    
C20   O3    D    
C10   C13   A    
