data_mof_unit_16622.cif
_audit_creation_date              2012-12-10T17:31:57-0500
_audit_creation_method            fapswitch 2.2
_symmetry_space_group_name_H-M    P1
_symmetry_Int_Tables_number       1
_space_group_crystal_system       triclinic
_cell_length_a                    12.070878
_cell_length_b                    11.530918
_cell_length_c                    12.795052
_cell_angle_alpha                 89.913283
_cell_angle_beta                  93.144176
_cell_angle_gamma                 85.674034
_cell_volume                      1773.14605753

loop_
_atom_site_label
_atom_site_type_symbol
_atom_type_description
_atom_site_fract_x
_atom_site_fract_y
_atom_site_fract_z
_atom_type_partial_charge
C1    C     C_R   0.477702 0.509985 0.300224 0.884204
C2    C     C_R   0.522393 0.490000 0.699703 0.875514
C3    C     C_R   0.043785 0.599859 0.606493 -0.005339
C4    C     C_R   0.955901 0.398293 0.394676 -0.026410
C5    C     C_R   0.161026 0.589263 0.595887 0.096685
C6    C     C_R   0.839130 0.407100 0.407087 0.095010
C7    C     C_R   0.142312 0.460159 0.453183 -0.090909
C8    C     C_R   0.857351 0.541594 0.545276 -0.092011
C9    C     C_R   0.024826 0.464079 0.461333 0.028447
C10   C     C_R   0.975011 0.535693 0.538493 0.010860
C11   C     C_R   0.500243 0.282004 0.499627 0.906613
C12   C     C_R   0.499873 0.717971 0.501189 0.895536
C13   C     C_1   0.500688 0.161491 0.500057 -0.154189
C14   C     C_1   0.499740 0.838456 0.502692 -0.189766
C15   C     C_1   0.500502 0.059288 0.501185 0.003854
C16   C     C_1   0.500148 0.940647 0.502670 -0.000329
C17   C     C_R   0.538030 0.477628 0.811023 -0.116982
C18   C     C_R   0.463295 0.523724 0.188809 -0.057586
C19   C     C_R   0.412154 0.636925 0.031569 -0.005833
C20   C     C_R   0.597259 0.370354 0.969535 -0.005430
C21   C     C_R   0.405279 0.622515 0.140416 0.001544
C22   C     C_R   0.598172 0.380295 0.859750 0.057489
C23   C     C_R   0.522371 0.440583 0.132086 -0.305760
C24   C     C_R   0.482234 0.563086 0.867848 -0.205867
C25   C     C_R   0.531809 0.453631 0.025646 0.039868
C26   C     C_R   0.475994 0.552536 0.974950 0.107161
H1    H     H_    0.439993 0.636213 0.825502 0.212840
H2    H     H_    0.562945 0.365919 0.173698 0.141332
H3    H     H_    0.815346 0.595318 0.601975 0.156632
H4    H     H_    0.183803 0.408681 0.394642 0.156340
N1    N     N_R   0.792200 0.479100 0.480660 -0.137336
N2    N     N_R   0.207800 0.520900 0.519340 -0.146735
O1    O     O_R   0.578300 0.494420 0.341180 -0.635479
O2    O     O_R   0.421700 0.505580 0.658820 -0.601307
O3    O     O_R   0.390690 0.507830 0.353590 -0.635436
O4    O     O_R   0.609310 0.492170 0.646410 -0.635358
O5    O     O_R   0.593810 0.327740 0.493800 -0.572847
O6    O     O_R   0.406190 0.672260 0.506200 -0.652088
O7    O     O_R   0.406190 0.341150 0.506220 -0.619980
O8    O     O_R   0.593810 0.658850 0.493780 -0.609442
Zn1   Zn    Zn3+2 0.625270 0.491050 0.491710 0.953484
Zn2   Zn    Zn3+2 0.374730 0.508950 0.508290 0.932512
C27   C     C_3   0.654267 0.282511 0.796352 -0.412339
C28   C     C_3   0.584312 0.176702 0.789547 -0.357563
C29   C     C_3   0.649188 0.072011 0.743366 -0.821532
H5    H     H_    0.678358 0.094207 0.665528 0.267034
H6    H     H_    0.722287 0.043684 0.796247 0.265661
H7    H     H_    0.594839 0.998772 0.734233 0.260945
H8    H     H_    0.559060 0.152008 0.868213 0.232041
H9    H     H_    0.507470 0.198990 0.739445 0.219646
H10   H     H_    0.669009 0.309271 0.715736 0.219638
H11   H     H_    0.738718 0.257435 0.831427 0.252245
C30   C     C_3   0.343543 0.716657 0.203538 -0.456205
C31   C     C_3   0.412809 0.821836 0.221431 -0.321246
C32   C     C_3   0.344037 0.923110 0.268651 -0.861205
H12   H     H_    0.273012 0.952787 0.213798 0.260618
H13   H     H_    0.311599 0.896558 0.343920 0.264794
H14   H     H_    0.396771 0.996876 0.283158 0.256566
H15   H     H_    0.486211 0.796461 0.275006 0.218008
H16   H     H_    0.443846 0.851730 0.146684 0.252428
H17   H     H_    0.262280 0.743858 0.162591 0.189358
H18   H     H_    0.320896 0.685111 0.280415 0.233883
C33   C     C_2   0.353365 0.740850 0.978536 0.406159
H19   H     H_    0.264512 0.758942 0.984816 0.082860
O9    O     O_2   0.404796 0.808969 0.930677 -0.589685
C34   C     C_2   0.662363 0.272116 0.025396 0.359611
H20   H     H_    0.620369 0.211605 0.071542 0.072426
O10   O     O_2   0.763536 0.260776 0.022843 -0.581351
C35   C     C_2   0.767172 0.340360 0.337419 0.478587
H21   H     H_    0.739708 0.375169 0.260880 0.055484
O11   O     O_2   0.745625 0.242557 0.361772 -0.577998
C36   C     C_2   0.233532 0.650992 0.669763 0.433342
H22   H     H_    0.286008 0.715099 0.642419 0.089507
O12   O     O_2   0.233294 0.631728 0.763561 -0.620478
C37   C     C_3   0.992751 0.681316 0.688208 -0.408743
C38   C     C_3   0.963481 0.613452 0.785198 -0.295351
C39   C     C_3   0.905431 0.693612 0.863402 -0.860497
H23   H     H_    0.960277 0.762224 0.889873 0.264953
H24   H     H_    0.826456 0.735053 0.827097 0.264471
H25   H     H_    0.885898 0.642283 0.932661 0.255430
H26   H     H_    0.908076 0.543961 0.762670 0.216651
H27   H     H_    0.040586 0.570964 0.824154 0.260707
H28   H     H_    0.049124 0.748900 0.713274 0.216121
H29   H     H_    0.918513 0.732948 0.653243 0.187434
C40   C     C_3   0.005307 0.320129 0.309949 -0.435155
C41   C     C_3   0.025148 0.391462 0.212245 -0.357501
C42   C     C_3   0.079553 0.315351 0.129018 -0.805512
H30   H     H_    0.161777 0.275985 0.159756 0.250034
H31   H     H_    0.025528 0.245157 0.104851 0.283875
H32   H     H_    0.092148 0.369241 0.059256 0.250529
H33   H     H_    0.944221 0.431712 0.178921 0.232757
H34   H     H_    0.079598 0.462434 0.232909 0.221237
H35   H     H_    0.083081 0.271188 0.340442 0.202028
H36   H     H_    0.950426 0.250595 0.286637 0.231785

loop_
_geom_bond_atom_site_label_1
_geom_bond_atom_site_label_2
_ccdc_geom_bond_type
C28   H8    S    
C6    C35   S    
C34   O10   D    
C42   H30   S    
C33   O9    D    
C37   C38   S    
C18   C21   A    
O2    Zn2   S    
C24   H1    S    
C32   H12   S    
C27   H10   S    
C1    O1    A    
C31   H16   S    
C39   H23   S    
C1    C18   S    
C8    H3    S    
C20   C34   S    
C19   C21   A    
C24   C26   A    
O6    Zn2   S    
C5    C36   S    
C41   H33   S    
C40   C41   S    
C27   H11   S    
C29   H7    S    
C20   C25   A    
C28   H9    S    
C15   C16   S    
C19   C26   A    
C35   O11   D    
C30   H18   S    
C11   O5    A    
O3    Zn2   S    
C30   H17   S    
C19   C33   S    
C3    C37   S    
C9    C10   A    
C5    N2    A    
C2    O2    A    
C29   H6    S    
C34   H20   S    
C7    H4    S    
C2    C17   S    
C12   O6    A    
O4    Zn1   S    
C40   H35   S    
O7    Zn2   S    
C31   H15   S    
C39   H24   S    
C17   C24   A    
C18   C23   A    
C38   C39   S    
C36   O12   D    
C38   H27   S    
C41   C42   S    
C4    C40   S    
C25   C26   A    
C29   H5    S    
C12   O8    A    
C27   C28   S    
C40   H36   S    
C22   C27   S    
C23   H2    S    
C11   O7    A    
C4    C6    A    
O8    Zn1   S    
C12   C14   S    
C32   H13   S    
C14   C16   T    
C42   H32   S    
C28   C29   S    
C1    O3    A    
C39   H25   S    
C2    O4    A    
C7    C9    A    
C31   C32   S    
C7    N2    A    
N1    Zn1   S    
C8    N1    A    
C20   C22   A    
C36   H22   S    
C3    C5    A    
C38   H26   S    
C30   C31   S    
C17   C22   A    
O1    Zn1   S    
C13   C15   T    
C3    C10   A    
C41   H34   S    
C21   C30   S    
C11   C13   S    
C37   H28   S    
C6    N1    A    
C23   C25   A    
O5    Zn1   S    
C35   H21   S    
C37   H29   S    
C33   H19   S    
C8    C10   A    
C32   H14   S    
C42   H31   S    
N2    Zn2   S    
C4    C9    A    
