data_mof_unit_58672.cif
_audit_creation_date              2012-12-11T16:17:00-0500
_audit_creation_method            fapswitch 2.2
_symmetry_space_group_name_H-M    P1
_symmetry_Int_Tables_number       1
_space_group_crystal_system       triclinic
_cell_length_a                    13.308695
_cell_length_b                    13.284835
_cell_length_c                    28.460984
_cell_angle_alpha                 90.311094
_cell_angle_beta                  90.170989
_cell_angle_gamma                 119.868247
_cell_volume                      4363.4649051

loop_
_atom_site_label
_atom_site_type_symbol
_atom_type_description
_atom_site_fract_x
_atom_site_fract_y
_atom_site_fract_z
_atom_type_partial_charge
C1    C     C_R   0.438283 0.550699 0.316835 0.534423
C2    C     C_R   0.547910 0.439914 0.684498 0.530496
C3    C     C_3   0.225272 0.979951 0.542935 0.004642
C4    C     C_3   0.260084 0.082611 0.576626 -0.271743
C5    C     C_3   0.174649 0.127366 0.573735 -0.479110
C6    C     C_3   0.138633 0.356852 0.920982 -0.009158
C7    C     C_3   0.131296 0.257135 0.891329 -0.270832
C8    C     C_3   0.246759 0.289634 0.868569 -0.455954
C9    C     C_3   0.788582 0.661994 0.550831 0.011055
C10   C     C_3   0.786626 0.587274 0.592178 -0.252144
C11   C     C_3   0.724735 0.457168 0.579848 -0.432274
C12   C     C_R   0.561529 0.112062 0.816549 0.542307
C13   C     C_R   0.890597 0.450093 0.683902 0.528914
C14   C     C_1   0.061160 0.522968 0.362104 -0.027238
C15   C     C_1   0.462418 0.940120 0.138875 -0.002822
C16   C     C_1   0.470679 0.539698 0.363501 -0.018788
C17   C     C_1   0.070119 0.528716 0.136389 0.005333
C18   C     C_1   0.472595 0.955623 0.358503 -0.010382
C19   C     C_1   0.478026 0.531887 0.139743 -0.005730
C20   C     C_1   0.527454 0.068483 0.862790 -0.006138
C21   C     C_R   0.111768 0.561211 0.183276 0.536844
C22   C     C_1   0.948045 0.464514 0.639697 -0.029864
C23   C     C_1   0.540549 0.473223 0.862957 -0.015548
C24   C     C_1   0.532767 0.076542 0.635147 -0.011651
C25   C     C_1   0.947604 0.468127 0.860079 -0.013044
C26   C     C_1   0.525181 0.479867 0.641366 -0.021932
C27   C     C_R   0.022251 0.392383 0.476549 0.281851
C28   C     C_R   0.385791 0.000197 0.025920 0.282340
C29   C     C_R   0.599900 0.611490 0.479233 0.272093
C30   C     C_R   0.041257 0.408010 0.020829 0.296641
C31   C     C_R   0.389788 0.969178 0.472543 0.298238
C32   C     C_R   0.451376 0.891382 0.315749 0.533604
C33   C     C_R   0.566502 0.620135 0.024415 0.285178
C34   C     C_R   0.392691 0.013735 0.976408 0.269084
C35   C     C_R   0.020281 0.393428 0.526457 0.305006
C36   C     C_R   0.563570 0.611326 0.974818 0.284304
C37   C     C_R   0.395192 0.986868 0.521854 0.283676
C38   C     C_R   0.035541 0.407160 0.970365 0.261489
C39   C     C_R   0.601562 0.605854 0.528722 0.316092
C40   C     C_R   0.991635 0.559860 0.524584 -0.201261
C41   C     C_R   0.583445 0.030471 0.978322 -0.193761
C42   C     C_R   0.406269 0.440111 0.527637 -0.178883
C43   C     C_R   0.439073 0.549121 0.183961 0.539719
C44   C     C_R   0.019860 0.582524 0.972817 -0.186975
C45   C     C_R   0.603375 0.115487 0.515990 -0.193156
C46   C     C_R   0.501713 0.405836 0.981438 -0.186249
C47   C     C_R   0.575984 0.015562 0.026555 -0.171235
C48   C     C_R   0.985432 0.554214 0.476028 -0.214058
C49   C     C_R   0.497423 0.413278 0.030056 -0.188587
C50   C     C_R   0.596887 0.103578 0.467232 -0.183981
C51   C     C_R   0.029805 0.586631 0.021180 -0.179967
C52   C     C_R   0.405212 0.442559 0.478784 -0.168418
C53   C     C_R   0.006043 0.475338 0.451551 -0.017819
C54   C     C_R   0.111710 0.561306 0.316691 0.538180
C55   C     C_R   0.477494 0.999075 0.050261 0.015837
C56   C     C_R   0.500803 0.527521 0.454335 -0.026686
C57   C     C_R   0.037789 0.499490 0.045026 0.022761
C58   C     C_R   0.490716 0.029242 0.445656 0.016028
C59   C     C_R   0.526765 0.519209 0.051401 0.006318
C60   C     C_R   0.492124 0.027801 0.953152 0.001217
C61   C     C_R   0.005315 0.478286 0.550205 0.014108
C62   C     C_R   0.533378 0.503914 0.953845 0.002270
C63   C     C_R   0.504129 0.053551 0.543342 0.002992
C64   C     C_R   0.019527 0.492446 0.947604 0.003161
C65   C     C_R   0.449582 0.888780 0.183740 0.539916
C66   C     C_R   0.503414 0.521682 0.552753 -0.002362
C67   C     C_1   0.982314 0.471708 0.599951 -0.020786
C68   C     C_1   0.506325 0.045573 0.903540 -0.025886
C69   C     C_1   0.510873 0.503865 0.602132 -0.016385
C70   C     C_1   0.985700 0.480070 0.899188 -0.028550
C71   C     C_1   0.516126 0.061351 0.593547 -0.017767
C72   C     C_1   0.536606 0.492094 0.903958 -0.021629
C73   C     C_1   0.469083 0.971657 0.099079 -0.008578
C74   C     C_1   0.030835 0.496373 0.402157 -0.061570
C75   C     C_1   0.504026 0.523092 0.100270 -0.018794
C76   C     C_R   0.550606 0.439058 0.816554 0.537142
C77   C     C_1   0.485749 0.997680 0.397069 -0.013807
C78   C     C_1   0.050057 0.510568 0.095136 0.008431
C79   C     C_1   0.488471 0.533793 0.404521 -0.044287
C80   C     C_3   0.954800 0.232873 0.428374 0.002155
C81   C     C_3   0.985693 0.146664 0.406459 -0.255973
C82   C     C_3   0.885206 0.054902 0.377080 -0.479392
C83   C     C_3   0.271136 0.071022 0.055241 0.013582
C84   C     C_3   0.307112 0.120315 0.105104 -0.283799
C85   C     C_3   0.262306 0.202825 0.117624 -0.472936
C86   C     C_3   0.748341 0.676820 0.424706 0.004844
C87   C     C_R   0.562102 0.112985 0.682873 0.534851
C88   C     C_3   0.876513 0.770323 0.425030 -0.266173
C89   C     C_3   0.941023 0.755897 0.383586 -0.477266
C90   C     C_3   0.032523 0.223209 0.028993 0.051579
C91   C     C_3   0.903963 0.141985 0.016909 -0.237191
C92   C     C_3   0.888941 0.044443 0.983900 -0.482274
C93   C     C_3   0.240241 0.779484 0.461745 0.014014
C94   C     C_3   0.319182 0.726870 0.452689 -0.272522
C95   C     C_3   0.393498 0.736104 0.495341 -0.400360
C96   C     C_3   0.721532 0.795225 0.046214 0.010014
C97   C     C_3   0.779220 0.762276 0.085308 -0.276012
C98   C     C_R   0.889834 0.450566 0.816136 0.541391
C99   C     C_3   0.910080 0.844798 0.086501 -0.485545
C100  C     C_3   0.208746 0.926410 0.944844 0.012038
C101  C     C_3   0.115734 0.955600 0.929867 -0.266612
C102  C     C_3   0.996528 0.847612 0.924878 -0.484439
C103  C     C_3   0.945058 0.203848 0.549841 0.018715
C104  C     C_3   0.909923 0.156106 0.599496 -0.275326
C105  C     C_3   0.812464 0.029769 0.598505 -0.459425
C106  C     C_3   0.512262 0.741745 0.946755 0.017620
C107  C     C_3   0.410793 0.664838 0.913837 -0.281072
C108  C     C_3   0.322840 0.706625 0.911628 -0.490013
Cr1   Cr    Cr6+3 0.505050 0.756260 0.250000 1.021940
Cr2   Cr    Cr6+3 0.251210 0.494950 0.250000 1.029528
Cr3   Cr    Cr6+3 0.243740 0.748790 0.250000 1.027312
Cr4   Cr    Cr6+3 0.756260 0.505050 0.750000 1.021113
Cr5   Cr    Cr6+3 0.494950 0.251210 0.750000 1.018128
Cr6   Cr    Cr6+3 0.748790 0.243740 0.750000 1.021297
H1    H     H_    0.929103 0.271839 0.399620 0.139933
H2    H     H_    0.271921 0.048109 0.130798 0.191595
H3    H     H_    0.403176 0.167245 0.107992 0.148417
H4    H     H_    0.287608 0.271092 0.090614 0.159632
H5    H     H_    0.299043 0.245132 0.152054 0.171058
H6    H     H_    0.166387 0.153723 0.120387 0.147821
H7    H     H_    0.712614 0.673542 0.389065 0.155705
H8    H     H_    0.741804 0.591319 0.432236 0.104921
H9    H     H_    0.884488 0.857444 0.423234 0.183294
H10   H     H_    0.917634 0.766180 0.458415 0.141095
H11   H     H_    0.929030 0.667017 0.382691 0.151074
H12   H     H_    0.879309 0.184532 0.451910 0.105390
H13   H     H_    0.035011 0.819531 0.386887 0.174223
H14   H     H_    0.908463 0.771742 0.350048 0.149287
H15   H     H_    0.055883 0.177840 0.055791 0.119531
H16   H     H_    0.093232 0.236572 0.000205 0.163616
H17   H     H_    0.855980 0.104100 0.049943 0.129643
H18   H     H_    0.864878 0.189709 0.000131 0.199121
H19   H     H_    0.927560 0.079816 0.949239 0.185489
H20   H     H_    0.795548 0.982403 0.978146 0.148313
H21   H     H_    0.930701 0.997389 0.999033 0.123368
H22   H     H_    0.164527 0.731864 0.438226 0.149549
H23   H     H_    0.062676 0.194072 0.383581 0.184092
H24   H     H_    0.205787 0.762989 0.498006 0.184581
H25   H     H_    0.263181 0.632945 0.444576 0.149738
H26   H     H_    0.374615 0.766471 0.421576 0.177584
H27   H     H_    0.465783 0.826004 0.500485 0.164274
H28   H     H_    0.432033 0.680135 0.489576 0.164717
H29   H     H_    0.340110 0.706343 0.527629 0.167309
H30   H     H_    0.741722 0.885734 0.052838 0.151948
H31   H     H_    0.759414 0.793934 0.011491 0.156864
H32   H     H_    0.741973 0.765637 0.119794 0.184284
H33   H     H_    0.762728 0.672583 0.079352 0.158525
H34   H     H_    0.007680 0.103245 0.434706 0.159036
H35   H     H_    0.949332 0.840653 0.052659 0.144562
H36   H     H_    0.949548 0.819399 0.115177 0.163184
H37   H     H_    0.929793 0.935410 0.092983 0.142431
H38   H     H_    0.178915 0.872544 0.977110 0.169597
H39   H     H_    0.220464 0.875349 0.916446 0.130742
H40   H     H_    0.110762 0.014385 0.956544 0.156932
H41   H     H_    0.140402 0.001817 0.895737 0.172402
H42   H     H_    0.999188 0.786134 0.898984 0.159048
H43   H     H_    0.933183 0.872988 0.912393 0.164930
H44   H     H_    0.966957 0.804487 0.959420 0.140452
H45   H     H_    0.808588 0.003150 0.399631 0.167658
H46   H     H_    0.971023 0.148522 0.529794 0.162322
H47   H     H_    0.867436 0.197677 0.532166 0.095516
H48   H     H_    0.985895 0.162164 0.618420 0.172521
H49   H     H_    0.880126 0.209069 0.618997 0.183589
H50   H     H_    0.841049 0.974541 0.580026 0.168254
H51   H     H_    0.734825 0.021976 0.580387 0.163305
H52   H     H_    0.788400 0.998035 0.635022 0.166294
H53   H     H_    0.553904 0.831799 0.933372 0.157820
H54   H     H_    0.480008 0.743939 0.982587 0.175446
H55   H     H_    0.444029 0.665944 0.877954 0.177206
H56   H     H_    0.911332 0.995691 0.360471 0.146704
H57   H     H_    0.366510 0.574223 0.926655 0.143447
H58   H     H_    0.287890 0.705466 0.947153 0.155582
H59   H     H_    0.249933 0.648715 0.888025 0.144049
H60   H     H_    0.363893 0.796015 0.897504 0.153339
H61   H     H_    0.135139 0.911526 0.550953 0.140277
H62   H     H_    0.223768 0.007106 0.506058 0.153644
H63   H     H_    0.262325 0.054943 0.613222 0.188490
H64   H     H_    0.348006 0.154237 0.567631 0.159980
H65   H     H_    0.172927 0.157881 0.537632 0.161003
H66   H     H_    0.201357 0.201011 0.598697 0.168530
H67   H     H_    0.861251 0.096584 0.348824 0.154117
H68   H     H_    0.086238 0.057527 0.583118 0.142057
H69   H     H_    0.209413 0.383861 0.947511 0.125233
H70   H     H_    0.159610 0.431025 0.897306 0.137150
H71   H     H_    0.106177 0.180520 0.913891 0.151979
H72   H     H_    0.064105 0.233077 0.863538 0.177832
H73   H     H_    0.278220 0.369884 0.847535 0.152138
H74   H     H_    0.236179 0.217980 0.845055 0.166370
H75   H     H_    0.311395 0.302958 0.896158 0.163562
H76   H     H_    0.870856 0.746297 0.552939 0.125810
H77   H     H_    0.791753 0.621994 0.516778 0.128198
H78   H     H_    0.177693 0.041633 0.050038 0.144086
H79   H     H_    0.876442 0.615185 0.603506 0.130049
H80   H     H_    0.746608 0.603992 0.623021 0.207568
H81   H     H_    0.638482 0.426453 0.563915 0.151112
H82   H     H_    0.713682 0.405912 0.612006 0.153208
H83   H     H_    0.774981 0.438063 0.554031 0.143665
H84   H     H_    0.983837 0.627782 0.542084 0.117783
H85   H     H_    0.660660 0.043799 0.960359 0.131496
H86   H     H_    0.332028 0.372925 0.545857 0.154606
H87   H     H_    0.008165 0.647647 0.955028 0.122975
H88   H     H_    0.686099 0.171720 0.532624 0.114427
H89   H     H_    0.319099 0.140717 0.029010 0.145059
H90   H     H_    0.478664 0.322971 0.965243 0.150587
H91   H     H_    0.646115 0.014218 0.045369 0.129159
H92   H     H_    0.972342 0.617491 0.457472 0.118130
H93   H     H_    0.469926 0.336310 0.050948 0.121942
H94   H     H_    0.675065 0.148536 0.446584 0.113245
H95   H     H_    0.029210 0.657252 0.040237 0.136890
H96   H     H_    0.328338 0.379183 0.459992 0.165768
O1    O     O_R   0.530190 0.870330 0.301660 -0.512554
O2    O     O_R   0.870330 0.530190 0.698340 -0.514264
O3    O     O_R   0.469810 0.340140 0.801660 -0.515935
O4    O     O_R   0.659860 0.129670 0.698340 -0.513897
O5    O     O_R   0.494300 0.651190 0.297490 -0.495478
O6    O     O_R   0.156890 0.505700 0.202510 -0.484439
O7    O     O_R   0.348810 0.843110 0.297490 -0.486240
O8    O     O_R   0.494300 0.651190 0.202510 -0.488624
O9    O     O_R   0.156890 0.505700 0.297490 -0.489457
O10   O     O_R   0.348810 0.843110 0.202510 -0.492582
O11   O     O_R   0.651190 0.494300 0.797490 -0.483748
O12   O     O_R   0.340140 0.469810 0.198340 -0.511852
O13   O     O_R   0.505700 0.156890 0.702510 -0.493021
O14   O     O_R   0.843110 0.348810 0.797490 -0.486962
O15   O     O_R   0.651190 0.494300 0.702510 -0.501526
O16   O     O_R   0.505700 0.156890 0.797490 -0.488244
O17   O     O_R   0.843110 0.348810 0.702510 -0.498222
O18   O     O_3   0.333333 0.666667 0.250000 -0.242045
O19   O     O_3   0.666667 0.333333 0.750000 -0.240716
O20   O     O_3   0.051912 0.318681 0.453579 -0.560488
O21   O     O_3   0.284635 0.972535 0.049709 -0.584465
O22   O     O_3   0.688933 0.708188 0.457602 -0.555150
O23   O     O_R   0.129670 0.659860 0.301660 -0.509116
O24   O     O_3   0.053211 0.328866 0.049557 -0.580709
O25   O     O_3   0.287158 0.897192 0.449035 -0.589225
O26   O     O_3   0.599433 0.724912 0.046850 -0.576680
O27   O     O_3   0.313149 0.031950 0.951952 -0.586070
O28   O     O_3   0.041300 0.317793 0.552380 -0.557581
O29   O     O_3   0.597680 0.707807 0.946711 -0.582840
O30   O     O_3   0.297499 0.931072 0.549673 -0.583464
O31   O     O_3   0.031051 0.317998 0.943449 -0.591964
O32   O     O_3   0.696886 0.686911 0.554105 -0.547976
O33   O     O_R   0.530190 0.870330 0.198340 -0.505655
O34   O     O_R   0.340140 0.469810 0.301660 -0.506178
O35   O     O_R   0.129670 0.659860 0.198340 -0.510425
O36   O     O_R   0.870330 0.530190 0.801660 -0.508355
O37   O     O_R   0.469810 0.340140 0.698340 -0.509405
O38   O     O_R   0.659860 0.129670 0.801660 -0.504619

loop_
_geom_bond_atom_site_label_1
_geom_bond_atom_site_label_2
_ccdc_geom_bond_type
C100  H39   S    
C34   C60   A    
C82   H56   S    
C95   H29   S    
C101  C102  S    
C102  H42   S    
C94   H26   S    
C97   H32   S    
Cr6   O4    S    
C7    H72   S    
C53   C74   S    
C100  C101  S    
Cr5   O3    S    
C4    H63   S    
C41   H85   S    
C93   H22   S    
C102  H44   S    
Cr6   O19   S    
C81   C82   S    
Cr5   O16   S    
C7    C8    S    
C107  H57   S    
C44   C64   A    
Cr4   O36   S    
C96   H31   S    
C65   O33   A    
C82   H67   S    
C90   O24   S    
C93   C94   S    
C56   C79   S    
C83   O21   S    
C46   C62   A    
Cr3   O18   S    
C14   C74   T    
C31   C58   A    
C11   H81   S    
C98   O36   A    
C10   H80   S    
C104  H48   S    
C80   C81   S    
C86   C88   S    
C103  H46   S    
C66   C69   S    
C91   H17   S    
C106  C107  S    
C101  H41   S    
C11   H82   S    
C15   C65   S    
C30   C57   A    
C7    H71   S    
C33   C36   A    
C105  H52   S    
C30   C38   A    
Cr4   O11   S    
C85   H5    S    
C34   O27   S    
Cr4   O2    S    
C5    H65   S    
Cr1   O8    S    
C58   C77   S    
C97   C99   S    
Cr6   O17   S    
C90   H15   S    
C76   O3    A    
C28   C55   A    
Cr6   O38   S    
C92   H19   S    
C45   H88   S    
C98   O14   A    
C86   H8    S    
C107  C108  S    
Cr1   O1    S    
C6    O31   S    
C51   C57   A    
C64   C70   S    
C9    C10   S    
C23   C76   S    
C32   O7    A    
C88   H10   S    
C3    O30   S    
C39   O32   S    
C36   O29   S    
C46   H90   S    
C28   C34   A    
C84   H2    S    
C96   C97   S    
C90   H16   S    
C52   H96   S    
C94   H25   S    
C97   H33   S    
C13   O2    A    
C12   C20   S    
C94   C95   S    
C35   O28   S    
C104  H49   S    
C88   H9    S    
C36   C62   A    
C9    O32   S    
C23   C72   T    
C102  H43   S    
C104  C105  S    
C37   C63   A    
Cr1   O18   S    
C19   C43   S    
C38   C64   A    
C8    H73   S    
C41   C47   A    
C48   C53   A    
C99   H36   S    
C92   H20   S    
C103  H47   S    
C47   H91   S    
C52   C56   A    
C50   C58   A    
C49   H93   S    
C83   H78   S    
C54   O9    A    
C43   O12   A    
C42   C66   A    
C84   C85   S    
C41   C60   A    
C83   H89   S    
C10   H79   S    
C80   O20   S    
C91   C92   S    
C32   O1    A    
Cr5   O13   S    
C84   H3    S    
C37   O30   S    
C21   O35   A    
C91   H18   S    
C27   C35   A    
Cr5   O37   S    
C31   O25   S    
C45   C63   A    
C100  H38   S    
Cr4   O19   S    
C31   C37   A    
C108  H60   S    
C87   O13   A    
C85   H6    S    
Cr2   O6    S    
C2    O37   A    
C11   H83   S    
C5    H66   S    
C1    O5    A    
C1    O34   A    
C96   H30   S    
C99   H35   S    
C61   C67   S    
C27   O20   S    
C12   O16   A    
C83   C84   S    
C46   C49   A    
C80   H1    S    
C8    H75   S    
Cr3   O35   S    
C81   H34   S    
C108  H59   S    
C29   C39   A    
C86   H7    S    
C96   O26   S    
C21   O6    A    
C62   C72   S    
C100  O27   S    
C35   C61   A    
C1    C16   S    
C30   O24   S    
Cr2   O9    S    
C28   O21   S    
C33   O26   S    
C93   H24   S    
C44   C51   A    
C3    H61   S    
C15   C73   T    
C63   C71   S    
C95   H27   S    
C106  O29   S    
C93   O25   S    
C44   H87   S    
C76   O11   A    
C39   C66   A    
C43   O8    A    
C18   C32   S    
Cr3   O10   S    
C24   C71   T    
C48   H92   S    
C9    H76   S    
Cr2   O12   S    
C59   C75   S    
C5    H68   S    
C47   C55   A    
C19   C75   T    
C89   H13   S    
C40   C48   A    
C38   O31   S    
C42   C52   A    
Cr4   O15   S    
C14   C54   S    
C57   C78   S    
C20   C68   T    
C99   H37   S    
C29   O22   S    
C4    H64   S    
C4    C5    S    
Cr1   O5    S    
C2    C26   S    
C13   O17   A    
C65   O10   A    
C27   C53   A    
Cr5   O19   S    
C6    C7    S    
C29   C56   A    
C105  H50   S    
C51   H95   S    
C49   C59   A    
C6    H69   S    
C89   H11   S    
C16   C79   T    
C86   O22   S    
C106  H53   S    
C108  H58   S    
C12   O38   A    
C45   C50   A    
C82   H45   S    
C107  H55   S    
C90   C91   S    
C80   H12   S    
C101  H40   S    
C18   C77   T    
C103  O28   S    
C40   H84   S    
C42   H86   S    
C17   C78   T    
Cr3   O23   S    
C87   O4    A    
C105  H51   S    
C13   C22   S    
C85   H4    S    
C92   H21   S    
C24   C87   S    
C17   C21   S    
C22   C67   T    
C10   C11   S    
C40   C61   A    
C55   C73   S    
Cr2   O34   S    
C3    H62   S    
C88   C89   S    
C60   C68   S    
C95   H28   S    
C33   C59   A    
C25   C98   S    
C6    H70   S    
C103  C104  S    
C81   H23   S    
C26   C69   T    
Cr1   O33   S    
Cr2   O18   S    
C25   C70   T    
Cr3   O7    S    
C54   O23   A    
Cr6   O14   S    
C9    H77   S    
C8    H74   S    
C3    C4    S    
C2    O15   A    
C106  H54   S    
C89   H14   S    
C50   H94   S    
