data_mof_unit_10509.cif
_audit_creation_date              2012-12-10T19:23:57-0500
_audit_creation_method            fapswitch 2.2
_symmetry_space_group_name_H-M    P1
_symmetry_Int_Tables_number       1
_space_group_crystal_system       triclinic
_cell_length_a                    17.734694
_cell_length_b                    16.438475
_cell_length_c                    10.787671
_cell_angle_alpha                 89.898071
_cell_angle_beta                  90.217597
_cell_angle_gamma                 90.373659
_cell_volume                      3144.84961176

loop_
_atom_site_label
_atom_site_type_symbol
_atom_type_description
_atom_site_fract_x
_atom_site_fract_y
_atom_site_fract_z
_atom_type_partial_charge
C1    C     C_R   0.355446 0.499761 0.502687 0.785773
C2    C     C_R   0.645148 0.500545 0.499479 0.766902
C3    C     C_R   0.728959 0.500855 0.499446 -0.085080
C4    C     C_R   0.272688 0.498356 0.507213 -0.071173
C5    C     C_R   0.765262 0.425252 0.512579 -0.211412
C6    C     C_R   0.234795 0.438230 0.438194 -0.218973
C7    C     C_R   0.843407 0.420053 0.513738 -0.164621
C8    C     C_R   0.156572 0.433446 0.438728 -0.160474
C9    C     C_R   0.886861 0.490231 0.501615 0.112567
C10   C     C_R   0.115344 0.488427 0.508796 0.111556
C11   C     C_1   0.967269 0.485834 0.504087 -0.062172
C12   C     C_1   0.034848 0.485484 0.506204 -0.062402
C13   C     C_R   0.545533 0.829121 0.582679 -0.280690
C14   C     C_R   0.454658 0.828552 0.416611 -0.279532
C15   C     C_R   0.544617 0.743315 0.581504 0.078901
C16   C     C_R   0.455347 0.742741 0.418401 0.073515
C17   C     C_R   0.500188 0.872938 0.499440 0.151533
C18   C     C_1   0.500208 0.962466 0.499248 -0.049618
C19   C     C_1   0.500187 0.037013 0.499191 -0.068561
C20   C     C_R   0.502520 0.500093 0.262132 0.801926
C21   C     C_R   0.502605 0.499981 0.737854 0.794191
C22   C     C_R   0.548240 0.171332 0.580942 -0.003096
C23   C     C_R   0.452136 0.171013 0.417867 -0.003560
C24   C     C_R   0.546564 0.257721 0.578436 0.044867
C25   C     C_R   0.453573 0.257409 0.421170 0.052445
C26   C     C_R   0.500178 0.127170 0.499323 0.051907
C27   C     C_R   0.622024 0.587382 0.129704 -0.179092
C28   C     C_R   0.622442 0.586803 0.871110 -0.192020
C29   C     C_R   0.677845 0.629693 0.065158 -0.136997
C30   C     C_R   0.678061 0.629385 0.936212 -0.142379
C31   C     C_R   0.564384 0.544735 0.934651 0.101373
C32   C     C_R   0.564227 0.544963 0.065692 0.097399
C33   C     C_R   0.507691 0.500146 0.128662 -0.101337
C34   C     C_R   0.507867 0.499864 0.871310 -0.104704
C35   C     C_R   0.454965 0.453302 0.063707 -0.209423
C36   C     C_R   0.455005 0.453234 0.935893 -0.209864
C37   C     C_R   0.852745 0.565870 0.488133 -0.157257
C38   C     C_R   0.151940 0.547930 0.579639 -0.158495
C39   C     C_R   0.773633 0.573328 0.486745 0.072919
C40   C     C_R   0.231242 0.553662 0.581393 0.068571
Cu1   Cu    Cu3+1 0.500000 0.580420 0.500000 0.917732
Cu2   Cu    Cu3+1 0.500000 0.419580 0.500000 0.930768
H1    H     H_    0.582335 0.293344 0.638888 0.128398
H2    H     H_    0.417780 0.292808 0.360939 0.123014
H3    H     H_    0.625702 0.587016 0.229617 0.139417
H4    H     H_    0.626572 0.585947 0.771204 0.134780
H5    H     H_    0.721713 0.661881 0.115485 0.133120
H6    H     H_    0.722112 0.661323 0.886355 0.129995
H7    H     H_    0.889215 0.618483 0.479295 0.123112
H8    H     H_    0.117650 0.589360 0.632580 0.123150
H9    H     H_    0.733143 0.369379 0.522760 0.155586
H10   H     H_    0.265959 0.395359 0.382284 0.138600
H11   H     H_    0.579759 0.710468 0.646305 0.111142
H12   H     H_    0.419903 0.709375 0.354151 0.124768
N1    N     N_R   0.500000 0.701220 0.500000 -0.168113
N2    N     N_R   0.500000 0.298780 0.500000 -0.196556
O1    O     O_R   0.391260 0.567930 0.500000 -0.589754
O2    O     O_R   0.608740 0.567930 0.500000 -0.608225
O3    O     O_R   0.391280 0.432120 0.500000 -0.579796
O4    O     O_R   0.608720 0.432120 0.500000 -0.578535
O5    O     O_R   0.500000 0.567920 0.319650 -0.588163
O6    O     O_R   0.500000 0.567920 0.680350 -0.588125
O7    O     O_R   0.500030 0.432100 0.319660 -0.579908
O8    O     O_R   0.499970 0.432100 0.680340 -0.580190
H13   H     H_    0.412438 0.418069 0.112356 0.139189
H14   H     H_    0.412438 0.418061 0.886929 0.150156
C41   C     C_3   0.600048 0.124636 0.668434 -0.406077
C42   C     C_3   0.650393 0.176757 0.753660 -0.374181
C43   C     C_3   0.699491 0.123461 0.836716 -0.836081
H15   H     H_    0.663682 0.084056 0.896433 0.252388
H16   H     H_    0.736825 0.084698 0.779595 0.250046
H17   H     H_    0.735203 0.162614 0.897122 0.243383
H18   H     H_    0.687949 0.216221 0.696822 0.213876
H19   H     H_    0.614723 0.215508 0.813769 0.222378
H20   H     H_    0.564465 0.084456 0.727534 0.208716
H21   H     H_    0.637050 0.085212 0.611555 0.207657
C44   C     C_3   0.400703 0.124020 0.329510 -0.400679
C45   C     C_3   0.351094 0.175884 0.243439 -0.379974
C46   C     C_3   0.302704 0.122353 0.158901 -0.838189
H22   H     H_    0.339018 0.083790 0.099715 0.253009
H23   H     H_    0.264902 0.082747 0.214888 0.251321
H24   H     H_    0.267496 0.161336 0.097978 0.240837
H25   H     H_    0.313049 0.214532 0.299631 0.213678
H26   H     H_    0.387276 0.215457 0.184419 0.218259
H27   H     H_    0.436538 0.084409 0.270931 0.208440
H28   H     H_    0.363250 0.084022 0.385709 0.207116
C47   C     C_3   0.737259 0.656892 0.472695 -0.376667
C48   C     C_3   0.790737 0.729770 0.453268 -0.399908
C49   C     C_3   0.746522 0.808620 0.438281 -0.835886
H29   H     H_    0.707705 0.804481 0.357418 0.257225
H30   H     H_    0.713314 0.821015 0.523185 0.251043
H31   H     H_    0.786273 0.860096 0.423005 0.240119
H32   H     H_    0.828868 0.736450 0.534701 0.219291
H33   H     H_    0.824875 0.720369 0.368312 0.220738
H34   H     H_    0.698745 0.654908 0.391326 0.212342
H35   H     H_    0.704198 0.669088 0.557854 0.205021
C50   C     C_3   0.272435 0.615849 0.662413 -0.376668
C51   C     C_3   0.223912 0.660609 0.758000 -0.387042
C52   C     C_3   0.272583 0.714770 0.841287 -0.829530
H36   H     H_    0.313874 0.677510 0.893862 0.256165
H37   H     H_    0.303396 0.760686 0.784857 0.256017
H38   H     H_    0.236155 0.747047 0.908434 0.238536
H39   H     H_    0.182210 0.699722 0.709559 0.216730
H40   H     H_    0.193578 0.615745 0.817153 0.224253
H41   H     H_    0.317666 0.583606 0.714243 0.202514
H42   H     H_    0.299237 0.662059 0.601178 0.217091
H43   H     H_    0.869920 0.361236 0.524454 0.135504
H44   H     H_    0.128233 0.387302 0.383722 0.135311
H45   H     H_    0.581463 0.860944 0.648220 0.130074
H46   H     H_    0.418742 0.859944 0.350960 0.132829

loop_
_geom_bond_atom_site_label_1
_geom_bond_atom_site_label_2
_ccdc_geom_bond_type
C47   C48   S    
C27   C29   A    
Cu1   Cu2   S    
C35   C36   A    
C25   N2    A    
C39   C47   S    
C50   C51   S    
C31   C32   A    
C44   C45   S    
C28   H4    S    
C29   H5    S    
C15   H11   S    
C22   C24   A    
C30   H6    S    
Cu1   O2    S    
C1    O3    A    
C2    O4    A    
C35   H13   S    
C42   H19   S    
C51   H39   S    
C7    C9    A    
C18   C19   T    
C23   C26   A    
C20   O5    A    
C43   H16   S    
C19   C26   S    
Cu1   N1    S    
C21   O8    A    
C13   H45   S    
Cu2   N2    S    
C45   H25   S    
C4    C40   A    
C42   C43   S    
C47   H34   S    
Cu1   O5    S    
C49   H30   S    
C34   C36   A    
C50   H41   S    
C27   H3    S    
C44   H27   S    
C14   C17   A    
Cu1   O6    S    
C8    H44   S    
C25   H2    S    
C48   H33   S    
C41   C42   S    
C4    C6    A    
Cu2   O4    S    
C40   C50   S    
C5    C7    A    
C45   C46   S    
C6    C8    A    
C21   C34   S    
C42   H18   S    
C15   N1    A    
C43   H17   S    
C29   C30   A    
C1    O1    A    
C37   H7    S    
C36   H14   S    
C52   H36   S    
C47   H35   S    
C9    C37   A    
C17   C18   S    
C31   C34   A    
C23   C44   S    
C49   H31   S    
C9    C11   S    
C21   O6    A    
C10   C12   S    
C50   H42   S    
C52   H37   S    
C44   H28   S    
C13   C15   A    
C14   C16   A    
C41   H20   S    
C20   C33   S    
Cu2   O8    S    
C46   H23   S    
C14   H46   S    
C48   H32   S    
C27   C32   A    
C28   C31   A    
C3    C5    A    
Cu2   O3    S    
C46   H24   S    
C11   C12   T    
C2    O2    A    
C38   H8    S    
C24   N2    A    
C13   C17   A    
C10   C38   A    
C1    C4    S    
C32   C33   A    
C20   O7    A    
C28   C30   A    
C2    C3    S    
C16   N1    A    
Cu1   O1    S    
C37   C39   A    
C38   C40   A    
C51   H40   S    
C33   C35   A    
C7    H43   S    
C23   C25   A    
C43   H15   S    
C16   H12   S    
C22   C41   S    
C3    C39   A    
C46   H22   S    
C45   H26   S    
C52   H38   S    
C48   C49   S    
C8    C10   A    
C51   C52   S    
C22   C26   A    
C24   H1    S    
C5    H9    S    
C41   H21   S    
C6    H10   S    
C49   H29   S    
Cu2   O7    S    
