data_mof_unit_13304.cif
_audit_creation_date              2012-12-10T20:39:06-0500
_audit_creation_method            fapswitch 2.2
_symmetry_space_group_name_H-M    P1
_symmetry_Int_Tables_number       1
_space_group_crystal_system       triclinic
_cell_length_a                    18.679879
_cell_length_b                    10.685444
_cell_length_c                    9.836076
_cell_angle_alpha                 88.632035
_cell_angle_beta                  90.490277
_cell_angle_gamma                 89.137729
_cell_volume                      1962.44843047

loop_
_atom_site_label
_atom_site_type_symbol
_atom_type_description
_atom_site_fract_x
_atom_site_fract_y
_atom_site_fract_z
_atom_type_partial_charge
C1    C     C_R   0.505163 0.259984 0.502117 0.886713
C2    C     C_R   0.288893 0.456086 0.498058 -0.251380
C3    C     C_R   0.930116 0.350272 0.451657 0.297076
C4    C     C_R   0.074587 0.332868 0.456147 0.407643
C5    C     C_R   0.813804 0.337082 0.570933 -0.254774
C6    C     C_R   0.743916 0.381219 0.593620 0.463553
C7    C     C_R   0.712399 0.466799 0.498332 -0.128432
C8    C     C_R   0.752221 0.511081 0.387420 -0.270307
C9    C     C_R   0.822448 0.470607 0.369636 -0.145587
C10   C     C_R   0.853818 0.383332 0.461417 0.032564
C11   C     C_R   0.501118 0.058518 0.626070 0.072289
C12   C     C_R   0.364010 0.496598 0.500085 0.907379
C13   C     C_R   0.518551 0.128144 0.508590 -0.115848
C14   C     C_R   0.541877 0.066656 0.391757 -0.158715
C15   C     C_R   0.535833 0.937553 0.385760 -0.183356
C16   C     C_R   0.503072 0.873100 0.493480 -0.088248
C17   C     C_R   0.484353 0.935400 0.609362 0.046197
C18   C     C_3   0.411700 0.951731 0.670493 0.189028
C19   C     C_3   0.438628 0.075836 0.719162 0.239672
C20   C     C_R   0.437281 0.491526 0.070221 0.220421
C21   C     C_R   0.560539 0.525228 0.072347 -0.117025
C22   C     C_R   0.560387 0.526076 0.928194 -0.101488
C23   C     C_R   0.499734 0.740410 0.497790 0.852576
C24   C     C_R   0.437335 0.491855 0.927620 0.299861
C25   C     C_3   0.385291 0.388494 0.922402 -0.421502
C26   C     C_3   0.384984 0.387694 0.076653 -0.476548
C27   C     C_R   0.635567 0.495231 0.500360 0.894390
C28   C     C_R   0.235778 0.489125 0.594346 0.415198
C29   C     C_R   0.167660 0.438809 0.581046 -0.260615
C30   C     C_R   0.150164 0.360001 0.474756 -0.120499
C31   C     C_R   0.202614 0.323938 0.382016 0.458637
C32   C     C_R   0.271489 0.370074 0.396744 -0.312539
H1    H     H_    0.553931 0.889538 0.296288 0.161192
H2    H     H_    0.397112 0.882528 0.751884 0.186388
H3    H     H_    0.402900 0.157399 0.693658 0.107449
H4    H     H_    0.609574 0.543807 0.126713 0.146608
H5    H     H_    0.609211 0.545552 0.874293 0.150050
H6    H     H_    0.333683 0.418025 0.875867 0.273489
H7    H     H_    0.408386 0.303845 0.877567 0.247384
H8    H     H_    0.332654 0.419521 0.117055 0.224693
H9    H     H_    0.126008 0.467501 0.650404 0.191600
H10   H     H_    0.407854 0.300509 0.124564 0.260705
H11   H     H_    0.312440 0.336927 0.329022 0.204110
H12   H     H_    0.836702 0.265214 0.638216 0.163258
H13   H     H_    0.728468 0.576068 0.313091 0.161509
H14   H     H_    0.852180 0.508394 0.284427 0.166394
H15   H     H_    0.560635 0.118418 0.303264 0.180125
N1    N     N_R   0.039605 0.379131 0.344179 -0.097953
N2    N     N_R   0.968536 0.387376 0.341796 -0.161465
N3    N     N_R   0.965211 0.299043 0.561256 -0.166594
N4    N     N_R   0.036210 0.291285 0.563883 -0.145327
N5    N     N_R   0.499530 0.499140 0.142800 -0.105152
N6    N     N_R   0.499530 0.499180 0.857150 -0.106648
O1    O     O_R   0.500010 0.316790 0.614690 -0.606022
O2    O     O_R   0.500000 0.316760 0.385350 -0.611165
O3    O     O_R   0.398140 0.500000 0.614710 -0.569346
O4    O     O_R   0.398130 0.499970 0.385370 -0.623707
O5    O     O_R   0.500000 0.683240 0.614650 -0.597622
O6    O     O_R   0.499990 0.683210 0.385310 -0.616938
O7    O     O_R   0.601870 0.500030 0.614630 -0.587626
O8    O     O_R   0.601860 0.500000 0.385290 -0.631967
Zn1   Zn    Zn3+2 0.500000 0.500020 0.653130 1.016940
Zn2   Zn    Zn3+2 0.500000 0.499980 0.346870 0.958574
S1    S     S_3+6 0.243868 0.599034 0.726198 -0.025594
O9    O     O_2   0.317625 0.650140 0.743343 -0.327974
O10   O     O_2   0.192458 0.705808 0.695699 -0.332562
O11   O     O_3   0.219064 0.530555 0.874043 -0.537428
H16   H     H_    0.166377 0.541436 0.877796 0.384574
O12   O     O_3   0.359253 0.977067 0.568072 -0.656483
C33   C     C_3   0.322948 0.868152 0.532705 0.107553
H17   H     H_    0.279101 0.854033 0.605931 0.248093
H18   H     H_    0.358679 0.783991 0.532665 0.140934
C34   C     C_3   0.290710 0.887856 0.390434 -0.273493
H19   H     H_    0.251581 0.967127 0.391584 0.291416
H20   H     H_    0.333887 0.911985 0.317662 0.260356
C35   C     C_3   0.252932 0.771136 0.342207 -0.835291
H21   H     H_    0.292015 0.692691 0.332622 0.250178
H22   H     H_    0.227982 0.790804 0.240937 0.299478
H23   H     H_    0.210365 0.743382 0.414520 0.284009
S2    S     S_3+6 0.467340 0.064715 0.894330 -0.023392
O13   O     O_2   0.517171 0.169734 0.924548 -0.343045
O14   O     O_2   0.402949 0.072477 0.984482 -0.306838
O15   O     O_3   0.510483 0.927407 0.925025 -0.566036
H24   H     H_    0.521549 0.926299 0.023724 0.377448
S3    S     S_3+6 0.184234 0.221690 0.247580 0.030780
O16   O     O_2   0.135263 0.119750 0.295532 -0.264808
O17   O     O_2   0.147934 0.294953 0.133476 -0.280533
O18   O     O_3   0.260568 0.156233 0.190817 -0.552835
H25   H     H_    0.268964 0.196191 0.100587 0.395857
O19   O     O_3   0.703029 0.326944 0.695578 -0.626756
C36   C     C_3   0.732192 0.354585 0.824530 0.056212
H26   H     H_    0.726313 0.456601 0.842839 0.133213
H27   H     H_    0.789825 0.327806 0.833877 0.143025
C37   C     C_3   0.692209 0.280821 0.934305 -0.270002
H28   H     H_    0.634327 0.304579 0.927806 0.265566
H29   H     H_    0.698742 0.178910 0.916795 0.244111
C38   C     C_3   0.720133 0.309302 0.076459 -0.945103
H30   H     H_    0.776933 0.278288 0.087879 0.274859
H31   H     H_    0.687804 0.258842 0.153885 0.278347
H32   H     H_    0.716168 0.411217 0.094980 0.252893

loop_
_geom_bond_atom_site_label_1
_geom_bond_atom_site_label_2
_ccdc_geom_bond_type
O5    Zn1   S    
C23   O5    A    
C31   S3    S    
C34   H19   S    
C35   H23   S    
C2    C12   S    
C38   H30   S    
C3    N2    A    
C7    C8    A    
C21   H4    S    
S3    O16   D    
C23   O6    A    
C11   C19   S    
O7    Zn1   S    
C28   C29   A    
C35   H22   S    
C27   O7    A    
C30   C31   A    
C15   C16   A    
C7    C27   S    
C2    C32   A    
C18   C19   S    
O8    Zn2   S    
C8    H13   S    
C27   O8    A    
C14   H15   S    
C31   C32   A    
C8    C9    A    
O2    Zn2   S    
C33   H17   S    
C9    C10   A    
C18   O12   S    
C9    H14   S    
C13   C14   A    
C34   H20   S    
C19   S2    S    
S2    O15   S    
C38   H31   S    
C3    N3    A    
O4    Zn2   S    
C22   N6    A    
S3    O17   D    
C4    N4    A    
O11   H16   S    
S1    O11   S    
C20   C24   A    
C24   C25   S    
S2    O14   D    
C36   H26   S    
C16   C17   A    
O1    Zn1   S    
C37   C38   S    
N3    N4    A    
C25   C26   S    
C6    O19   S    
C22   H5    S    
S1    O10   D    
C1    O1    A    
C29   C30   A    
C25   H6    S    
C36   H27   S    
N6    Zn1   S    
O15   H24   S    
C33   C34   S    
C17   C18   S    
C35   H21   S    
C37   H29   S    
C18   H2    S    
C12   O3    A    
C12   O4    A    
C28   S1    S    
N1    N2    A    
C5    H12   S    
C16   C23   S    
C34   C35   S    
O3    Zn1   S    
C1    C13   S    
C38   H32   S    
C26   H10   S    
C4    N1    A    
S3    O18   S    
C11   C17   A    
C29   H9    S    
S2    O13   D    
N5    Zn2   S    
C33   H18   S    
C6    C7    A    
O6    Zn2   S    
S1    O9    D    
C24   N6    A    
C5    C10   A    
C20   N5    A    
C3    C10   S    
C19   H3    S    
C25   H7    S    
C36   C37   S    
C11   C13   A    
C26   H8    S    
O19   C36   S    
C5    C6    A    
C20   C26   S    
C32   H11   S    
C1    O2    A    
C37   H28   S    
O12   C33   S    
O18   H25   S    
C14   C15   A    
C2    C28   A    
C21   C22   A    
C15   H1    S    
C21   N5    A    
C4    C30   S    
