data_mof_unit_60513.cif
_audit_creation_date              2012-12-10T17:51:32-0500
_audit_creation_method            fapswitch 2.2
_symmetry_space_group_name_H-M    P1
_symmetry_Int_Tables_number       1
_space_group_crystal_system       triclinic
_cell_length_a                    25.762612
_cell_length_b                    27.740106
_cell_length_c                    18.891109
_cell_angle_alpha                 89.999989
_cell_angle_beta                  132.768913
_cell_angle_gamma                 90.0
_cell_volume                      9910.82348411

loop_
_atom_site_label
_atom_site_type_symbol
_atom_type_description
_atom_site_fract_x
_atom_site_fract_y
_atom_site_fract_z
_atom_type_partial_charge
C1    C     C_R   0.858194 0.749703 0.999928 0.560881
C2    C     C_3   0.200977 0.718878 0.933838 0.098753
C3    C     C_3   0.200857 0.280620 0.933934 0.099638
C4    C     C_3   0.799023 0.718878 0.066162 0.098753
C5    C     C_3   0.299143 0.780620 0.066066 0.099637
C6    C     C_3   0.700977 0.218878 0.933838 0.098753
C7    C     C_3   0.700857 0.780620 0.933934 0.099637
C8    C     C_3   0.299023 0.218878 0.066162 0.098753
C9    C     C_1   0.819035 0.749909 0.637924 0.044772
C10   C     C_1   0.180965 0.250091 0.362075 0.042411
C11   C     C_1   0.180965 0.749909 0.362076 0.044772
C12   C     C_R   0.141749 0.250203 0.000017 0.562763
C13   C     C_1   0.819035 0.250091 0.637925 0.042411
C14   C     C_1   0.319035 0.249909 0.637924 0.044772
C15   C     C_1   0.680965 0.750091 0.362075 0.042411
C16   C     C_1   0.680965 0.249909 0.362076 0.044772
C17   C     C_1   0.319035 0.750091 0.637925 0.042411
C18   C     C_1   0.775508 0.749955 0.550943 -0.005525
C19   C     C_1   0.224491 0.250046 0.449055 -0.006682
C20   C     C_1   0.224491 0.749955 0.449056 -0.005525
C21   C     C_1   0.775509 0.250046 0.550944 -0.006682
C22   C     C_1   0.275508 0.249955 0.550943 -0.005525
C23   C     C_R   0.141806 0.749703 0.000072 0.560881
C24   C     C_1   0.724491 0.750046 0.449055 -0.006682
C25   C     C_1   0.724491 0.249955 0.449056 -0.005525
C26   C     C_1   0.275508 0.750046 0.550944 -0.006682
C27   C     C_1   0.000000 0.568955 0.000000 0.031310
C28   C     C_1   0.000000 0.431046 1.000000 0.034913
C29   C     C_1   0.500000 0.068955 0.000000 0.031310
C30   C     C_1   0.500000 0.931046 1.000000 0.034913
C31   C     C_1   0.000000 0.525470 0.000000 -0.014214
C32   C     C_1   0.000000 0.474531 1.000000 -0.012564
C33   C     C_1   0.500000 0.025469 0.000000 -0.014214
C34   C     C_R   0.858251 0.250203 0.999983 0.562762
C35   C     C_1   0.500000 0.974531 1.000000 -0.012564
C36   C     C_R   0.129237 0.749960 0.258517 0.526316
C37   C     C_R   0.870763 0.250040 0.741483 0.524865
C38   C     C_R   0.870763 0.749960 0.741483 0.526316
C39   C     C_R   0.129237 0.250040 0.258516 0.524865
C40   C     C_R   0.629237 0.249959 0.258517 0.526316
C41   C     C_R   0.370763 0.750040 0.741483 0.524865
C42   C     C_R   0.370763 0.249959 0.741483 0.526316
C43   C     C_R   0.629237 0.750040 0.258516 0.524865
C44   C     C_R   0.000000 0.620728 0.000000 0.522309
C45   C     C_R   0.358194 0.249703 0.999928 0.560881
C46   C     C_R   0.000000 0.379272 1.000000 0.524808
C47   C     C_R   0.500000 0.120729 0.000000 0.522309
C48   C     C_R   0.500000 0.879272 1.000000 0.524808
C49   C     C_R   1.000000 0.879246 1.000000 0.502498
C50   C     C_R   1.000000 0.120754 0.000000 0.501829
C51   C     C_R   0.500000 0.379246 1.000000 0.502498
C52   C     C_R   0.500000 0.620754 0.000000 0.501829
C53   C     C_1   1.000000 0.931032 1.000000 0.023172
C54   C     C_1   1.000000 0.068968 0.000000 0.022970
C55   C     C_1   0.500000 0.431032 1.000000 0.023172
C56   C     C_R   0.641749 0.750203 0.000017 0.562763
C57   C     C_1   0.500000 0.568968 0.000000 0.022970
C58   C     C_1   1.000000 0.974525 1.000000 -0.023196
C59   C     C_1   1.000000 0.025475 0.000000 -0.023347
C60   C     C_1   0.500000 0.474525 1.000000 -0.023196
C61   C     C_1   0.500000 0.525475 0.000000 -0.023347
C62   C     C_3   0.221535 0.794648 0.979222 -0.137789
C63   C     C_3   0.778614 0.204961 0.020806 -0.171461
C64   C     C_3   0.778465 0.794648 0.020778 -0.137789
C65   C     C_3   0.221386 0.204961 0.979194 -0.171461
C66   C     C_3   0.721535 0.294648 0.979222 -0.137789
C67   C     C_R   0.641806 0.249703 0.000072 0.560881
C68   C     C_3   0.278614 0.704961 0.020806 -0.171461
C69   C     C_3   0.278465 0.294648 0.020778 -0.137789
C70   C     C_3   0.721385 0.704961 0.979194 -0.171461
C71   C     C_3   0.723886 0.263589 0.913144 0.268577
C72   C     C_3   0.276121 0.736030 0.086648 0.243734
C73   C     C_3   0.276114 0.263589 0.086856 0.268577
C74   C     C_3   0.723878 0.736030 0.913352 0.243734
C75   C     C_3   0.223886 0.763589 0.913144 0.268577
C76   C     C_3   0.776121 0.236031 0.086648 0.243734
C77   C     C_3   0.776114 0.763589 0.086856 0.268577
C78   C     C_R   0.358251 0.750203 0.999983 0.562762
C79   C     C_3   0.223879 0.236031 0.913352 0.243735
C80   C     C_3   0.801513 0.250473 0.000224 -0.007712
C81   C     C_3   0.198522 0.749156 0.999665 -0.011209
C82   C     C_3   0.198487 0.250473 0.999776 -0.007713
C83   C     C_3   0.801478 0.749156 0.000335 -0.011209
C84   C     C_3   0.301513 0.750473 0.000224 -0.007713
C85   C     C_3   0.698522 0.249156 0.999665 -0.011209
C86   C     C_3   0.698487 0.750473 0.999776 -0.007713
C87   C     C_3   0.301478 0.249156 0.000335 -0.011209
C88   C     C_3   0.835649 0.349605 0.172232 -0.256250
C89   C     C_3   0.799143 0.280620 0.066066 0.099637
C90   C     C_3   0.162571 0.656216 0.815580 -0.247036
C91   C     C_3   0.164351 0.349605 0.827767 -0.256250
C92   C     C_3   0.837429 0.656216 0.184420 -0.247036
C93   C     C_3   0.335649 0.849605 0.172232 -0.256250
C94   C     C_3   0.662571 0.156216 0.815580 -0.247037
C95   C     C_3   0.664351 0.849605 0.827767 -0.256250
C96   C     C_3   0.337429 0.156216 0.184420 -0.247037
H1    H     H_    0.197414 0.830972 0.961792 0.147790
H2    H     H_    0.414798 0.701722 0.339780 0.378378
H3    H     H_    0.415284 0.290806 0.343668 0.373899
H4    H     H_    0.585202 0.701721 0.660220 0.378378
H5    H     H_    0.084715 0.790806 0.656332 0.373899
H6    H     H_    0.914798 0.201722 0.339780 0.378378
H7    H     H_    0.915284 0.790806 0.343668 0.373899
H8    H     H_    0.085202 0.201721 0.660220 0.378378
H9    H     H_    0.901983 0.296366 0.193043 0.299986
H10   H     H_    0.882112 0.372802 0.226665 0.150634
H11   H     H_    0.818137 0.332363 0.205978 0.203152
H12   H     H_    0.802298 0.168504 0.037756 0.149676
H13   H     H_    0.792776 0.372917 0.111605 0.154771
H14   H     H_    0.130713 0.663254 0.889798 0.276492
H15   H     H_    0.116673 0.632780 0.760486 0.150573
H16   H     H_    0.209459 0.632991 0.868591 0.129338
H17   H     H_    0.172491 0.679709 0.778514 0.229264
H18   H     H_    0.098017 0.296366 0.806957 0.299986
H19   H     H_    0.117888 0.372802 0.773335 0.150634
H20   H     H_    0.181863 0.332363 0.794021 0.203152
H21   H     H_    0.207224 0.372917 0.888395 0.154771
H22   H     H_    0.869287 0.663254 0.110202 0.276492
H23   H     H_    0.802586 0.830972 0.038208 0.147790
H24   H     H_    0.883326 0.632780 0.239514 0.150573
H25   H     H_    0.790541 0.632991 0.131409 0.129338
H26   H     H_    0.827509 0.679709 0.221486 0.229264
H27   H     H_    0.401983 0.796366 0.193043 0.299986
H28   H     H_    0.382112 0.872802 0.226665 0.150634
H29   H     H_    0.318137 0.832363 0.205978 0.203152
H30   H     H_    0.292776 0.872917 0.111605 0.154771
H31   H     H_    0.630713 0.163254 0.889798 0.276492
H32   H     H_    0.616673 0.132780 0.760486 0.150573
H33   H     H_    0.709459 0.132991 0.868590 0.129339
H34   H     H_    0.197702 0.168504 0.962244 0.149676
H35   H     H_    0.672491 0.179709 0.778514 0.229264
H36   H     H_    0.598017 0.796366 0.806957 0.299986
H37   H     H_    0.617888 0.872802 0.773335 0.150634
H38   H     H_    0.681862 0.832363 0.794021 0.203152
H39   H     H_    0.707224 0.872917 0.888395 0.154771
H40   H     H_    0.369287 0.163254 0.110202 0.276492
H41   H     H_    0.383327 0.132780 0.239514 0.150574
H42   H     H_    0.290541 0.132991 0.131410 0.129339
H43   H     H_    0.327509 0.179709 0.221486 0.229264
H44   H     H_    0.697414 0.330972 0.961792 0.147790
H45   H     H_    0.302298 0.668504 0.037756 0.149676
H46   H     H_    0.302586 0.330972 0.038208 0.147790
H47   H     H_    0.697702 0.668504 0.962244 0.149676
H48   H     H_    0.584716 0.290806 0.656332 0.373899
N1    N     N_2   0.854907 0.313512 0.138402 -0.467471
N2    N     N_2   0.146797 0.684649 0.863119 -0.453592
N3    N     N_2   0.145093 0.313512 0.861598 -0.467471
N4    N     N_2   0.853203 0.684649 0.136881 -0.453593
N5    N     N_2   0.354907 0.813512 0.138402 -0.467471
N6    N     N_2   0.646797 0.184649 0.863119 -0.453593
N7    N     N_2   0.645093 0.813512 0.861598 -0.467471
N8    N     N_2   0.353203 0.184649 0.136881 -0.453593
O1    O     O_3   1.000000 0.750010 0.000000 -0.461473
O2    O     O_R   0.645150 0.722120 0.055700 -0.514374
O3    O     O_R   0.645150 0.277880 0.055700 -0.511369
O4    O     O_R   0.354850 0.722120 0.944300 -0.514374
O5    O     O_R   0.075530 0.722150 0.212560 -0.531003
O6    O     O_R   0.924470 0.277850 0.787440 -0.537375
O7    O     O_R   0.924470 0.722150 0.787440 -0.531003
O8    O     O_R   0.075530 0.277850 0.212560 -0.537375
O9    O     O_R   0.575530 0.222150 0.212560 -0.531003
O10   O     O_R   0.424470 0.777850 0.787440 -0.537375
O11   O     O_R   0.424470 0.222150 0.787440 -0.531003
O12   O     O_3   0.000000 0.249990 0.000000 -0.462586
O13   O     O_R   0.575530 0.777850 0.212560 -0.537375
O14   O     O_R   0.997120 0.643740 0.055720 -0.531764
O15   O     O_R   0.002880 0.356260 0.944280 -0.525493
O16   O     O_R   0.002880 0.643740 0.944280 -0.531764
O17   O     O_R   0.997120 0.356260 0.055720 -0.525493
O18   O     O_R   0.497120 0.143740 0.055720 -0.531764
O19   O     O_R   0.502880 0.856260 0.944280 -0.525493
O20   O     O_R   0.502880 0.143740 0.944280 -0.531764
O21   O     O_R   0.497120 0.856260 0.055720 -0.525493
O22   O     O_R   0.941380 0.856290 0.944290 -0.540049
O23   O     O_3   0.500000 0.250010 0.000000 -0.461473
O24   O     O_R   0.058620 0.143710 0.055710 -0.540737
O25   O     O_R   0.058620 0.856290 0.055710 -0.540050
O26   O     O_R   0.941380 0.143710 0.944290 -0.540737
O27   O     O_R   0.441380 0.356290 0.944290 -0.540049
O28   O     O_R   0.558620 0.643710 0.055710 -0.540737
O29   O     O_R   0.558620 0.356290 0.055710 -0.540050
O30   O     O_R   0.441380 0.643710 0.944290 -0.540737
O31   O     O_R   0.137030 0.777870 0.212550 -0.512698
O32   O     O_R   0.862970 0.222130 0.787450 -0.511364
O33   O     O_R   0.862970 0.777870 0.787450 -0.512698
O34   O     O_3   0.500000 0.749990 0.000000 -0.462586
O35   O     O_R   0.137030 0.222130 0.212550 -0.511364
O36   O     O_R   0.637030 0.277870 0.212550 -0.512698
O37   O     O_R   0.362970 0.722130 0.787450 -0.511364
O38   O     O_R   0.362970 0.277870 0.787450 -0.512698
O39   O     O_R   0.637030 0.722130 0.212550 -0.511364
O40   O     O_R   0.910580 0.722150 0.055750 -0.533942
O41   O     O_R   0.089420 0.277850 0.944250 -0.522559
O42   O     O_R   0.089420 0.722150 0.944250 -0.533942
O43   O     O_R   0.910580 0.277850 0.055750 -0.522559
O44   O     O_R   0.410580 0.222150 0.055750 -0.533942
O45   O     O_R   0.854850 0.777880 0.944300 -0.511369
O46   O     O_R   0.589420 0.777850 0.944250 -0.522559
O47   O     O_R   0.589420 0.222150 0.944250 -0.533942
O48   O     O_R   0.410580 0.777850 0.055750 -0.522559
O49   O     O_2   0.707604 0.337296 0.807573 -0.267077
O50   O     O_2   0.719548 0.256818 0.766415 -0.284745
O51   O     O_3   0.600563 0.278713 0.717721 -0.496574
O52   O     O_2   0.290315 0.750720 0.240221 -0.277184
O53   O     O_2   0.280902 0.667092 0.190429 -0.271095
O54   O     O_3   0.399190 0.712602 0.277895 -0.526057
O55   O     O_2   0.292396 0.337296 0.192427 -0.267077
O56   O     O_R   0.145150 0.222120 0.055700 -0.514374
O57   O     O_2   0.280452 0.256818 0.233584 -0.284745
O58   O     O_3   0.399437 0.278714 0.282279 -0.496574
O59   O     O_2   0.709685 0.750720 0.759779 -0.277184
O60   O     O_2   0.719098 0.667092 0.809571 -0.271095
O61   O     O_3   0.600810 0.712602 0.722105 -0.526057
O62   O     O_2   0.207604 0.837296 0.807573 -0.267077
O63   O     O_2   0.219547 0.756818 0.766415 -0.284745
O64   O     O_3   0.100563 0.778713 0.717721 -0.496574
O65   O     O_2   0.790315 0.250720 0.240221 -0.277184
O66   O     O_2   0.780902 0.167092 0.190429 -0.271095
O67   O     O_R   0.145150 0.777880 0.055700 -0.511369
O68   O     O_3   0.899190 0.212602 0.277895 -0.526057
O69   O     O_2   0.792396 0.837296 0.192427 -0.267077
O70   O     O_2   0.780452 0.756818 0.233584 -0.284745
O71   O     O_3   0.899437 0.778713 0.282279 -0.496574
O72   O     O_2   0.209685 0.250720 0.759779 -0.277183
O73   O     O_2   0.219098 0.167092 0.809571 -0.271095
O74   O     O_3   0.100810 0.212602 0.722105 -0.526057
O75   O     O_R   0.854850 0.222120 0.944300 -0.514374
O76   O     O_R   0.354850 0.277880 0.944300 -0.511369
S1    S     S_3+6 0.688965 0.284954 0.798771 0.025535
S2    S     S_3+6 0.310634 0.716047 0.201434 0.013389
S3    S     S_3+6 0.311035 0.284954 0.201229 0.025535
S4    S     S_3+6 0.689366 0.716047 0.798566 0.013389
S5    S     S_3+6 0.188965 0.784954 0.798771 0.025535
S6    S     S_3+6 0.810634 0.216047 0.201434 0.013389
S7    S     S_3+6 0.811035 0.784954 0.201229 0.025535
S8    S     S_3+6 0.189366 0.216047 0.798566 0.013389
Zn1   Zn    Zn3+2 0.083740 0.789820 0.079610 0.992377
Zn2   Zn    Zn3+2 0.004120 0.289800 0.920380 0.992151
Zn3   Zn    Zn3+2 0.004120 0.710200 0.920380 0.988123
Zn4   Zn    Zn3+2 0.995880 0.289800 0.079620 0.992151
Zn5   Zn    Zn3+2 0.495880 0.210200 0.079620 0.988123
Zn6   Zn    Zn3+2 0.504120 0.789800 0.920380 0.992151
Zn7   Zn    Zn3+2 0.504120 0.210200 0.920380 0.988123
Zn8   Zn    Zn3+2 0.495880 0.789800 0.079620 0.992151
Zn9   Zn    Zn3+2 0.916260 0.210180 0.920390 0.988735
Zn10  Zn    Zn3+2 0.916260 0.789820 0.920390 0.992377
Zn11  Zn    Zn3+2 0.083740 0.210180 0.079610 0.988735
Zn12  Zn    Zn3+2 0.583740 0.289820 0.079610 0.992377
Zn13  Zn    Zn3+2 0.416260 0.710180 0.920390 0.988735
Zn14  Zn    Zn3+2 0.416260 0.289820 0.920390 0.992377
Zn15  Zn    Zn3+2 0.583740 0.710180 0.079610 0.988735
Zn16  Zn    Zn3+2 0.995880 0.710200 0.079620 0.988123

loop_
_geom_bond_atom_site_label_1
_geom_bond_atom_site_label_2
_ccdc_geom_bond_type
C34   O43   A    
C6    C63   S    
H27   N5    S    
C3    N3    S    
C2    N2    S    
C65   C79   S    
C39   O8    A    
O54   S2    S    
C12   O41   A    
O18   Zn5   S    
C93   N5    S    
C63   C80   S    
O63   S5    D    
C93   H28   S    
C90   H16   S    
C74   C83   S    
C3    C79   S    
C96   H43   S    
C91   N3    S    
C47   O20   A    
O29   Zn12  S    
O74   S8    S    
H8    O74   S    
O3    Zn12  S    
O46   Zn6   S    
C89   N1    S    
C28   C46   S    
C70   H47   S    
C50   C54   S    
C6    C85   S    
C72   S2    S    
C30   C35   T    
C29   C47   S    
C95   H37   S    
C18   C24   S    
C17   C26   T    
C12   O56   A    
C30   C48   S    
C11   C36   S    
C3    C69   S    
O30   Zn13  S    
C52   O30   A    
C38   O7    A    
C5    C72   S    
C67   O47   A    
H31   N6    S    
C96   H42   S    
C43   O13   A    
O60   S4    D    
O37   Zn13  S    
C75   C84   S    
C7    C86   S    
C92   N4    S    
O2    Zn15  S    
H5    O64   S    
C48   O19   A    
C29   C33   T    
O45   Zn10  S    
C77   S7    S    
C50   O24   A    
C5    N5    S    
C91   H20   S    
C67   O3    A    
O32   Zn9   S    
C90   H17   S    
C80   C89   S    
O12   Zn11  S    
C93   H30   S    
C71   C80   S    
O34   Zn13  S    
O35   Zn11  S    
C34   C80   S    
C95   N7    S    
C27   C44   S    
O38   Zn14  S    
C31   C32   S    
O20   Zn7   S    
O17   Zn4   S    
O12   Zn4   S    
O39   Zn15  S    
O58   S3    S    
C91   H21   S    
C69   C73   S    
C39   O35   A    
O42   Zn3   S    
O16   Zn3   S    
O8    Zn4   S    
O48   Zn8   S    
C49   O25   A    
C72   C81   S    
C69   C87   S    
H6    O68   S    
C76   C89   S    
C14   C42   S    
H7    O71   S    
C45   O44   A    
O49   S1    D    
C34   O75   A    
O36   Zn12  S    
C43   O39   A    
C8    C65   S    
C55   C60   T    
O69   S7    D    
O34   Zn6   S    
O64   S5    S    
C45   C87   S    
O53   S2    D    
C78   O48   A    
C90   H15   S    
C66   C85   S    
C51   O27   A    
O24   Zn11  S    
C4    C70   S    
C49   O22   A    
H40   N8    S    
C65   H34   S    
C66   C89   S    
O76   Zn14  S    
C54   C59   T    
O15   Zn2   S    
H36   N7    S    
C6    C71   S    
C11   C20   T    
O1    Zn16  S    
C23   O67   A    
O70   S7    D    
C67   C85   S    
C94   H33   S    
C46   O15   A    
O1    Zn3   S    
C27   C31   T    
C68   C84   S    
O43   Zn4   S    
C28   C32   T    
C19   C22   S    
O66   S6    D    
C56   O2    A    
O59   S4    D    
C96   H41   S    
O51   S1    S    
C5    C84   S    
C44   O16   A    
O4    Zn13  S    
O23   Zn14  S    
C40   O9    A    
C92   H25   S    
C69   H46   S    
O40   Zn16  S    
C37   O32   A    
C95   H38   S    
O14   Zn16  S    
C10   C39   S    
C45   O76   A    
C37   O6    A    
O47   Zn7   S    
O23   Zn7   S    
C52   O28   A    
C64   C83   S    
C70   C74   S    
C92   H26   S    
O75   Zn9   S    
O26   Zn9   S    
C88   H10   S    
C42   O38   A    
H48   O51   S    
C56   C86   S    
C66   C71   S    
C62   H1    S    
C10   C19   T    
C68   C72   S    
H9    N1    S    
O1    Zn10  S    
C3    C82   S    
C95   H39   S    
C71   S1    S    
C88   N1    S    
C13   C21   T    
C68   H45   S    
C36   O31   A    
C44   O14   A    
O11   Zn7   S    
O12   Zn9   S    
C64   H23   S    
O34   Zn15  S    
C79   C87   S    
O61   S4    S    
O71   S7    S    
C36   O5    A    
C16   C40   S    
O50   S1    D    
C7    N7    S    
C88   H13   S    
C74   S4    S    
O23   Zn12  S    
C62   C81   S    
O6    Zn2   S    
C77   C86   S    
O19   Zn6   S    
O12   Zn2   S    
C62   C75   S    
O62   S5    D    
C94   N6    S    
H4    O61   S    
C70   C86   S    
O5    Zn16  S    
O13   Zn8   S    
C73   C82   S    
C73   S3    S    
C47   O18   A    
C52   C57   S    
O22   Zn10  S    
O25   Zn1   S    
C48   O21   A    
O68   S6    S    
C16   C25   T    
O27   Zn14  S    
C21   C25   S    
C15   C24   T    
C7    C64   S    
C23   C81   S    
C17   C41   S    
C50   O26   A    
C42   O11   A    
O73   S8    D    
C13   C37   S    
C60   C61   S    
C1    O45   A    
C51   O29   A    
C56   O46   A    
O65   S6    D    
C79   S8    S    
C88   H11   S    
C76   S6    S    
C53   C58   T    
O55   S3    D    
C57   C61   T    
C40   O36   A    
C94   H32   S    
C92   H24   S    
C1    C83   S    
C38   O33   A    
C4    N4    S    
C2    C68   S    
C94   H35   S    
C46   O17   A    
O1    Zn1   S    
O44   Zn5   S    
O9    Zn5   S    
C8    C87   S    
C14   C22   T    
H22   N4    S    
O23   Zn5   S    
C58   C59   S    
O56   Zn11  S    
C15   C43   S    
C4    C77   S    
C90   N2    S    
H14   N2    S    
C7    C74   S    
O31   Zn1   S    
O34   Zn8   S    
O21   Zn8   S    
H18   N3    S    
C65   C82   S    
C4    C83   S    
C20   C26   S    
C8    N8    S    
C49   C53   S    
O67   Zn1   S    
C76   C85   S    
C23   O42   A    
C8    C73   S    
C33   C35   S    
C91   H19   S    
C5    C62   S    
C75   S5    S    
C51   C55   S    
O52   S2    D    
C93   H29   S    
O41   Zn2   S    
O57   S3    D    
O72   S8    D    
C41   O37   A    
C6    N6    S    
C1    O40   A    
C78   C84   S    
C9    C18   T    
C12   C82   S    
C66   H44   S    
C63   C76   S    
C78   O4    A    
C64   C77   S    
O7    Zn3   S    
H2    O54   S    
C2    C81   S    
C9    C38   S    
C63   H12   S    
C41   O10   A    
O10   Zn6   S    
O28   Zn15  S    
C2    C75   S    
O33   Zn10  S    
H3    O58   S    
C96   N8    S    
