data_mof_unit_40019.cif
_audit_creation_date              2013-03-05T15:48:36-0500
_audit_creation_method            fapswitch 2.2
_symmetry_space_group_name_H-M    P1
_symmetry_Int_Tables_number       1
_space_group_crystal_system       triclinic
_cell_length_a                    16.802785
_cell_length_b                    16.663599
_cell_length_c                    42.702611
_cell_angle_alpha                 90.200317
_cell_angle_beta                  89.483993
_cell_angle_gamma                 120.000135
_cell_volume                      10354.2021908

loop_
_atom_site_label
_atom_site_type_symbol
_atom_site_description
_atom_site_fract_x
_atom_site_fract_y
_atom_site_fract_z
_atom_type_partial_charge
O1    O     O_R   0.509640 0.171340 0.784000 -0.435463
O2    O     O_R   0.661700 0.490360 0.716000 -0.425572
O3    O     O_R   0.828660 0.338300 0.784000 -0.440295
O4    O     O_R   0.509640 0.171340 0.716000 -0.442776
O5    O     O_R   0.661700 0.490360 0.784000 -0.410080
O6    O     O_R   0.828660 0.338300 0.716000 -0.432073
O7    O     O_R   0.171340 0.509640 0.284000 -0.414518
O8    O     O_R   0.490360 0.661700 0.216000 -0.407666
O9    O     O_R   0.338300 0.828660 0.284000 -0.421235
O10   O     O_R   0.171340 0.509640 0.216000 -0.428467
O11   O     O_R   0.490360 0.661700 0.284000 -0.432458
O12   O     O_R   0.338300 0.828660 0.216000 -0.404890
O13   O     O_R   0.539230 0.345420 0.781810 -0.460206
O14   O     O_R   0.806190 0.460770 0.718190 -0.456994
O15   O     O_R   0.654580 0.193810 0.781810 -0.459826
O16   O     O_R   0.539230 0.345420 0.718190 -0.454225
O17   O     O_R   0.806190 0.460770 0.781810 -0.453966
O18   O     O_R   0.654580 0.193810 0.718190 -0.456632
O19   O     O_R   0.345420 0.539230 0.281810 -0.464426
O20   O     O_R   0.460770 0.806190 0.218190 -0.456341
O21   O     O_R   0.193810 0.654580 0.281810 -0.471184
O22   O     O_R   0.345420 0.539230 0.218190 -0.475551
O23   O     O_R   0.460770 0.806190 0.281810 -0.472623
O24   O     O_R   0.193810 0.654580 0.218190 -0.459193
C1    C     C_R   0.581110 0.427255 0.793904 0.612350
C2    C     C_R   0.844440 0.417734 0.705489 0.610059
C3    C     C_R   0.573668 0.157671 0.794461 0.624345
C4    C     C_R   0.581569 0.428372 0.706461 0.603617
C5    C     C_R   0.843986 0.417729 0.794327 0.618493
C6    C     C_R   0.574501 0.158020 0.705356 0.614802
C7    C     C_R   0.426491 0.582695 0.294323 0.576322
C8    C     C_R   0.417963 0.843989 0.205554 0.615485
C9    C     C_R   0.152537 0.571469 0.293613 0.585112
C10   C     C_R   0.426686 0.582680 0.205833 0.630271
C11   C     C_R   0.417623 0.844644 0.294332 0.570117
C12   C     C_R   0.155600 0.573386 0.205873 0.626265
Cr1   Cr    Cr6+3 0.530290 0.262330 0.750000 1.245679
Cr2   Cr    Cr6+3 0.732040 0.469710 0.750000 1.264221
Cr3   Cr    Cr6+3 0.737670 0.267960 0.750000 1.234084
Cr4   Cr    Cr6+3 0.262330 0.530290 0.250000 1.227672
Cr5   Cr    Cr6+3 0.469710 0.732040 0.250000 1.249176
Cr6   Cr    Cr6+3 0.267960 0.737670 0.250000 1.247986
O25   O     O_3   0.666667 0.333333 0.750000 -0.321745
O26   O     O_3   0.333333 0.666667 0.250000 -0.336533
C13   C     C_R   0.893599 0.453017 0.824538 -0.037053
C14   C     C_R   0.563435 0.113751 0.674326 -0.032377
C15   C     C_R   0.538497 0.444287 0.822289 -0.020446
C16   C     C_R   0.892794 0.452622 0.674574 -0.029329
C17   C     C_R   0.560301 0.112240 0.825170 -0.029422
C18   C     C_R   0.542626 0.450962 0.678693 -0.030550
C19   C     C_R   0.457537 0.899531 0.323802 -0.048555
C20   C     C_R   0.100228 0.557025 0.177014 -0.014767
C21   C     C_R   0.444782 0.547680 0.323870 -0.048276
C22   C     C_R   0.457072 0.895320 0.175442 -0.021503
C23   C     C_R   0.081459 0.545407 0.319190 -0.040039
C24   C     C_R   0.439686 0.549957 0.175054 -0.020626
C25   C     C_R   0.974284 0.557089 0.035809 0.053732
C26   C     C_R   0.567744 0.921846 0.471070 0.031450
C27   C     C_R   0.404977 0.417041 0.033247 0.044503
C28   C     C_R   0.978439 0.573036 0.460624 0.048636
C29   C     C_R   0.578352 0.981910 0.029524 0.039097
C30   C     C_R   0.469483 0.574383 0.471916 0.036845
C31   C     C_R   0.583599 0.956109 0.536937 0.044752
C32   C     C_R   0.991944 0.562373 0.969499 0.050297
C33   C     C_R   0.474716 0.556498 0.538076 0.030496
C34   C     C_R   0.584012 0.974353 0.963288 0.026014
C35   C     C_R   0.968042 0.566503 0.526586 0.049316
C36   C     C_R   0.408971 0.435015 0.966878 0.041343
C37   C     C_R   0.969991 0.552415 0.068926 0.479687
C38   C     C_R   0.557422 0.907201 0.438161 0.498082
C39   C     C_R   0.406371 0.413145 0.066378 0.471670
C40   C     C_R   0.001781 0.576641 0.428569 0.497053
C41   C     C_R   0.575307 0.995058 0.062147 0.472164
C42   C     C_R   0.467042 0.580017 0.438846 0.470770
C43   C     C_R   0.591781 0.981660 0.569126 0.481572
C44   C     C_R   0.001221 0.561784 0.936532 0.481918
C45   C     C_R   0.473208 0.540019 0.570735 0.452787
C46   C     C_R   0.589314 0.986933 0.930358 0.460545
C47   C     C_R   0.975557 0.561339 0.559331 0.479265
C48   C     C_R   0.414797 0.446826 0.933868 0.475403
O27   O     O_2   0.952583 0.604016 0.084155 -0.419621
O28   O     O_2   0.602038 0.878518 0.424447 -0.439231
O29   O     O_2   0.339933 0.354516 0.081006 -0.438669
O30   O     O_2   0.059578 0.651048 0.417655 -0.406356
O31   O     O_2   0.646405 0.037618 0.076949 -0.424079
O32   O     O_2   0.437228 0.625634 0.426551 -0.458915
O33   O     O_2   0.662343 0.003199 0.583376 -0.422597
O34   O     O_2   0.033377 0.633816 0.921558 -0.415507
O35   O     O_2   0.430600 0.562104 0.588756 -0.443068
O36   O     O_2   0.659863 0.006311 0.915980 -0.427553
O37   O     O_2   0.028085 0.630631 0.574030 -0.411697
O38   O     O_2   0.346052 0.425307 0.918497 -0.443584
N1    N     N_R   0.989784 0.491988 0.084412 -0.389736
N2    N     N_R   0.491156 0.917026 0.422188 -0.370149
N3    N     N_R   0.481429 0.478651 0.082677 -0.387841
N4    N     N_R   0.967358 0.496609 0.410406 -0.361188
N5    N     N_R   0.491898 0.958554 0.077641 -0.390707
N6    N     N_R   0.497896 0.533743 0.420002 -0.383181
N7    N     N_R   0.521301 0.985626 0.584484 -0.383335
N8    N     N_R   0.971614 0.479392 0.920761 -0.388502
N9    N     N_R   0.518691 0.497531 0.582616 -0.387477
N10   N     N_R   0.516664 0.983139 0.914380 -0.381174
N11   N     N_R   0.925156 0.477864 0.574819 -0.382176
N12   N     N_R   0.498252 0.481327 0.918621 -0.388326
C49   C     C_R   0.988932 0.419530 0.068334 0.489549
C50   C     C_R   0.411898 0.894240 0.439172 0.465477
C51   C     C_R   0.563244 0.535101 0.067399 0.489581
C52   C     C_R   0.933776 0.413215 0.426700 0.484092
C53   C     C_R   0.411335 0.922981 0.060932 0.484908
C54   C     C_R   0.540332 0.489031 0.432426 0.485581
C55   C     C_R   0.439338 0.959572 0.569819 0.488855
C56   C     C_R   0.949005 0.399082 0.936886 0.476672
C57   C     C_R   0.567085 0.470202 0.563433 0.509268
C58   C     C_R   0.433844 0.956509 0.929032 0.495163
C59   C     C_R   0.875195 0.396896 0.557933 0.501387
C60   C     C_R   0.578779 0.518965 0.935363 0.479937
O39   O     O_2   0.010255 0.368459 0.081741 -0.387358
O40   O     O_2   0.338952 0.863602 0.425512 -0.396832
O41   O     O_2   0.628023 0.594283 0.082215 -0.380926
O42   O     O_2   0.934751 0.347570 0.414579 -0.415426
O43   O     O_2   0.337909 0.885679 0.074983 -0.356737
O44   O     O_2   0.563191 0.445501 0.415060 -0.396271
O45   O     O_2   0.377997 0.962271 0.584519 -0.374129
O46   O     O_2   0.923520 0.327293 0.922282 -0.403233
O47   O     O_2   0.606682 0.433075 0.575075 -0.355930
O48   O     O_2   0.370822 0.952648 0.913791 -0.365753
O49   O     O_2   0.822918 0.325356 0.571794 -0.415596
O50   O     O_2   0.651340 0.544307 0.921452 -0.355824
C61   C     C_R   0.967729 0.407137 0.036122 -0.007271
C62   C     C_R   0.414022 0.902171 0.472300 -0.002355
C63   C     C_R   0.570650 0.527656 0.034650 -0.006908
C64   C     C_R   0.907929 0.405526 0.458726 0.010451
C65   C     C_R   0.413623 0.928136 0.027843 -0.008110
C66   C     C_R   0.555390 0.491781 0.464926 -0.006838
C67   C     C_R   0.427482 0.933466 0.537923 -0.009409
C68   C     C_R   0.954187 0.399623 0.969986 -0.002767
C69   C     C_R   0.568576 0.482180 0.530668 -0.006794
C70   C     C_R   0.423438 0.938520 0.961521 -0.013565
C71   C     C_R   0.884018 0.396968 0.524864 0.019901
C72   C     C_R   0.577351 0.526040 0.968305 -0.014015
C73   C     C_R   0.971615 0.482000 0.019366 -0.071961
C74   C     C_R   0.495571 0.922399 0.488087 -0.075848
C75   C     C_R   0.489051 0.474092 0.017350 -0.070105
C76   C     C_R   0.936734 0.487051 0.476098 -0.065241
C77   C     C_R   0.497831 0.955144 0.012109 -0.074365
C78   C     C_R   0.515069 0.530184 0.484928 -0.074293
C79   C     C_R   0.502379 0.937451 0.521002 -0.074620
C80   C     C_R   0.972712 0.481401 0.986240 -0.072030
C81   C     C_R   0.519454 0.523065 0.517919 -0.075838
C82   C     C_R   0.501715 0.955714 0.978942 -0.082098
C83   C     C_R   0.929142 0.483324 0.509192 -0.057285
C84   C     C_R   0.491702 0.478272 0.984166 -0.073456
C85   C     C_R   0.984313 0.634764 0.018823 0.003469
C86   C     C_R   0.646314 0.933823 0.487398 -0.031012
C87   C     C_R   0.322487 0.369375 0.015764 -0.033661
C88   C     C_R   0.996933 0.653383 0.477793 -0.003868
C89   C     C_R   0.657137 0.989867 0.014098 -0.029686
C90   C     C_R   0.427981 0.611082 0.492215 -0.037834
C91   C     C_R   0.654101 0.950521 0.520001 -0.018094
C92   C     C_R   0.997490 0.639272 0.986050 0.000425
C93   C     C_R   0.432183 0.603918 0.524940 -0.039694
C94   C     C_R   0.658452 0.982280 0.981220 -0.020792
C95   C     C_R   0.995299 0.651118 0.510759 -0.022087
C96   C     C_R   0.324131 0.380454 0.982978 -0.035410
C97   C     C_R   0.946657 0.324469 0.020105 0.187001
C98   C     C_R   0.336996 0.889691 0.489989 0.210773
C99   C     C_R   0.655749 0.576988 0.018597 0.200675
C100  C     C_R   0.858429 0.318545 0.474140 0.219859
C101  C     C_R   0.333868 0.902912 0.010051 0.207438
C102  C     C_R   0.609016 0.456731 0.477860 0.206318
C103  C     C_R   0.343586 0.905387 0.522322 0.196618
C104  C     C_R   0.936859 0.319907 0.987374 0.199447
C105  C     C_R   0.616961 0.453581 0.510328 0.210128
C106  C     C_R   0.338766 0.908910 0.977311 0.199063
C107  C     C_R   0.846212 0.314282 0.506915 0.231100
C108  C     C_R   0.659038 0.575433 0.985819 0.202633
C109  C     C_R   0.983217 0.448911 0.140791 -0.013371
C110  C     C_R   0.435068 0.959661 0.373219 -0.019448
C111  C     C_R   0.516931 0.494170 0.139850 -0.012881
C112  C     C_R   0.971063 0.431305 0.356313 -0.011834
C113  C     C_R   0.445195 0.981387 0.131096 -0.007456
C114  C     C_R   0.554915 0.578316 0.365640 -0.032455
C115  C     C_R   0.561463 0.122141 0.617296 -0.023234
C116  C     C_R   0.992202 0.446014 0.865120 -0.017843
C117  C     C_R   0.578861 0.558371 0.635112 -0.015215
C118  C     C_R   0.568559 0.121905 0.882133 -0.019520
C119  C     C_R   0.946708 0.418068 0.625618 -0.027642
C120  C     C_R   0.552547 0.547396 0.865428 -0.010281
C121  C     C_R   0.023175 0.468912 0.170882 0.143307
C122  C     C_R   0.413175 0.938756 0.341118 0.141556
C123  C     C_R   0.505082 0.521278 0.170246 0.138157
C124  C     C_R   0.027335 0.451949 0.329433 0.154688
C125  C     C_R   0.427499 0.954650 0.162975 0.162044
C126  C     C_R   0.536953 0.583727 0.333785 0.140724
C127  C     C_R   0.575680 0.165893 0.646738 0.165815
C128  C     C_R   0.962186 0.432134 0.833664 0.130979
C129  C     C_R   0.586813 0.543179 0.667124 0.152460
C130  C     C_R   0.582036 0.166064 0.852922 0.163447
C131  C     C_R   0.930598 0.405020 0.658255 0.139648
C132  C     C_R   0.572599 0.535108 0.834179 0.163049
C133  C     C_R   0.132156 0.626178 0.153438 0.186329
C134  C     C_R   0.540700 0.910343 0.336086 0.129276
C135  C     C_R   0.387305 0.551514 0.149681 0.180745
C136  C     C_R   0.060907 0.611105 0.332491 0.139170
C137  C     C_R   0.514721 0.874158 0.156679 0.161599
C138  C     C_R   0.371881 0.491621 0.344742 0.139484
C139  C     C_R   0.542721 0.020750 0.672053 0.134554
C140  C     C_R   0.861862 0.494752 0.846575 0.170922
C141  C     C_R   0.470465 0.380150 0.661015 0.171510
C142  C     C_R   0.525569 0.015698 0.826962 0.135550
C143  C     C_R   0.885729 0.523301 0.658596 0.153925
C144  C     C_R   0.471234 0.368129 0.840119 0.167586
C145  C     C_R   0.099600 0.602175 0.122737 0.249449
C146  C     C_R   0.563350 0.935662 0.367777 0.215908
C147  C     C_R   0.403851 0.530984 0.119392 0.253354
C148  C     C_R   0.004079 0.587870 0.359548 0.224592
C149  C     C_R   0.523905 0.893127 0.124461 0.248069
C150  C     C_R   0.390749 0.481052 0.375941 0.240597
C151  C     C_R   0.528464 0.977396 0.642474 0.247375
C152  C     C_R   0.884921 0.499161 0.878238 0.230756
C153  C     C_R   0.458757 0.396993 0.629500 0.254188
C154  C     C_R   0.512237 0.972154 0.856389 0.250456
C155  C     C_R   0.894406 0.530298 0.625822 0.248551
C156  C     C_R   0.457653 0.380346 0.871921 0.258365
C157  C     C_R   0.024436 0.513619 0.116191 0.126215
C158  C     C_R   0.495787 0.935518 0.387993 0.108235
C159  C     C_R   0.467588 0.500881 0.114345 0.125833
C160  C     C_R   0.979555 0.504133 0.375729 0.113581
C161  C     C_R   0.487578 0.945258 0.111336 0.129538
C162  C     C_R   0.481596 0.529454 0.386763 0.128240
C163  C     C_R   0.536692 0.028231 0.615131 0.127563
C164  C     C_R   0.949919 0.474685 0.887746 0.116674
C165  C     C_R   0.518914 0.483987 0.615994 0.132273
C166  C     C_R   0.532771 0.025621 0.883873 0.126642
C167  C     C_R   0.921763 0.475119 0.608908 0.124636
C168  C     C_R   0.501651 0.469913 0.885025 0.130260
N13   N     N_R   0.902279 0.231849 0.972401 0.133900
O51   O     O_R   0.958226 0.203384 0.963503 -0.212619
O52   O     O_R   0.816187 0.185149 0.964596 -0.289296
N14   N     N_R   0.262563 0.888386 0.539247 0.128344
O53   O     O_R   0.220674 0.816308 0.557436 -0.216576
O54   O     O_R   0.229606 0.943779 0.535973 -0.200967
N15   N     N_R   0.746807 0.624971 0.970629 0.149275
O55   O     O_R   0.770709 0.702178 0.955970 -0.220434
O56   O     O_R   0.805301 0.596159 0.973496 -0.285328
N16   N     N_R   0.795827 0.225124 0.521603 0.135848
O57   O     O_R   0.839023 0.193028 0.537827 -0.245281
O58   O     O_R   0.709077 0.171592 0.515554 -0.269677
N17   N     N_R   0.255974 0.882426 0.960373 0.129859
O59   O     O_R   0.220093 0.808210 0.943104 -0.226441
O60   O     O_R   0.213326 0.929020 0.963839 -0.222056
N18   N     N_R   0.680302 0.427615 0.522231 0.129140
O61   O     O_R   0.757637 0.491228 0.533786 -0.295512
O62   O     O_R   0.669422 0.346301 0.516039 -0.241226
N19   N     N_R   0.249522 0.856501 0.475675 0.124858
O63   O     O_R   0.221520 0.913904 0.468272 -0.220631
O64   O     O_R   0.200261 0.769264 0.468550 -0.274363
N20   N     N_R   0.924269 0.241537 0.037182 0.122889
O65   O     O_R   0.860642 0.211188 0.058775 -0.242131
O66   O     O_R   0.962639 0.192834 0.029809 -0.226334
N21   N     N_R   0.662952 0.431812 0.458195 0.135283
O67   O     O_R   0.634087 0.345227 0.451753 -0.200488
O68   O     O_R   0.740461 0.495986 0.446410 -0.284682
N22   N     N_R   0.246137 0.868943 0.024837 0.141962
O69   O     O_R   0.223250 0.926235 0.037068 -0.217615
O70   O     O_R   0.187562 0.780603 0.024682 -0.286675
N23   N     N_R   0.815655 0.233901 0.456481 0.148474
O71   O     O_R   0.755920 0.221343 0.435067 -0.204550
O72   O     O_R   0.831678 0.167134 0.463078 -0.230116
N24   N     N_R   0.740450 0.626909 0.035324 0.131751
O73   O     O_R   0.768884 0.582402 0.052694 -0.261209
O74   O     O_R   0.792386 0.715829 0.031332 -0.235456
N25   N     N_R   0.802491 0.529021 0.837408 0.125157
O75   O     O_R   0.835340 0.603181 0.820138 -0.212372
O76   O     O_R   0.723964 0.499543 0.851601 -0.242800
N26   N     N_R   0.537021 0.970530 0.699870 0.112622
O77   O     O_R   0.460599 0.896108 0.707367 -0.170341
O78   O     O_R   0.611685 0.991609 0.715062 -0.197086
N27   N     N_R   0.417890 0.277868 0.826381 0.123769
O79   O     O_R   0.363425 0.266332 0.803202 -0.230152
O80   O     O_R   0.415480 0.205710 0.838984 -0.224849
N28   N     N_R   0.867001 0.586869 0.675349 0.126947
O81   O     O_R   0.798170 0.597262 0.667485 -0.226845
O82   O     O_R   0.921676 0.637923 0.697529 -0.225588
N29   N     N_R   0.501613 0.961379 0.798896 0.112078
O83   O     O_R   0.420313 0.888924 0.795931 -0.175575
O84   O     O_R   0.562782 0.981301 0.776953 -0.214545
N30   N     N_R   0.410261 0.290929 0.674636 0.125978
O85   O     O_R   0.363499 0.284800 0.699859 -0.229745
O86   O     O_R   0.395578 0.215494 0.660486 -0.206464
N31   N     N_R   0.606024 0.904360 0.315841 0.127438
O87   O     O_R   0.625614 0.838868 0.319902 -0.210190
O88   O     O_R   0.639194 0.958679 0.291601 -0.226611
N32   N     N_R   0.199936 0.720371 0.160119 0.117928
O89   O     O_R   0.176847 0.769926 0.177469 -0.217787
O90   O     O_R   0.274474 0.762151 0.143191 -0.249351
N33   N     N_R   0.278383 0.446874 0.334751 0.124372
O91   O     O_R   0.245825 0.373192 0.317294 -0.201921
O92   O     O_R   0.225344 0.478956 0.343527 -0.276582
N34   N     N_R   0.563119 0.831807 0.169889 0.126082
O93   O     O_R   0.627005 0.877176 0.190421 -0.216553
O94   O     O_R   0.555170 0.756462 0.157756 -0.253427
N35   N     N_R   0.093917 0.699376 0.317972 0.126916
O95   O     O_R   0.055873 0.706486 0.292531 -0.224663
O96   O     O_R   0.165401 0.771829 0.329234 -0.201328
N36   N     N_R   0.319140 0.577810 0.154302 0.095460
O97   O     O_R   0.234195 0.519971 0.147229 -0.289893
O98   O     O_R   0.340505 0.656458 0.167404 -0.338028
C169  C     C_1   0.008347 0.720452 0.969573 0.392479
N37   N     N_1   0.016069 0.784753 0.956519 -0.043130
C170  C     C_1   0.735182 0.960716 0.535629 0.325116
N38   N     N_1   0.799820 0.968702 0.547962 -0.117810
C171  C     C_1   0.237904 0.331285 0.966128 0.309283
N39   N     N_1   0.169203 0.292070 0.952775 -0.102927
C172  C     C_1   0.012389 0.733488 0.527960 0.339987
N40   N     N_1   0.025317 0.798943 0.541645 -0.072259
C173  C     C_1   0.735317 0.979412 0.966459 0.347671
N41   N     N_1   0.796527 0.976941 0.954810 -0.082569
C174  C     C_1   0.393921 0.648160 0.544584 0.278867
N42   N     N_1   0.363547 0.683714 0.560033 -0.148208
C175  C     C_1   0.722516 0.934274 0.470804 0.326500
N43   N     N_1   0.783302 0.934729 0.457668 -0.116200
C176  C     C_1   0.988124 0.713868 0.034781 0.400719
N44   N     N_1   0.991662 0.777130 0.047417 -0.045470
C177  C     C_1   0.375285 0.651497 0.480008 0.276293
N45   N     N_1   0.332686 0.682962 0.470375 -0.179807
C178  C     C_1   0.733322 0.996114 0.031922 0.349113
N46   N     N_1   0.793747 0.000392 0.046075 -0.052781
C179  C     C_1   0.009710 0.735785 0.461696 0.355405
N47   N     N_1   0.019338 0.801144 0.448851 -0.081569
C180  C     C_1   0.234139 0.312858 0.031214 0.319273
N48   N     N_1   0.163794 0.267910 0.043491 -0.079466
N49   N     N_R   0.839949 0.526331 0.901144 0.142088
O99   O     O_R   0.790908 0.469137 0.923342 -0.242656
O100  O     O_R   0.847972 0.608078 0.899889 -0.155793
N50   N     N_R   0.508144 0.882855 0.640147 0.137067
O101  O     O_R   0.445227 0.825465 0.621101 -0.238432
O102  O     O_R   0.554673 0.854420 0.656285 -0.182844
N51   N     N_R   0.401495 0.300984 0.891186 0.138977
O103  O     O_R   0.436335 0.283084 0.915454 -0.266574
O104  O     O_R   0.315316 0.246446 0.884536 -0.180659
N52   N     N_R   0.873480 0.592773 0.609745 0.128940
O105  O     O_R   0.921311 0.681425 0.615070 -0.184618
O106  O     O_R   0.799127 0.560175 0.593248 -0.234111
N53   N     N_R   0.482641 0.874967 0.858242 0.138229
O107  O     O_R   0.519838 0.839592 0.840123 -0.195009
O108  O     O_R   0.420912 0.821909 0.878691 -0.238401
N54   N     N_R   0.384683 0.326531 0.611523 0.138166
O109  O     O_R   0.301134 0.286170 0.622599 -0.185837
O110  O     O_R   0.399932 0.301988 0.584190 -0.238229
N55   N     N_R   0.658606 0.983883 0.376752 0.141681
O111  O     O_R   0.690438 0.058515 0.393719 -0.219741
O112  O     O_R   0.714138 0.954600 0.368129 -0.158891
N56   N     N_R   0.144343 0.667798 0.097865 0.136818
O113  O     O_R   0.181154 0.647453 0.074457 -0.231743
O114  O     O_R   0.146621 0.747016 0.098214 -0.163411
N57   N     N_R   0.317715 0.422282 0.397114 0.132566
O115  O     O_R   0.325124 0.361784 0.414144 -0.240434
O116  O     O_R   0.249154 0.436227 0.402211 -0.200694
N58   N     N_R   0.568918 0.857407 0.104842 0.128013
O117  O     O_R   0.525164 0.802437 0.081672 -0.256177
O118  O     O_R   0.654503 0.881798 0.109541 -0.182536
N59   N     N_R   0.962812 0.642517 0.368694 0.133538
O119  O     O_R   0.881824 0.602490 0.381872 -0.257876
O120  O     O_R   0.005065 0.731694 0.364266 -0.153467
N60   N     N_R   0.359970 0.546442 0.093215 0.125601
O121  O     O_R   0.409651 0.604702 0.071367 -0.257626
O122  O     O_R   0.272323 0.492777 0.088736 -0.213192
N61   N     N_R   0.983230 0.401544 0.195588 0.104372
O123  O     O_R   0.966783 0.425578 0.222834 -0.247859
O124  O     O_R   0.961646 0.315853 0.190834 -0.207135
N62   N     N_R   0.352991 0.964221 0.325740 0.122681
O125  O     O_R   0.282448 0.959196 0.340429 -0.184714
O126  O     O_R   0.375039 0.003242 0.298257 -0.214018
N63   N     N_R   0.557208 0.517364 0.196166 0.105102
O127  O     O_R   0.645183 0.549442 0.193276 -0.206291
O128  O     O_R   0.517013 0.482003 0.222835 -0.253238
N64   N     N_R   0.022621 0.376648 0.311437 0.120693
O129  O     O_R   0.996353 0.365637 0.282417 -0.210738
O130  O     O_R   0.028838 0.310714 0.325386 -0.171480
N65   N     N_R   0.381180 0.988838 0.182727 0.111683
O131  O     O_R   0.307050 0.987319 0.173254 -0.190645
O132  O     O_R   0.413586 0.022391 0.210258 -0.239188
N66   N     N_R   0.611467 0.624144 0.311361 0.118743
O133  O     O_R   0.685980 0.702107 0.317134 -0.194046
O134  O     O_R   0.604978 0.582146 0.284957 -0.203152
N67   N     N_R   0.605798 0.263548 0.648546 0.083620
O135  O     O_R   0.576043 0.301627 0.628834 -0.275737
O136  O     O_R   0.669990 0.316801 0.667909 -0.370589
N68   N     N_R   0.002585 0.398953 0.810893 0.106995
O137  O     O_R   0.013729 0.328915 0.817282 -0.218122
O138  O     O_R   0.027595 0.438215 0.783507 -0.232530
N69   N     N_R   0.634160 0.620115 0.688388 0.129307
O139  O     O_R   0.707992 0.695854 0.679892 -0.180674
O140  O     O_R   0.599049 0.616834 0.715964 -0.207585
N70   N     N_R   0.616917 0.264810 0.851569 0.084226
O141  O     O_R   0.595068 0.306152 0.873026 -0.259385
O142  O     O_R   0.672712 0.314818 0.829338 -0.361887
N71   N     N_R   0.954139 0.344862 0.674795 0.108605
O143  O     O_R   0.926467 0.261234 0.664759 -0.225203
O144  O     O_R   0.004297 0.374113 0.699841 -0.208241
N72   N     N_R   0.626615 0.614382 0.814527 0.117938
O145  O     O_R   0.703059 0.683782 0.824597 -0.180340
O146  O     O_R   0.598308 0.618089 0.786599 -0.210260
C181  C     C_1   0.897696 0.363820 0.135467 0.372779
N73   N     N_1   0.829239 0.295819 0.131176 -0.126689
C182  C     C_1   0.408135 0.018906 0.389511 0.374167
N74   N     N_1   0.386860 0.066391 0.402545 -0.107262
C183  C     C_1   0.576452 0.455730 0.134904 0.368993
N75   N     N_1   0.624031 0.424918 0.130889 -0.159735
C184  C     C_1   0.886863 0.342396 0.356919 0.385526
N76   N     N_1   0.819504 0.271467 0.357229 -0.082983
C185  C     C_1   0.421708 0.047423 0.118612 0.356520
N77   N     N_1   0.403025 0.100279 0.108577 -0.157832
C186  C     C_1   0.648303 0.624012 0.377013 0.368004
N78   N     N_1   0.722893 0.660536 0.386202 -0.097896
C187  C     C_1   0.575490 0.173725 0.588650 0.379110
N79   N     N_1   0.586261 0.214523 0.565665 -0.072339
C188  C     C_1   0.068086 0.433517 0.874154 0.372812
N80   N     N_1   0.128810 0.423609 0.881440 -0.126210
C189  C     C_1   0.630893 0.649913 0.621472 0.377046
N81   N     N_1   0.672328 0.722988 0.610440 -0.139526
C190  C     C_1   0.594783 0.175239 0.910883 0.355621
N82   N     N_1   0.615759 0.217577 0.933891 -0.159054
C191  C     C_1   0.991444 0.374971 0.609275 0.355748
N83   N     N_1   0.027240 0.340597 0.596164 -0.129529
C192  C     C_1   0.583340 0.639426 0.877576 0.370037
N84   N     N_1   0.607837 0.712950 0.887343 -0.125468

loop_
_geom_bond_atom_site_label_1
_geom_bond_atom_site_label_2
_geom_bond_distance
_ccdc_geom_bond_type
C64   C76   1.404268 A    
C100  C107  1.409578 A    
C117  C165  1.405939 A    
C192  N84   1.157424 T    
N19   O64   1.299653 A    
C10   C24   1.477014 S    
N57   O115  1.301103 A    
N9    C57   1.376726 Am   
C191  N83   1.157371 T    
C52   O42   1.215957 D    
C45   N9    1.375990 Am   
N31   O87   1.300393 A    
O13   C1    1.289770 A    
N35   O96   1.299155 A    
N49   O99   1.301063 A    
C45   O35   1.221370 D    
N28   O81   1.299257 A    
C102  N21   1.434947 S    
C124  N64   1.437460 S    
C135  C147  1.397430 A    
N70   O142  1.297215 A    
C56   O46   1.220931 D    
C76   C83   1.416596 A    
C37   N1    1.380322 Am   
C39   N3    1.378539 Am   
C146  N55   1.441228 S    
C28   C40   1.413661 A    
O17   C5    1.291383 A    
N62   O125  1.301232 A    
C50   C62   1.419447 A    
C20   C133  1.417555 A    
C135  N36   1.428280 S    
O12   Cr6   1.999064 S    
N12   C60   1.378760 Am   
C18   C141  1.418416 A    
C89   C178  1.453493 S    
C70   C106  1.416070 A    
C101  C106  1.400751 A    
C114  C126  1.408941 A    
C72   C84   1.415668 A    
C85   C176  1.454693 S    
O1    Cr1   2.001879 S    
N4    C52   1.396141 Am   
C24   C123  1.413630 A    
O3    Cr3   2.013795 S    
C147  N60   1.437482 S    
C50   O40   1.219944 D    
C21   C126  1.420692 A    
O7    C9    1.284543 A    
Cr6   O26   1.976401 S    
C36   C96   1.422016 A    
C105  N18   1.431828 S    
C66   C78   1.420345 A    
C33   C45   1.419916 A    
C16   C131  1.417876 A    
C53   C65   1.414897 A    
C176  N44   1.157523 T    
C35   C47   1.411925 A    
C155  N52   1.433235 S    
N52   O105  1.301380 A    
C26   C38   1.422742 A    
N68   O138  1.301458 A    
O4    C6    1.294576 A    
C5    C13   1.492965 S    
C48   O38   1.221259 D    
C69   C105  1.419278 A    
N10   C58   1.376113 Am   
O14   Cr2   1.890347 S    
O15   C3    1.293513 A    
N35   O95   1.300810 A    
C72   C108  1.416045 A    
C22   C137  1.424889 A    
C143  C155  1.405003 A    
C128  N68   1.439358 S    
N36   O97   1.299012 A    
O14   C2    1.293604 A    
O15   Cr3   1.890393 S    
C40   O30   1.220439 D    
C19   C122  1.415459 A    
C108  N15   1.430454 S    
O5    C1    1.298912 A    
C95   C172  1.452101 S    
C59   C71   1.418486 A    
N10   C166  1.442242 S    
C11   C19   1.504585 S    
N65   O131  1.301235 A    
N24   O74   1.300828 A    
C65   C77   1.415690 A    
N67   O135  1.299861 A    
C42   O32   1.221790 D    
C63   C75   1.418501 A    
N34   O93   1.301296 A    
C96   C171  1.454584 S    
N71   O144  1.301369 A    
C154  C166  1.408117 A    
C94   C173  1.454144 S    
N50   O101  1.301024 A    
N66   O134  1.301260 A    
N7    C163  1.449010 S    
N63   O127  1.301188 A    
C139  N26   1.430137 S    
C61   C97   1.414498 A    
C44   N8    1.379338 Am   
C123  N63   1.439322 S    
N69   O139  1.301115 A    
O23   Cr5   1.888027 S    
Cr2   O25   1.968426 S    
N29   O84   1.299307 A    
C181  N73   1.157420 T    
C53   O43   1.221049 D    
N54   O109  1.301126 A    
C20   C121  1.415306 A    
N27   O80   1.300963 A    
C33   C81   1.421323 A    
C38   O28   1.217336 D    
N3    C159  1.448120 S    
C117  C189  1.447038 S    
O21   Cr6   1.890007 S    
C40   N4    1.394343 Am   
N1    C157  1.453082 S    
C92   C169  1.454604 S    
O21   C9    1.300451 A    
C175  N43   1.157536 T    
C33   C93   1.422980 A    
C117  C129  1.410729 A    
C183  N75   1.157389 T    
C89   C94   1.410166 A    
C28   C76   1.405291 A    
N18   O61   1.298509 A    
C189  N81   1.157477 T    
C142  C154  1.412261 A    
C188  N80   1.157443 T    
C31   C91   1.424590 A    
C42   N6    1.377958 Am   
C137  C149  1.402476 A    
N17   O59   1.301073 A    
C148  C160  1.421567 A    
C153  N54   1.437562 S    
N4    C160  1.490175 S    
O10   Cr4   2.018482 S    
N31   O88   1.301179 A    
C126  N66   1.441453 S    
C129  N69   1.444291 S    
N21   O67   1.300949 A    
C58   O48   1.221929 D    
C120  C132  1.412472 A    
N71   O143  1.301285 A    
O3    C5    1.292188 A    
C29   C77   1.412407 A    
N6    C162  1.442761 S    
C114  C162  1.405821 A    
N22   O69   1.300844 A    
C17   C142  1.412679 A    
C47   O37   1.221490 D    
C77   C82   1.417088 A    
C12   C20   1.491063 S    
C19   C134  1.421633 A    
C13   C128  1.418166 A    
C27   C75   1.415804 A    
C141  N30   1.436477 S    
N13   O51   1.300488 A    
C32   C80   1.415133 A    
C118  C190  1.449736 S    
N33   O92   1.299807 A    
C47   N11   1.381245 Am   
C56   C68   1.416639 A    
C137  N34   1.436160 S    
C31   C79   1.418845 A    
N58   O117  1.300708 A    
C21   C138  1.417532 A    
C39   O29   1.221472 D    
O22   C10   1.291616 A    
O8    Cr5   1.996987 S    
C131  N71   1.437613 S    
C127  N67   1.444455 S    
N30   O86   1.301264 A    
N5    C53   1.380221 Am   
O2    Cr2   2.016035 S    
C113  C185  1.446702 S    
N27   O79   1.301231 A    
N7    C55   1.375880 Am   
C43   N7    1.378729 Am   
C98   N19   1.428535 S    
C111  C123  1.417612 A    
C9    C23   1.506317 S    
O8    C10   1.289407 A    
C41   O31   1.221823 D    
C68   C80   1.417299 A    
C43   O33   1.220953 D    
C13   C140  1.418036 A    
C67   C79   1.417984 A    
C132  N72   1.438099 S    
C54   C66   1.409434 A    
C115  C163  1.406748 A    
N65   O132  1.301409 A    
N72   O145  1.301236 A    
O20   C8    1.291372 A    
C148  N59   1.444520 S    
N16   O57   1.301021 A    
N11   C167  1.456258 S    
C153  C165  1.409201 A    
N24   O73   1.301186 A    
C74   C79   1.422415 A    
C6    C14   1.481535 S    
C136  N35   1.428258 S    
C30   C42   1.417971 A    
C151  C163  1.409564 A    
N67   O136  1.299372 A    
N23   O71   1.301007 A    
C106  N17   1.433560 S    
C130  N70   1.445693 S    
C136  C148  1.417820 A    
N28   O82   1.301259 A    
C93   C174  1.456175 S    
C85   C92   1.411292 A    
N20   O65   1.301452 A    
N64   O129  1.300542 A    
C86   C91   1.413156 A    
C116  C188  1.446701 S    
O6    C2    1.294162 A    
C31   C43   1.424915 A    
C71   C83   1.414221 A    
N14   O53   1.301005 A    
N25   O76   1.299667 A    
N62   O126  1.301539 A    
C147  C159  1.406181 A    
O17   Cr2   1.907144 S    
C58   C70   1.411143 A    
C111  C159  1.412781 A    
C62   C74   1.413830 A    
C52   C64   1.417817 A    
C145  C157  1.410864 A    
O19   Cr4   1.908226 S    
C109  C157  1.412067 A    
C35   C95   1.417713 A    
Cr4   O26   1.968882 S    
N26   O77   1.300866 A    
N56   O113  1.301122 A    
C66   C102  1.412639 A    
C156  N51   1.435920 S    
C114  C186  1.447148 S    
C138  N33   1.429876 S    
C3    C17   1.474722 S    
N61   O124  1.301194 A    
C36   C48   1.419677 A    
C185  N77   1.157383 T    
N6    C54   1.373260 Am   
C46   N10   1.377383 Am   
O24   Cr6   1.899158 S    
C99   N24   1.434547 S    
O19   C7    1.299818 A    
C24   C135  1.410475 A    
C141  C153  1.411099 A    
C46   O36   1.221432 D    
C48   N12   1.378714 Am   
C38   N2    1.388733 Am   
C34   C82   1.418023 A    
C144  C156  1.405940 A    
N32   O89   1.300835 A    
C110  C122  1.418929 A    
N52   O106  1.298741 A    
C61   C73   1.412931 A    
C103  N14   1.433202 S    
N15   O55   1.301050 A    
C34   C94   1.421146 A    
N33   O91   1.300681 A    
C51   O41   1.221544 D    
C65   C101  1.415142 A    
N60   O121  1.300636 A    
C150  C162  1.404690 A    
C152  N49   1.434733 S    
C26   C86   1.421634 A    
C90   C93   1.408343 A    
N2    C50   1.386588 Am   
C68   C104  1.420175 A    
C88   C95   1.408029 A    
C115  C127  1.412141 A    
N59   O119  1.301742 A    
C30   C90   1.422507 A    
C67   C103  1.416011 A    
N53   O108  1.300783 A    
C113  C125  1.415825 A    
C1    C15   1.499198 S    
O16   C4    1.297197 A    
C2    C16   1.501554 S    
O16   Cr1   1.893748 S    
C172  N40   1.157268 T    
N57   O116  1.300503 A    
O5    Cr2   1.998898 S    
C49   O39   1.221649 D    
C8    C22   1.499107 S    
C18   C129  1.419314 A    
N34   O94   1.300605 A    
O20   Cr5   1.896176 S    
N49   O100  1.301289 A    
C34   C46   1.417889 A    
C55   O45   1.221848 D    
N70   O141  1.300544 A    
N50   O102  1.301206 A    
C145  N56   1.435496 S    
C29   C41   1.413907 A    
C116  C128  1.416163 A    
C25   C85   1.419890 A    
C112  C160  1.415085 A    
C70   C82   1.415875 A    
C119  C131  1.413997 A    
Cr1   O25   1.984854 S    
N11   C59   1.384402 Am   
O18   Cr3   1.902220 S    
C28   C88   1.416983 A    
N29   O83   1.300997 A    
C36   C84   1.417654 A    
C29   C89   1.418946 A    
C78   C81   1.419878 A    
C62   C98   1.415354 A    
N51   O103  1.301268 A    
C16   C143  1.419024 A    
C109  C181  1.446800 S    
C32   C92   1.423257 A    
N54   O110  1.300503 A    
O24   C12   1.285252 A    
C133  C145  1.403009 A    
N3    C51   1.376704 Am   
C140  N25   1.432755 S    
N8    C56   1.379373 Am   
O23   C11   1.295112 A    
N9    C165  1.444195 S    
C134  N31   1.433143 S    
Cr5   O26   1.985301 S    
N64   O130  1.301291 A    
C100  N23   1.436373 S    
N18   O62   1.299994 A    
C119  C191  1.447299 S    
N55   O112  1.300838 A    
C122  N62   1.441159 S    
N68   O137  1.301253 A    
C25   C73   1.413872 A    
C23   C124  1.423038 A    
C156  C168  1.409074 A    
C178  N46   1.157382 T    
C54   O44   1.222005 D    
N23   O72   1.301073 A    
C55   C67   1.413575 A    
C171  N39   1.157416 T    
C23   C136  1.417949 A    
C149  N58   1.436489 S    
C121  N61   1.437287 S    
C177  N45   1.156978 T    
C37   O27   1.221472 D    
N2    C158  1.486699 S    
C174  N42   1.157687 T    
C144  N27   1.437006 S    
O4    Cr1   1.998720 S    
N22   O70   1.298814 A    
C184  N76   1.157693 T    
O9    C11   1.302625 A    
C142  N29   1.433359 S    
O6    Cr3   1.999802 S    
C118  C130  1.408332 A    
O10   C12   1.292874 A    
C110  C182  1.449059 S    
C102  C105  1.397759 A    
C140  C152  1.401443 A    
C170  N38   1.157564 T    
C179  N47   1.157399 T    
C71   C107  1.419731 A    
C180  N48   1.157240 T    
N66   O133  1.301114 A    
N58   O118  1.301384 A    
C187  N79   1.156184 T    
C14   C127  1.417447 A    
C169  N37   1.157371 T    
C138  C150  1.404109 A    
C41   N5    1.380421 Am   
N69   O140  1.301300 A    
O9    Cr6   2.006810 S    
C57   O47   1.221583 D    
C59   O49   1.221268 D    
C97   N20   1.437136 S    
C26   C74   1.412107 A    
C73   C80   1.414607 A    
N1    C49   1.380765 Am   
C4    C18   1.496431 S    
C107  N16   1.434086 S    
N5    C161  1.452207 S    
C113  C161  1.412791 A    
C133  N32   1.434300 S    
N15   O56   1.298456 A    
C182  N74   1.157538 T    
O18   C6    1.294245 A    
C44   O34   1.221527 D    
O13   Cr1   1.888735 S    
C120  C168  1.410387 A    
C91   C170  1.454129 S    
C104  N13   1.430782 S    
C97   C104  1.406150 A    
O11   C7    1.289149 A    
C98   C103  1.399414 A    
C22   C125  1.416864 A    
C15   C144  1.422866 A    
O12   C8    1.305405 A    
N59   O120  1.300971 A    
C69   C81   1.419438 A    
N72   O146  1.300932 A    
C17   C130  1.419531 A    
N63   O128  1.301201 A    
Cr3   O25   1.977304 S    
C14   C139  1.411521 A    
N16   O58   1.300793 A    
N17   O60   1.300739 A    
C109  C121  1.414822 A    
C152  C164  1.406614 A    
C35   C83   1.412687 A    
N8    C164  1.451400 S    
C116  C164  1.410828 A    
C51   C63   1.413416 A    
C112  C124  1.409899 A    
C190  N82   1.157591 T    
N21   O68   1.300859 A    
C27   C87   1.422304 A    
C111  C183  1.446036 S    
C49   C61   1.412439 A    
C120  C192  1.447207 S    
C101  N22   1.429476 S    
C134  C146  1.413810 A    
N20   O66   1.300476 A    
C186  N78   1.157407 T    
N12   C168  1.450869 S    
O7    Cr4   2.000323 S    
O22   Cr4   1.890992 S    
N14   O54   1.300639 A    
C151  N50   1.438730 S    
C32   C44   1.415534 A    
C143  N28   1.434179 S    
C7    C21   1.489416 S    
C155  C167  1.410841 A    
C87   C180  1.454155 S    
C88   C179  1.453673 S    
N51   O104  1.301157 A    
N26   O78   1.300208 A    
N56   O114  1.301365 A    
N13   O52   1.300161 A    
C30   C78   1.418633 A    
C15   C132  1.417476 A    
N19   O63   1.300454 A    
N36   O98   1.299016 A    
N61   O123  1.300802 A    
C75   C84   1.418211 A    
C64   C100  1.420263 A    
C125  N65   1.438732 S    
C150  N57   1.437698 S    
C87   C96   1.411025 A    
C139  C151  1.414484 A    
C25   C37   1.415794 A    
N30   O85   1.301238 A    
C112  C184  1.449410 S    
N32   O90   1.300447 A    
N55   O111  1.301217 A    
C149  C161  1.407529 A    
O11   Cr5   2.007462 S    
C57   C69   1.412233 A    
C173  N41   1.157555 T    
C146  C158  1.419069 A    
N60   O122  1.300780 A    
C110  C158  1.422896 A    
C115  C187  1.445781 S    
C63   C99   1.414622 A    
C90   C177  1.454761 S    
C60   O50   1.221300 D    
O1    C3    1.289701 A    
O2    C4    1.289151 A    
C118  C166  1.405912 A    
N53   O107  1.301308 A    
C86   C175  1.454547 S    
C154  N53   1.439129 S    
C119  C167  1.413238 A    
C27   C39   1.417423 A    
C99   C108  1.400967 A    
C60   C72   1.412200 A    
N25   O75   1.300991 A    
