data_mof_unit_51908.cif
_audit_creation_date              2013-03-05T16:02:03-0500
_audit_creation_method            fapswitch 2.2
_symmetry_space_group_name_H-M    P1
_symmetry_Int_Tables_number       1
_space_group_crystal_system       triclinic
_cell_length_a                    6.989906
_cell_length_b                    17.019247
_cell_length_c                    19.993411
_cell_angle_alpha                 108.434636
_cell_angle_beta                  89.467207
_cell_angle_gamma                 90.658489
_cell_volume                      2256.23426182

loop_
_atom_site_label
_atom_site_type_symbol
_atom_site_description
_atom_site_fract_x
_atom_site_fract_y
_atom_site_fract_z
_atom_type_partial_charge
O1    O     O_R   0.494330 0.415720 0.413720 -0.577804
O2    O     O_R   0.819330 0.430070 0.560210 -0.550786
O3    O     O_R   0.994320 0.584280 0.586280 -0.597867
C1    C     C_R   0.649535 0.415428 0.581919 1.026781
O4    O     O_R   0.823730 0.406300 0.412670 -0.547998
O5    O     O_R   0.998760 0.560340 0.437690 -0.582930
C2    C     C_R   0.655424 0.378579 0.388197 0.973209
O6    O     O_R   0.489890 0.439660 0.562310 -0.548445
O7    O     O_3   0.662340 0.550560 0.508380 -0.295895
V1    V     V_3+5 0.935370 0.490620 0.498450 1.289860
O8    O     O_R   0.328750 0.569930 0.439790 -0.589405
C3    C     C_R   0.160909 0.586856 0.420180 0.982577
O9    O     O_R   0.324340 0.593700 0.587330 -0.590326
C4    C     C_R   0.155777 0.615373 0.615310 0.994812
V2    V     V_3+5 0.435940 0.509380 0.501550 1.261310
O10   O     O_3   0.159100 0.449440 0.491620 -0.210472
H1    H     H_    0.156057 0.867854 0.559960 0.178672
C5    C     C_R   0.120036 0.584568 0.754819 0.099930
C6    C     C_R   0.071625 0.572467 0.819482 0.322883
C7    C     C_R   0.008775 0.638900 0.875088 -0.176820
C8    C     C_R   0.020546 0.718757 0.872141 -0.185188
C9    C     C_R   0.085145 0.735385 0.811033 0.089432
C10   C     C_R   0.118215 0.666906 0.748603 -0.007696
C11   C     C_R   0.110439 0.819065 0.811987 -0.229594
C12   C     C_R   0.127821 0.835574 0.745757 -0.044044
C13   C     C_R   0.145011 0.766687 0.682310 0.110930
C14   C     C_R   0.146469 0.683615 0.683684 -0.217303
C15   C     C_R   0.117293 0.917348 0.738801 0.227296
C16   C     C_R   0.126550 0.928439 0.671327 0.332874
C17   C     C_R   0.146279 0.860058 0.611575 -0.227352
C18   C     C_R   0.157031 0.781390 0.616691 -0.217163
H2    H     H_    0.956700 0.629223 0.922662 0.226050
H3    H     H_    0.977754 0.767166 0.919239 0.162483
H4    H     H_    0.172700 0.731805 0.567445 0.103645
C19   C     C_R   0.129149 0.592735 0.297420 0.303576
C20   C     C_R   0.153847 0.634221 0.369818 -0.190713
C21   C     C_R   0.166770 0.721020 0.394309 -0.217002
C22   C     C_R   0.154215 0.767315 0.347373 0.115866
C23   C     C_R   0.134142 0.726252 0.274535 0.038344
C24   C     C_R   0.122658 0.638715 0.249529 0.060895
C25   C     C_R   0.162208 0.854059 0.372213 -0.165800
C26   C     C_R   0.147891 0.900656 0.325891 0.396149
C27   C     C_R   0.127220 0.860558 0.252599 0.071667
C28   C     C_R   0.125804 0.772761 0.226711 -0.040539
C29   C     C_R   0.119240 0.731298 0.153081 -0.023436
C30   C     C_R   0.095814 0.643893 0.129704 0.402830
C31   C     C_R   0.099996 0.599254 0.177279 -0.132713
C32   C     C_R   0.107044 0.905555 0.204550 -0.101752
C33   C     C_R   0.111655 0.865399 0.131426 -0.204177
C34   C     C_R   0.138012 0.778912 0.106359 0.300398
H5    H     H_    0.184294 0.752467 0.450149 0.113547
H6    H     H_    0.179449 0.886035 0.428079 0.188934
H7    H     H_    0.096144 0.972373 0.223249 0.159788
H8    H     H_    0.080354 0.532869 0.156666 0.201953
C35   C     C_R   0.609507 0.216783 0.890647 -0.209289
C36   C     C_R   0.615487 0.129917 0.865669 -0.162237
C37   C     C_R   0.606453 0.088460 0.792091 0.414015
C38   C     C_R   0.610568 0.135159 0.744526 0.034426
C39   C     C_R   0.613737 0.222716 0.770652 0.030919
C40   C     C_R   0.611688 0.263407 0.844012 0.134927
C41   C     C_R   0.619682 0.096421 0.671332 -0.129533
C42   C     C_R   0.628363 0.142396 0.624418 0.398648
C43   C     C_R   0.616377 0.229843 0.649816 -0.105127
C44   C     C_R   0.619389 0.269900 0.723450 0.004124
C45   C     C_R   0.628632 0.357299 0.750086 0.189265
C46   C     C_R   0.623288 0.396799 0.823225 -0.028797
C47   C     C_R   0.613936 0.350330 0.869710 -0.078862
C48   C     C_R   0.601617 0.278703 0.604194 0.335725
C49   C     C_R   0.636274 0.364796 0.630165 -0.203977
C50   C     C_R   0.647987 0.403635 0.703249 -0.126243
H9    H     H_    0.601659 0.248444 0.946708 0.161416
H10   H     H_    0.631153 0.029896 0.649498 0.197313
H11   H     H_    0.665469 0.470388 0.723638 0.126458
H12   H     H_    0.628716 0.463782 0.844528 0.149356
H13   H     H_    0.611834 0.382470 0.925949 0.164421
H14   H     H_    0.788337 0.101197 0.412062 0.265937
C51   C     C_R   0.601311 0.414726 0.259149 -0.221094
C52   C     C_R   0.608136 0.438604 0.198344 0.403155
C53   C     C_R   0.653051 0.379207 0.134269 -0.213028
C54   C     C_R   0.681363 0.296665 0.129937 0.188237
C55   C     C_R   0.643466 0.269175 0.189114 0.041851
C56   C     C_R   0.626508 0.331110 0.256117 0.074454
C57   C     C_R   0.627640 0.183593 0.184281 -0.201256
C58   C     C_R   0.643971 0.160795 0.247300 -0.037605
C59   C     C_R   0.685314 0.225088 0.312638 -0.017391
C60   C     C_R   0.652480 0.310132 0.318601 -0.170197
C61   C     C_R   0.632824 0.076129 0.248240 0.145317
C62   C     C_R   0.670247 0.058045 0.310478 0.345162
C63   C     C_R   0.738487 0.118993 0.368337 -0.124121
C64   C     C_R   0.757714 0.200288 0.369162 0.243135
H15   H     H_    0.580739 0.462809 0.308945 0.175294
H16   H     H_    0.681322 0.398277 0.088288 0.200835
O11   O     O_R   0.775200 0.060470 0.937800 -0.545208
O12   O     O_R   0.441110 0.093720 0.087350 -0.585286
O13   O     O_R   0.266330 0.939630 0.062280 -0.546005
C65   C     C_R   0.611104 0.118792 0.113751 1.035770
O14   O     O_R   0.445750 0.069950 0.939820 -0.550320
O15   O     O_R   0.271000 0.915700 0.913700 -0.552615
C66   C     C_R   0.613483 0.083313 0.917147 1.067376
O16   O     O_R   0.770530 0.084400 0.086380 -0.561817
O17   O     O_3   0.602830 0.949510 0.991680 -0.255701
V3    V     V_3+5 0.329710 0.009370 0.001550 1.317532
O18   O     O_R   0.940990 0.906170 0.912570 -0.608264
C67   C     C_R   0.108029 0.886656 0.882650 1.014675
O19   O     O_R   0.936350 0.929940 0.060100 -0.575993
C68   C     C_R   0.104119 0.915333 0.082077 0.996357
V4    V     V_3+5 0.829160 0.990450 0.998310 1.296347
O20   O     O_3   0.105910 0.050480 0.008320 -0.242276
Br1   Br    Br    0.168916 0.018958 0.366167 -0.409020
Br2   Br    Br    0.268757 0.734410 0.017546 -0.487499
Br3   Br    Br    0.013493 0.580121 0.037515 -0.412260
Br4   Br    Br    0.602417 0.967756 0.756926 -0.539578
Br5   Br    Br    0.202907 0.486172 0.682023 -0.469500
N1    N     N_R   0.688322 0.100662 0.553679 0.258258
O21   O     O_R   0.852772 0.121132 0.532775 -0.302296
O22   O     O_R   0.608207 0.030729 0.518017 -0.320967
Br6   Br    Br    0.481569 0.234067 0.513445 -0.397570
N2    N     N_R   0.588169 0.524270 0.202705 0.239877
O23   O     O_R   0.578094 0.545408 0.145710 -0.364287
O24   O     O_R   0.583941 0.582120 0.263596 -0.402599
Br7   Br    Br    0.843413 0.238238 0.052855 -0.534846
N3    N     N_R   0.098168 0.494330 0.831534 0.251097
O25   O     O_R   0.191529 0.491668 0.886701 -0.328448
O26   O     O_R   0.028758 0.425908 0.788730 -0.373731
Br8   Br    Br    0.573534 0.978952 0.170131 -0.464409
Br9   Br    Br    0.654982 0.947947 0.318258 -0.430473
Br10  Br    Br    0.935178 0.261582 0.439695 -0.371849
N4    N     N_R   0.099563 0.989605 0.798938 0.237113
O27   O     O_R   0.248894 0.015246 0.836804 -0.377919
O28   O     O_R   0.972285 0.044580 0.800364 -0.375350
N5    N     N_R   0.118903 0.009094 0.662224 0.254110
O29   O     O_R   0.049740 0.016880 0.604473 -0.339320
O30   O     O_R   0.203707 0.072720 0.706200 -0.340081
Br11  Br    Br    0.107062 0.473081 0.265527 -0.562128

loop_
_geom_bond_atom_site_label_1
_geom_bond_atom_site_label_2
_geom_bond_distance
_ccdc_geom_bond_type
O17   V4    1.710559 S    
C24   C31   1.396785 A    
C61   C62   1.400598 A    
C6    N3    1.438792 S    
O17   V3    2.152205 S    
C25   C26   1.401688 A    
C19   C20   1.406766 A    
C58   C61   1.448188 A    
C1    O6    1.300000 A    
N4    O27   1.283901 A    
C55   C56   1.423596 A    
C16   N5    1.442271 S    
C59   C60   1.435186 A    
C12   C15   1.444517 A    
O19   V4    1.996924 S    
C15   C16   1.420856 A    
C13   C14   1.422903 A    
C42   C43   1.415623 A    
C51   C56   1.418055 A    
C8    C9    1.407884 A    
C20   C21   1.403736 A    
C52   N2    1.441116 S    
C26   Br1   1.921941 S    
C42   N1    1.428614 S    
O5    C3    1.300614 A    
C17   C18   1.377595 A    
C21   H5    1.082146 S    
C37   Br4   1.949566 S    
C8    H3    1.079225 S    
V2    O10   2.158315 S    
C46   H12   1.083828 S    
C34   Br2   1.922773 S    
C36   C37   1.417793 A    
C19   Br11  1.936701 S    
C5    C6    1.409619 A    
N2    O23   1.301621 A    
C62   Br9   1.930322 S    
O14   C66   1.296543 A    
C43   C48   1.420405 A    
O8    V2    1.996941 S    
C6    C7    1.383727 A    
C40   C47   1.404155 A    
C48   C49   1.410040 A    
C64   Br10  1.920424 S    
V3    O20   1.707729 S    
O1    V2    2.005598 S    
C10   C14   1.425450 A    
C4    C14   1.489253 S    
C3    C20   1.476929 S    
C27   C32   1.414047 A    
O11   C66   1.311383 A    
C25   H6    1.083900 S    
O14   V3    2.002770 S    
O13   V3    1.992158 S    
C51   C52   1.398667 A    
H14   C63   1.073763 S    
C35   C40   1.402351 A    
C62   C63   1.371735 A    
C38   C41   1.403323 A    
C46   C47   1.398597 A    
C15   N4    1.427908 S    
C13   C18   1.412792 A    
O9    C4    1.305556 A    
H1    C17   1.082726 S    
C41   C42   1.399191 A    
C50   H11   1.084724 S    
C5    Br5   1.929607 S    
C1    C49   1.484534 S    
C55   C57   1.431986 A    
N1    O21   1.300513 A    
C54   Br7   1.916026 S    
C32   H7    1.082292 S    
C5    C10   1.445648 A    
C58   C59   1.443282 A    
C22   C25   1.401497 A    
C23   C24   1.415235 A    
O4    C2    1.303058 A    
C52   C53   1.393703 A    
C12   C13   1.434550 A    
C56   C60   1.417359 A    
C53   C54   1.396152 A    
C11   C67   1.513835 S    
C21   C22   1.407063 A    
O2    C1    1.308102 A    
C27   C28   1.418220 A    
C16   C17   1.386331 A    
O13   C68   1.302940 A    
C48   Br6   1.927464 S    
C57   C58   1.436654 A    
V4    O20   2.158341 S    
C35   C36   1.403891 A    
C39   C44   1.419486 A    
C18   H4    1.080837 S    
C11   C12   1.441759 A    
O12   C65   1.315358 A    
C53   H16   1.083223 S    
C33   C68   1.493573 S    
O3    C4    1.301839 A    
C31   H8    1.080838 S    
C41   H10   1.080610 S    
C32   C33   1.404728 A    
C45   C46   1.403383 A    
O6    V2    1.989063 S    
O9    V2    2.013343 S    
C9    C11   1.427229 A    
C47   H13   1.083792 S    
C26   C27   1.415322 A    
N3    O26   1.299341 A    
N5    O29   1.301179 A    
O2    V1    2.002872 S    
C61   Br8   1.925787 S    
C28   C29   1.417980 A    
O18   V4    2.013166 S    
C7    H2    1.074997 S    
C30   C31   1.393152 A    
C51   H15   1.079969 S    
O16   V4    2.011493 S    
O1    C2    1.315135 A    
C54   C55   1.424887 A    
N5    O30   1.299938 A    
N4    O28   1.292085 A    
O5    V1    1.992382 S    
N1    O22   1.301520 A    
C59   C64   1.424294 A    
C23   C28   1.423030 A    
O19   C68   1.309750 A    
C44   C45   1.413438 A    
C19   C24   1.416602 A    
C38   C39   1.414583 A    
O4    V1    2.013029 S    
O3    V1    2.005584 S    
O15   V3    2.005580 S    
O11   V4    1.989125 S    
C37   C38   1.419117 A    
C22   C23   1.409504 A    
C29   C34   1.421444 A    
O15   C67   1.316637 A    
C57   C65   1.494887 S    
C65   O16   1.298066 A    
O7    V1    2.152184 S    
O7    V2    1.712365 S    
C49   C50   1.403146 A    
N2    O24   1.301647 A    
C43   C44   1.413530 A    
C2    C60   1.506138 S    
C29   C30   1.419234 A    
C39   C40   1.410138 A    
C7    C8    1.380341 A    
O12   V3    2.012857 S    
C33   C34   1.410570 A    
O18   C67   1.304485 A    
N3    O25   1.300050 A    
C9    C10   1.431970 A    
V1    O10   1.707679 S    
C36   C66   1.484704 S    
C63   C64   1.383450 A    
C30   Br3   1.909589 S    
C35   H9    1.080390 S    
C45   C50   1.406886 A    
O8    C3    1.304161 A    
