data_mof_unit_45478.cif
_audit_creation_date              2012-12-11T15:16:40-0500
_audit_creation_method            fapswitch 2.2
_symmetry_space_group_name_H-M    P1
_symmetry_Int_Tables_number       1
_space_group_crystal_system       triclinic
_cell_length_a                    25.154502
_cell_length_b                    7.222899
_cell_length_c                    21.935703
_cell_angle_alpha                 90.000518
_cell_angle_beta                  110.230967
_cell_angle_gamma                 89.999724
_cell_volume                      3739.58524002

loop_
_atom_site_label
_atom_site_type_symbol
_atom_type_description
_atom_site_fract_x
_atom_site_fract_y
_atom_site_fract_z
_atom_type_partial_charge
O1    O     O_R   0.554350 0.505270 0.581390 -0.530259
O2    O     O_R   0.445650 0.005270 0.418610 -0.530261
O3    O     O_R   0.553380 0.177580 0.454800 -0.543922
O4    O     O_R   0.446620 0.677580 0.545200 -0.543924
C1    C     C_R   0.566588 0.345046 0.439178 0.690102
C2    C     C_R   0.433414 0.845048 0.560823 0.690122
O5    O     O_R   0.560970 0.175640 0.583140 -0.538831
O6    O     O_R   0.439030 0.675640 0.416860 -0.538843
O7    O     O_R   0.453290 0.004120 0.547860 -0.511505
O8    O     O_R   0.546710 0.504120 0.452140 -0.511512
C3    C     C_R   0.575846 0.344063 0.607784 0.676231
C4    C     C_R   0.424153 0.844062 0.392216 0.676240
O9    O     O_3   0.464660 0.338800 0.488280 -0.366256
O10   O     O_3   0.535340 0.838800 0.511720 -0.366239
V1    V     V_3+5 0.506560 0.064420 0.502170 1.432365
V2    V     V_3+5 0.493440 0.564420 0.497830 1.432343
C5    C     C_R   0.146900 0.859471 0.286913 -0.205452
C6    C     C_R   0.853096 0.359435 0.713091 -0.205457
H1    H     H_    0.230966 0.805920 0.397505 0.125681
H2    H     H_    0.769032 0.305856 0.602502 0.125681
H3    H     H_    0.134319 0.829272 0.328420 0.124970
H4    H     H_    0.865677 0.329222 0.671585 0.124971
C7    C     C_R   0.120846 0.933164 0.172507 -0.108791
C8    C     C_R   0.879152 0.433159 0.827495 -0.108792
C9    C     C_R   0.399957 0.859204 0.271898 0.296251
C10   C     C_R   0.600037 0.359247 0.728101 0.296242
C11   C     C_R   0.360075 0.862616 0.209092 -0.155734
C12   C     C_R   0.639918 0.362671 0.790910 -0.155717
C13   C     C_R   0.302333 0.871003 0.198408 -0.204689
C14   C     C_R   0.697661 0.371032 0.801595 -0.204714
C15   C     C_R   0.281655 0.880904 0.250470 0.095966
C16   C     C_R   0.718341 0.380900 0.749534 0.095969
C17   C     C_R   0.321906 0.857121 0.314739 0.026522
C18   C     C_R   0.678091 0.357104 0.685265 0.026531
C19   C     C_R   0.222103 0.899121 0.240708 0.046815
C20   C     C_R   0.777894 0.399106 0.759296 0.046813
C21   C     C_R   0.204509 0.863964 0.294588 0.054989
C22   C     C_R   0.795488 0.363929 0.705417 0.054993
C23   C     C_R   0.244423 0.831460 0.356336 -0.169695
C24   C     C_R   0.755574 0.331411 0.643670 -0.169702
C25   C     C_R   0.302005 0.831472 0.366493 -0.190696
C26   C     C_R   0.697993 0.331429 0.633513 -0.190708
C27   C     C_R   0.179157 0.950788 0.180262 0.167292
C28   C     C_R   0.820841 0.450782 0.819742 0.167299
C29   C     C_R   0.105062 0.886594 0.226098 0.168135
C30   C     C_R   0.894935 0.386574 0.773904 0.168134
C31   C     C_R   0.381246 0.852403 0.325650 -0.155352
C32   C     C_R   0.618751 0.352407 0.674352 -0.155362
H5    H     H_    0.274834 0.858657 0.148604 0.177963
H6    H     H_    0.725158 0.358701 0.851400 0.177960
H7    H     H_    0.373966 0.855167 0.167599 0.139020
H8    H     H_    0.626025 0.355264 0.832402 0.138991
H9    H     H_    0.330822 0.803167 0.415115 0.100763
H10   H     H_    0.669176 0.303116 0.584890 0.100777
C33   C     C_R   0.106421 0.777151 0.865117 -0.211844
C34   C     C_R   0.893555 0.277124 0.134858 -0.211821
H11   H     H_    0.078440 0.663337 0.865310 0.152756
H12   H     H_    0.921519 0.163277 0.134646 0.152746
C35   C     C_R   0.141349 0.761052 0.827246 0.205235
C36   C     C_R   0.858621 0.261024 0.172724 0.205280
C37   C     C_R   0.177222 0.908879 0.824638 -0.116160
C38   C     C_R   0.822771 0.408889 0.175357 -0.116243
C39   C     C_R   0.178462 0.070192 0.862038 0.256356
C40   C     C_R   0.821553 0.570241 0.137987 0.256399
C41   C     C_R   0.143092 0.085345 0.899551 0.173854
C42   C     C_R   0.856924 0.585391 0.100473 0.173863
C43   C     C_R   0.105871 0.938260 0.900981 -0.193180
C44   C     C_R   0.894127 0.438268 0.099019 -0.193184
N1    N     N_R   0.213450 0.030384 0.741038 -0.303644
N2    N     N_R   0.786677 0.530109 0.259105 -0.303729
N3    N     N_R   0.246481 0.019615 0.705031 -0.290835
N4    N     N_R   0.753649 0.519327 0.295117 -0.290847
C45   C     C_R   0.280625 0.870795 0.709304 0.521507
C46   C     C_R   0.719378 0.370755 0.290697 0.521558
N5    N     N_R   0.279741 0.731926 0.750859 -0.292950
N6    N     N_R   0.720132 0.232137 0.248991 -0.292970
N7    N     N_R   0.246764 0.743062 0.787119 -0.243757
N8    N     N_R   0.753103 0.243290 0.212725 -0.243786
C47   C     C_R   0.213332 0.893638 0.783402 0.549917
C48   C     C_R   0.786659 0.393636 0.216586 0.549936
C49   C     C_R   0.348688 0.701780 0.667122 -0.148259
C50   C     C_R   0.651300 0.201776 0.332861 -0.148234
H13   H     H_    0.344411 0.578029 0.692911 0.143512
H14   H     H_    0.655567 0.078037 0.307060 0.143476
C51   C     C_R   0.384947 0.697954 0.630963 -0.242008
C52   C     C_R   0.615046 0.197951 0.369027 -0.242009
H15   H     H_    0.408211 0.572333 0.630874 0.141147
H16   H     H_    0.591777 0.072333 0.369111 0.141166
C53   C     C_R   0.392659 0.854838 0.596881 -0.070138
C54   C     C_R   0.607346 0.354827 0.403124 -0.070150
C55   C     C_R   0.362029 0.018379 0.599446 0.283185
C56   C     C_R   0.637993 0.518345 0.400577 0.283199
C57   C     C_R   0.325802 0.020331 0.636043 -0.204862
C58   C     C_R   0.674222 0.520284 0.363980 -0.204868
H17   H     H_    0.303223 0.146829 0.637771 0.140716
H18   H     H_    0.696814 0.646761 0.362264 0.140688
C59   C     C_R   0.318666 0.863251 0.670176 -0.003456
C60   C     C_R   0.681338 0.363222 0.329825 -0.003456
O11   O     O_R   0.953220 0.285790 0.047790 -0.530243
O12   O     O_R   0.046780 0.785790 0.952210 -0.530243
O13   O     O_R   0.939020 0.617570 0.916840 -0.532408
O14   O     O_R   0.060980 0.117570 0.083160 -0.532408
C61   C     C_R   0.924126 0.448053 0.892352 0.732049
C62   C     C_R   0.075873 0.948055 0.107649 0.732041
O15   O     O_R   0.946600 0.615450 0.045180 -0.546209
O16   O     O_R   0.053400 0.115450 0.954820 -0.546211
O17   O     O_R   0.054370 0.786770 0.081410 -0.539301
O18   O     O_R   0.945630 0.286770 0.918590 -0.539300
C63   C     C_R   0.933673 0.447347 0.061125 0.699751
C64   C     C_R   0.066327 0.947345 0.938876 0.699753
O19   O     O_3   0.035300 0.454160 0.011680 -0.374917
O20   O     O_3   0.964700 0.954160 0.988320 -0.374919
V3    V     V_3+5 0.993450 0.728620 0.997830 1.400367
V4    V     V_3+5 0.006550 0.228620 0.002170 1.400372
N9    N     N_3   0.046087 0.872382 0.218680 -0.679781
H19   H     H_    0.041288 0.857809 0.263921 0.228217
H20   H     H_    0.030416 0.750728 0.192905 0.227817
N10   N     N_3   0.953910 0.372362 0.781321 -0.679791
H21   H     H_    0.958708 0.357789 0.736079 0.228209
H22   H     H_    0.969582 0.250708 0.807095 0.227822
N11   N     N_3   0.139530 0.595780 0.790024 -0.620336
H23   H     H_    0.120221 0.629903 0.740973 0.227413
H24   H     H_    0.114037 0.495098 0.800445 0.236458
N12   N     N_3   0.860405 0.095701 0.209908 -0.620156
H25   H     H_    0.879706 0.129740 0.258968 0.227377
H26   H     H_    0.885892 0.995011 0.199479 0.236557
N13   N     N_2   0.216363 0.218914 0.864506 -0.470934
H27   H     H_    0.215199 0.269890 0.820281 0.301134
C65   C     C_3   0.273028 0.193793 0.910535 -0.469654
H28   H     H_    0.298050 0.321826 0.912731 0.205772
H29   H     H_    0.294332 0.076822 0.895413 0.180965
H30   H     H_    0.271645 0.166218 0.959804 0.202541
N14   N     N_2   0.783658 0.718971 0.135535 -0.470876
H31   H     H_    0.784679 0.769510 0.179768 0.300960
C66   C     C_3   0.727059 0.694183 0.089291 -0.469613
H32   H     H_    0.702013 0.822108 0.087202 0.205752
H33   H     H_    0.705684 0.576835 0.104128 0.180839
H34   H     H_    0.728594 0.667338 0.040035 0.202679
N15   N     N_3   0.147153 0.251883 0.936575 -0.620177
H35   H     H_    0.109427 0.326537 0.917599 0.244067
H36   H     H_    0.154845 0.217793 0.985161 0.226848
N16   N     N_3   0.852882 0.751967 0.063475 -0.620283
H37   H     H_    0.890620 0.826560 0.082457 0.244071
H38   H     H_    0.845178 0.717930 0.014881 0.226831
N17   N     N_2   0.367878 0.183602 0.566921 -0.509397
H39   H     H_    0.362909 0.302021 0.590542 0.242522
C67   C     C_3   0.333657 0.189680 0.498743 -0.481095
H40   H     H_    0.340492 0.323621 0.477687 0.194410
H41   H     H_    0.287984 0.176542 0.492235 0.176538
H42   H     H_    0.346126 0.077296 0.472210 0.190009
N18   N     N_2   0.632163 0.683560 0.433121 -0.509397
H43   H     H_    0.637150 0.801990 0.409516 0.242548
C68   C     C_3   0.666383 0.689572 0.501297 -0.481194
H44   H     H_    0.659592 0.823564 0.522356 0.194384
H45   H     H_    0.712052 0.676254 0.507810 0.176567
H46   H     H_    0.653877 0.577268 0.527821 0.190063
N19   N     N_2   0.193901 0.034921 0.129533 -0.544666
H47   H     H_    0.167427 0.005417 0.082950 0.235714
C69   C     C_3   0.207885 0.229454 0.139527 -0.517261
H48   H     H_    0.242270 0.251610 0.186991 0.210447
H49   H     H_    0.222939 0.280269 0.100566 0.192161
H50   H     H_    0.169902 0.310433 0.138108 0.200907
N20   N     N_2   0.806098 0.534921 0.870472 -0.544675
H51   H     H_    0.832574 0.505423 0.917054 0.235719
C70   C     C_3   0.792115 0.729452 0.860477 -0.517300
H52   H     H_    0.757723 0.751600 0.813018 0.210460
H53   H     H_    0.777068 0.780277 0.899444 0.192094
H54   H     H_    0.830094 0.810429 0.861887 0.200919
N21   N     N_2   0.458622 0.850467 0.279607 -0.525499
H55   H     H_    0.485274 0.794334 0.322487 0.254368
C71   C     C_3   0.481246 0.016322 0.260731 -0.531159
H56   H     H_    0.525117 0.989391 0.262237 0.197628
H57   H     H_    0.481843 0.131312 0.294651 0.193225
H58   H     H_    0.455683 0.057806 0.210344 0.202845
N22   N     N_2   0.541370 0.350569 0.720386 -0.525492
H59   H     H_    0.514714 0.294501 0.677497 0.254381
C72   C     C_3   0.518763 0.516435 0.739277 -0.531213
H60   H     H_    0.474861 0.489649 0.737689 0.197581
H61   H     H_    0.518251 0.631502 0.705426 0.193264
H62   H     H_    0.544285 0.557698 0.789696 0.202865

loop_
_geom_bond_atom_site_label_1
_geom_bond_atom_site_label_2
_ccdc_geom_bond_type
C35   N11   S    
C66   H34   S    
C42   C44   A    
C71   H56   S    
C39   C41   A    
O12   C64   A    
C70   H52   S    
C7    C29   A    
C33   C35   A    
C11   C13   A    
C50   C60   A    
N21   H55   S    
N20   H51   S    
O1    C3    A    
O2    C4    A    
O11   V4    S    
N17   H39   S    
C66   H32   S    
C23   C25   A    
C13   H5    S    
C45   C59   S    
C71   H57   S    
N19   H47   S    
C46   N6    A    
O16   V4    S    
C39   N13   S    
C16   C20   A    
O15   V3    S    
N20   C70   S    
C5    C29   A    
C69   H48   S    
H2    C24   S    
N8    C48   A    
C58   C60   A    
C9    N21   S    
N9    H19   S    
O11   C63   A    
C7    C27   A    
C33   C43   A    
C30   N10   S    
C37   C39   A    
O6    V2    S    
O18   V4    S    
N1    N3    A    
N10   H21   S    
O17   V3    S    
C38   C40   A    
N17   C67   S    
C67   H40   S    
N9    H20   S    
C18   C26   A    
N18   H43   S    
C69   H49   S    
C61   O18   A    
C28   N20   S    
C53   C55   A    
C19   C27   A    
C9    C31   A    
C1    C54   S    
C10   C32   A    
O3    C1    A    
C65   H30   S    
C51   H15   S    
C14   H6    S    
C72   H61   S    
C57   H17   S    
C22   C24   A    
C13   C15   A    
C45   N5    A    
C3    C32   S    
C2    O7    A    
C4    C31   S    
C6    C30   A    
C56   C58   A    
O20   V3    S    
C49   H13   S    
C11   H7    S    
N7    C47   A    
C71   H58   S    
C35   C37   A    
N2    N4    A    
N2    C48   A    
C67   H42   S    
N22   C72   S    
C52   C54   A    
N3    C45   A    
C51   C53   A    
C12   H8    S    
O5    V1    S    
C41   C43   A    
C34   C44   A    
C5    H3    S    
C34   C36   A    
C40   C42   A    
O4    V2    S    
O5    C3    A    
N13   C65   S    
O14   V4    S    
C55   C57   A    
C29   N9    S    
C43   C64   S    
C54   C56   A    
N22   H59   S    
O10   V1    S    
O6    C4    A    
C72   H62   S    
C56   N18   S    
C15   C17   A    
C69   H50   S    
O1    V2    S    
C5    C21   A    
C68   H46   S    
C58   H18   S    
O2    V1    S    
N5    N7    A    
C25   H9    S    
N11   H23   S    
H1    C23   S    
N4    C46   A    
C70   H54   S    
C50   H14   S    
C33   H11   S    
N14   H31   S    
C17   C31   A    
N16   H38   S    
N1    C47   A    
O4    C2    A    
C68   H45   S    
N13   H27   S    
C57   C59   A    
C55   N17   S    
O3    V1    S    
N12   H26   S    
C65   H28   S    
O16   C64   A    
C38   C48   S    
C66   H33   S    
O15   C63   A    
C40   N14   S    
C46   C60   S    
C19   C21   A    
C6    H4    S    
O12   V3    S    
N6    N8    A    
C27   N19   S    
N19   C69   S    
N15   H35   S    
C36   N12   S    
C42   N16   S    
C9    C11   A    
C2    C53   S    
C67   H41   S    
C10   C12   A    
O13   C61   A    
O14   C62   A    
C8    C61   S    
C8    C30   A    
C12   C14   A    
C6    C22   A    
C17   C25   A    
C1    O8    A    
C21   C23   A    
C50   C52   A    
C26   H10   S    
C36   C38   A    
C14   C16   A    
N15   H36   S    
C49   C59   A    
C10   N22   S    
C37   C47   S    
C8    C28   A    
C15   C19   A    
C24   C26   A    
C34   H12   S    
O19   V4    S    
C52   H16   S    
C44   C63   S    
N18   C68   S    
C7    C62   S    
O7    V1    S    
O13   V3    S    
N10   H22   S    
N11   H24   S    
C20   C28   A    
C20   C22   A    
C41   N15   S    
C18   C32   A    
C70   H53   S    
C72   H60   S    
O9    V2    S    
N14   C66   S    
N16   H37   S    
O8    V2    S    
C68   H44   S    
C62   O17   A    
C49   C51   A    
C16   C18   A    
N12   H25   S    
C65   H29   S    
N21   C71   S    
