data_mof_unit_61390.cif
_audit_creation_date              2012-12-10T16:53:53-0500
_audit_creation_method            fapswitch 2.2
_symmetry_space_group_name_H-M    P1
_symmetry_Int_Tables_number       1
_space_group_crystal_system       triclinic
_cell_length_a                    30.17604
_cell_length_b                    30.906403
_cell_length_c                    21.535487
_cell_angle_alpha                 89.998473
_cell_angle_beta                  134.862943
_cell_angle_gamma                 89.99242
_cell_volume                      14235.9610899

loop_
_atom_site_label
_atom_site_type_symbol
_atom_type_description
_atom_site_fract_x
_atom_site_fract_y
_atom_site_fract_z
_atom_type_partial_charge
Br1   Br    Br    0.190436 0.737045 0.270239 -0.502990
Br2   Br    Br    0.808504 0.760959 0.728805 -0.444008
Br3   Br    Br    0.691204 0.257735 0.271139 -0.501104
Br4   Br    Br    0.308955 0.240012 0.728805 -0.502013
Br5   Br    Br    0.212131 0.745415 0.656062 -0.471494
Br6   Br    Br    0.787940 0.745501 0.343956 -0.468158
Br7   Br    Br    0.711533 0.245612 0.655490 -0.474638
Br8   Br    Br    0.288242 0.245600 0.344275 -0.476468
C1    C     C_R   0.307687 0.809182 0.119241 0.779143
C2    C     C_R   0.477210 0.670881 0.000684 -0.185636
C3    C     C_R   0.317574 0.195356 0.264819 -0.207246
C4    C     C_R   0.171587 0.700142 0.661005 0.321410
C5    C     C_R   0.828444 0.700187 0.338998 0.320157
C6    C     C_R   0.671201 0.200256 0.660655 0.321000
C7    C     C_R   0.328651 0.200256 0.339208 0.319394
C8    C     C_R   0.130767 0.672225 0.590230 -0.146602
C9    C     C_R   0.869268 0.672261 0.409781 -0.142790
C10   C     C_R   0.630383 0.172316 0.589924 -0.149599
C11   C     C_R   0.369481 0.172321 0.409973 -0.144129
C12   C     C_R   0.102686 0.638311 0.594753 -0.225391
C13   C     C_R   0.022587 0.170886 0.998876 -0.188050
C14   C     C_R   0.897330 0.638326 0.405252 -0.226582
C15   C     C_R   0.602456 0.138343 0.594600 -0.225769
C16   C     C_R   0.397471 0.138361 0.405370 -0.225525
C17   C     C_R   0.115115 0.631691 0.670853 0.096621
C18   C     C_R   0.884886 0.631699 0.329143 0.095154
C19   C     C_R   0.615036 0.131688 0.670813 0.097190
C20   C     C_R   0.384953 0.131718 0.329205 0.094682
C21   C     C_R   0.152710 0.662118 0.740034 0.048062
C22   C     C_R   0.847289 0.662129 0.259955 0.048619
C23   C     C_R   0.652618 0.162134 0.739954 0.045877
C24   C     C_R   0.977286 0.170884 0.000830 -0.189307
C25   C     C_R   0.347350 0.162153 0.260027 0.048070
C26   C     C_R   0.160211 0.657962 0.812579 -0.078604
C27   C     C_R   0.839790 0.657966 0.187416 -0.077912
C28   C     C_R   0.660251 0.157940 0.812608 -0.080499
C29   C     C_R   0.339773 0.157964 0.187420 -0.078200
C30   C     C_R   0.133907 0.622953 0.818213 -0.178942
C31   C     C_R   0.866102 0.622953 0.181791 -0.187467
C32   C     C_R   0.634163 0.122839 0.818434 -0.177970
C33   C     C_R   0.366005 0.122919 0.181724 -0.187650
C34   C     C_R   0.099527 0.592173 0.752468 -0.186528
C35   C     C_R   0.476505 0.828497 0.999310 -0.186086
C36   C     C_R   0.900478 0.592167 0.247538 -0.189837
C37   C     C_R   0.599819 0.092033 0.752736 -0.190686
C38   C     C_R   0.400389 0.092133 0.247470 -0.191155
C39   C     C_R   0.164341 0.750125 0.000022 0.793424
C40   C     C_R   0.835492 0.750214 0.999850 0.786124
C41   C     C_R   0.664432 0.250150 0.000077 0.794490
C42   C     C_R   0.335552 0.250192 0.999844 0.789748
C43   C     C_R   0.090384 0.595906 0.679429 -0.084848
C44   C     C_R   0.909610 0.595904 0.320567 -0.084271
C45   C     C_R   0.590467 0.095844 0.679535 -0.085317
C46   C     C_R   0.523784 0.828495 0.001322 -0.186036
C47   C     C_R   0.409606 0.095899 0.320565 -0.084261
C48   C     C_R   0.941801 0.560645 0.383846 0.769402
C49   C     C_R   0.058196 0.560646 0.616154 0.769630
C50   C     C_R   0.441800 0.060643 0.383844 0.769960
C51   C     C_R   0.558236 0.060612 0.616222 0.755177
C52   C     C_R   0.441548 0.939590 0.383381 0.790489
C53   C     C_R   0.560789 0.941755 0.621198 0.773672
C54   C     C_R   0.941476 0.439725 0.383179 0.771102
C55   C     C_R   0.058462 0.439643 0.616680 0.770918
C56   C     C_R   0.594356 0.789019 0.002953 -0.212144
C57   C     C_R   0.976435 0.328499 0.999167 -0.186832
C58   C     C_R   0.405791 0.789024 0.997372 -0.210048
C59   C     C_R   0.094317 0.289024 0.002871 -0.211732
C60   C     C_R   0.905759 0.289025 0.997306 -0.211574
C61   C     C_R   0.615942 0.749726 0.999894 -0.055396
C62   C     C_R   0.384065 0.749725 0.000127 -0.053260
C63   C     C_R   0.115942 0.249730 0.999890 -0.053871
C64   C     C_R   0.884068 0.249726 0.000131 -0.053490
C65   C     C_R   0.591434 0.710392 0.997021 -0.224262
C66   C     C_R   0.408430 0.710385 0.002700 -0.222789
C67   C     C_R   0.091473 0.210394 0.997094 -0.224796
C68   C     C_R   0.023711 0.328499 0.001173 -0.186839
C69   C     C_R   0.908470 0.210388 0.002774 -0.225916
C70   C     C_R   0.545850 0.710063 0.998517 0.112480
C71   C     C_R   0.454013 0.710059 0.001200 0.112650
C72   C     C_R   0.045890 0.210065 0.998592 0.113366
C73   C     C_R   0.954053 0.210062 0.001276 0.113931
C74   C     C_R   0.523306 0.749684 0.000017 0.067461
C75   C     C_R   0.476699 0.749684 0.000005 0.067166
C76   C     C_R   0.023309 0.249687 0.000018 0.066983
C77   C     C_R   0.976703 0.249686 0.000009 0.067044
C78   C     C_2   0.076279 0.741884 0.245322 0.906448
C79   C     C_R   0.323256 0.802509 0.270488 -0.164179
C80   C     C_2   0.923281 0.761762 0.754639 0.906956
C81   C     C_2   0.576511 0.259761 0.245224 0.907128
C82   C     C_2   0.423323 0.243651 0.754025 0.908027
C83   C     C_R   0.761700 0.879288 0.889085 -0.153425
C84   C     C_R   0.828465 0.300768 0.275403 -0.161073
C85   C     C_R   0.692223 0.809240 0.880993 0.774545
C86   C     C_R   0.174106 0.301624 0.726966 -0.163499
C87   C     C_R   0.337561 0.796782 0.347240 -0.091209
C88   C     C_R   0.793916 0.915506 0.899451 -0.116003
C89   C     C_R   0.845751 0.294233 0.354204 -0.088414
C90   C     C_R   0.158279 0.295477 0.649147 -0.094092
C91   C     C_R   0.377645 0.825383 0.416753 -0.125114
C92   C     C_R   0.761160 0.951025 0.844467 -0.126455
C93   C     C_R   0.886129 0.323002 0.423285 -0.111013
C94   C     C_R   0.117788 0.324055 0.579683 -0.113327
C95   C     C_R   0.402173 0.860655 0.408950 -0.168481
C96   C     C_R   0.807553 0.309182 0.119319 0.779019
C97   C     C_R   0.696099 0.949908 0.776753 -0.162778
C98   C     C_R   0.907961 0.359226 0.413090 -0.175850
C99   C     C_R   0.094496 0.359774 0.588619 -0.175826
C100  C     C_R   0.387169 0.867770 0.330962 0.100912
C101  C     C_R   0.662456 0.912805 0.762665 0.098337
C102  C     C_R   0.890044 0.367031 0.333146 0.091997
C103  C     C_R   0.111159 0.367312 0.667733 0.092009
C104  C     C_R   0.349835 0.836971 0.262451 0.093202
C105  C     C_R   0.695572 0.878011 0.822791 0.095995
C106  C     C_R   0.852505 0.336126 0.264872 0.094338
C107  C     C_R   0.192391 0.309180 0.880716 0.778450
C108  C     C_R   0.148721 0.336504 0.736215 0.094920
C109  C     C_R   0.339586 0.842023 0.187617 -0.094216
C110  C     C_R   0.661610 0.842719 0.814205 -0.091963
C111  C     C_R   0.839562 0.342013 0.187913 -0.096778
C112  C     C_R   0.160411 0.342013 0.812200 -0.095668
C113  C     C_R   0.335642 0.749850 0.000005 0.793963
C114  C     C_R   0.664361 0.749852 0.000001 0.791704
C115  C     C_R   0.835643 0.249851 0.000007 0.794150
C116  C     C_R   0.164360 0.249854 0.999998 0.793564
C117  C     C_R   0.363182 0.878106 0.179597 -0.187397
C118  C     C_R   0.547328 0.789314 0.001527 0.109856
C119  C     C_R   0.596639 0.840861 0.744199 -0.184866
C120  C     C_R   0.860731 0.379013 0.177922 -0.189830
C121  C     C_R   0.138060 0.378578 0.821236 -0.189905
C122  C     C_R   0.397544 0.909030 0.245039 -0.190731
C123  C     C_R   0.564475 0.873982 0.683222 -0.191769
C124  C     C_R   0.895124 0.410021 0.243180 -0.191015
C125  C     C_R   0.103661 0.409540 0.755865 -0.190257
C126  C     C_R   0.409258 0.904441 0.320042 -0.092792
C127  C     C_R   0.596614 0.909720 0.691254 -0.093780
C128  C     C_R   0.909390 0.404585 0.320017 -0.093103
C129  C     C_R   0.452819 0.789317 0.998802 0.110935
C130  C     C_R   0.090575 0.404477 0.679865 -0.094925
C131  C     C_R   0.866751 0.753408 0.920800 -0.176737
C132  C     C_R   0.132281 0.744574 0.078198 -0.176245
C133  C     C_R   0.367009 0.247551 0.920752 -0.174244
C134  C     C_R   0.633014 0.250133 0.079134 -0.174294
C135  C     C_R   0.883654 0.750707 0.999782 -0.084159
C136  C     C_R   0.115899 0.750278 0.999915 -0.084512
C137  C     C_R   0.383785 0.250609 0.999675 -0.082185
C138  C     C_R   0.616123 0.250321 0.999997 -0.078960
C139  C     C_R   0.946266 0.748479 0.078815 -0.176907
C140  C     C_R   0.047292 0.289319 0.001450 0.110616
C141  C     C_R   0.053521 0.755976 0.921547 -0.174124
C142  C     C_R   0.446384 0.253970 0.078547 -0.173619
C143  C     C_R   0.553408 0.250472 0.920796 -0.174095
C144  C     C_R   0.993591 0.748180 0.080418 -0.001697
C145  C     C_R   0.005980 0.754761 0.919521 -0.001760
C146  C     C_R   0.493751 0.253874 0.080224 -0.002370
C147  C     C_R   0.506072 0.248905 0.919147 -0.001650
C148  C     C_R   0.976422 0.751040 0.999873 0.015598
C149  C     C_R   0.022967 0.750431 0.999744 0.016074
C150  C     C_R   0.476612 0.250891 0.999725 0.015851
C151  C     C_R   0.952787 0.289319 0.998733 0.110504
C152  C     C_R   0.523255 0.250348 0.999790 0.015016
C153  C     C_R   0.912519 0.754289 0.919429 0.050851
C154  C     C_R   0.086672 0.745564 0.079870 0.055220
C155  C     C_R   0.412689 0.248203 0.919196 0.056509
C156  C     C_R   0.587254 0.251367 0.080499 0.056721
C157  C     C_R   0.057280 0.744112 0.160374 -0.074897
C158  C     C_R   0.942205 0.758401 0.839436 -0.080227
C159  C     C_R   0.557619 0.255779 0.160524 -0.075630
C160  C     C_R   0.442236 0.246516 0.838872 -0.073379
C161  C     C_R   0.192098 0.690795 0.880855 0.780586
C162  C     C_R   0.522512 0.670883 0.998730 -0.186496
C163  C     C_R   0.807905 0.690797 0.119141 0.775787
C164  C     C_R   0.692105 0.190791 0.880857 0.781041
C165  C     C_R   0.307891 0.190797 0.119142 0.776107
C166  C     C_R   0.103575 0.742160 0.159813 0.195549
C167  C     C_R   0.895622 0.758006 0.839547 0.193914
C168  C     C_R   0.604218 0.253965 0.160548 0.198004
C169  C     C_R   0.395728 0.245917 0.839116 0.196074
C170  C     C_R   0.182562 0.695278 0.735316 -0.208122
C171  C     C_R   0.817443 0.695306 0.264670 -0.208046
C172  C     C_R   0.682324 0.195352 0.735081 -0.208601
Cu1   Cu    Cu3+1 0.280870 0.719090 0.061820 0.983432
Cu2   Cu    Cu3+1 0.455560 0.999990 0.500010 0.977147
Cu3   Cu    Cu3+1 0.044440 0.499990 0.499990 0.977471
Cu4   Cu    Cu3+1 0.955560 0.499990 0.500010 0.980506
Cu5   Cu    Cu3+1 0.719130 0.719090 0.938180 0.987666
Cu6   Cu    Cu3+1 0.780870 0.219090 0.061820 0.974200
Cu7   Cu    Cu3+1 0.219130 0.219090 0.938180 0.975375
Cu8   Cu    Cu3+1 0.219120 0.780900 0.938230 0.997543
Cu9   Cu    Cu3+1 0.780880 0.780900 0.061770 0.997578
Cu10  Cu    Cu3+1 0.719120 0.280900 0.938230 0.999051
Cu11  Cu    Cu3+1 0.280880 0.280900 0.061770 1.005719
Cu12  Cu    Cu3+1 0.544440 0.999990 0.499990 0.976595
H1    H     H_    0.613320 0.819305 0.004593 0.149190
H2    H     H_    0.181217 0.740475 0.137630 0.181508
H3    H     H_    0.317838 0.245385 0.860993 0.178357
H4    H     H_    0.682271 0.250131 0.139059 0.175324
H5    H     H_    0.957127 0.745632 0.138466 0.163823
H6    H     H_    0.042716 0.760648 0.862245 0.171403
H7    H     H_    0.457453 0.255346 0.138478 0.167431
H8    H     H_    0.542351 0.251011 0.860836 0.167231
H9    H     H_    0.139457 0.619672 0.873506 0.160804
H10   H     H_    0.860560 0.619674 0.126505 0.159545
H11   H     H_    0.639845 0.119508 0.873835 0.162107
H12   H     H_    0.386934 0.819313 0.995970 0.145176
H13   H     H_    0.360399 0.119614 0.126386 0.159407
H14   H     H_    0.215293 0.717267 0.789224 0.171928
H15   H     H_    0.784704 0.717298 0.210752 0.172641
H16   H     H_    0.715060 0.217355 0.788954 0.172439
H17   H     H_    0.284830 0.217354 0.210917 0.172710
H18   H     H_    0.121147 0.676522 0.531751 0.173558
H19   H     H_    0.878909 0.676570 0.468272 0.182938
H20   H     H_    0.620648 0.176642 0.531360 0.174474
H21   H     H_    0.379178 0.176642 0.468506 0.181612
H22   H     H_    0.070712 0.617864 0.537680 0.162523
H23   H     H_    0.113249 0.319311 0.004443 0.145373
H24   H     H_    0.929305 0.617871 0.462328 0.163907
H25   H     H_    0.570485 0.117877 0.537560 0.164403
H26   H     H_    0.429448 0.117895 0.462430 0.165002
H27   H     H_    0.608843 0.680134 0.995458 0.147813
H28   H     H_    0.390910 0.680125 0.004029 0.147550
H29   H     H_    0.108911 0.180136 0.995589 0.147155
H30   H     H_    0.890977 0.180128 0.004156 0.145650
H31   H     H_    0.080665 0.564876 0.759269 0.157221
H32   H     H_    0.919345 0.564864 0.240749 0.157296
H33   H     H_    0.581119 0.064671 0.759669 0.160560
H34   H     H_    0.886875 0.319312 0.995848 0.145350
H35   H     H_    0.419199 0.064807 0.240631 0.156832
H36   H     H_    0.539539 0.640253 0.997853 0.153398
H37   H     H_    0.460072 0.640248 0.001325 0.153625
H38   H     H_    0.039643 0.140255 0.998055 0.151758
H39   H     H_    0.960175 0.140251 0.001524 0.150135
H40   H     H_    0.458709 0.859131 0.998659 0.151145
H41   H     H_    0.541691 0.859127 0.002212 0.152410
H42   H     H_    0.958610 0.359132 0.998459 0.151032
H43   H     H_    0.041587 0.359131 0.002001 0.151089
H44   H     H_    0.355650 0.882104 0.122711 0.157180
H45   H     H_    0.414436 0.937065 0.236574 0.153969
H46   H     H_    0.570531 0.813940 0.737567 0.158036
H47   H     H_    0.851277 0.383705 0.119592 0.159203
H48   H     H_    0.146617 0.382955 0.878901 0.158510
H49   H     H_    0.290709 0.779965 0.217752 0.151844
H50   H     H_    0.789214 0.852285 0.932760 0.148447
H51   H     H_    0.795579 0.278132 0.223142 0.153866
H52   H     H_    0.206942 0.279094 0.779561 0.153093
H53   H     H_    0.317834 0.769834 0.353080 0.188586
H54   H     H_    0.844499 0.916157 0.950891 0.148364
H55   H     H_    0.828005 0.266559 0.361879 0.183738
H56   H     H_    0.514171 0.871456 0.628852 0.147515
H57   H     H_    0.177187 0.268237 0.642488 0.187065
H58   H     H_    0.389423 0.820422 0.476765 0.148862
H59   H     H_    0.786278 0.979487 0.853944 0.144000
H60   H     H_    0.900127 0.317464 0.484771 0.154307
H61   H     H_    0.104822 0.318762 0.518876 0.154838
H62   H     H_    0.433564 0.881755 0.465003 0.142017
H63   H     H_    0.672793 0.978624 0.736864 0.152017
H64   H     H_    0.939555 0.380563 0.468759 0.141800
H65   H     H_    0.062795 0.380920 0.532628 0.143212
H66   H     H_    0.116430 0.707063 0.353423 0.347311
H67   H     H_    0.910073 0.438757 0.233210 0.153200
H68   H     H_    0.880968 0.797032 0.646191 0.354331
H69   H     H_    0.621723 0.233324 0.362798 0.351474
H70   H     H_    0.375912 0.270428 0.635941 0.354354
H71   H     H_    0.087808 0.437964 0.765132 0.154306
H72   H     H_    0.817522 0.755483 0.861142 0.188171
O1    O     O_R   0.321150 0.768980 0.142380 -0.585358
O2    O     O_R   0.507560 0.954900 0.590180 -0.587747
O3    O     O_R   0.992440 0.454900 0.409820 -0.587699
O4    O     O_R   0.007560 0.454900 0.590180 -0.587131
O5    O     O_R   0.417370 0.954920 0.409860 -0.581066
O6    O     O_R   0.582630 0.954920 0.590140 -0.577561
O7    O     O_R   0.917370 0.454920 0.409860 -0.573641
O8    O     O_R   0.082630 0.454920 0.590140 -0.574606
O9    O     O_R   0.269000 0.821180 0.038020 -0.581204
O10   O     O_R   0.731000 0.821180 0.961980 -0.588309
O11   O     O_R   0.769000 0.321180 0.038020 -0.579769
O12   O     O_R   0.678850 0.768980 0.857620 -0.574946
O13   O     O_R   0.231000 0.321180 0.961980 -0.578568
O14   O     O_R   0.340930 0.723880 0.052190 -0.578266
O15   O     O_R   0.659070 0.723880 0.947810 -0.583767
O16   O     O_R   0.840930 0.223880 0.052190 -0.580462
O17   O     O_R   0.159070 0.223880 0.947810 -0.580216
O18   O     O_R   0.288780 0.776070 0.947820 -0.581750
O19   O     O_R   0.711220 0.776070 0.052180 -0.577720
O20   O     O_R   0.788780 0.276070 0.947820 -0.580829
O21   O     O_R   0.211220 0.276070 0.052180 -0.580871
O22   O     O_R   0.230990 0.678810 0.962030 -0.582488
O23   O     O_R   0.821150 0.268980 0.142380 -0.590095
O24   O     O_R   0.769010 0.678810 0.037970 -0.582882
O25   O     O_R   0.730990 0.178810 0.962030 -0.584105
O26   O     O_R   0.269010 0.178810 0.037970 -0.582486
O27   O     O_R   0.178840 0.731000 0.857670 -0.576765
O28   O     O_R   0.821160 0.731000 0.142330 -0.577031
O29   O     O_R   0.678840 0.231000 0.857670 -0.576506
O30   O     O_R   0.321160 0.231000 0.142330 -0.577831
O31   O     O_R   0.211210 0.723910 0.052230 -0.587756
O32   O     O_R   0.788790 0.723910 0.947770 -0.574426
O33   O     O_R   0.711210 0.223910 0.052230 -0.587433
O34   O     O_R   0.178850 0.268980 0.857620 -0.589274
O35   O     O_R   0.288790 0.223910 0.947770 -0.589285
O36   O     O_R   0.159060 0.776110 0.947860 -0.576669
O37   O     O_R   0.840940 0.776110 0.052140 -0.580037
O38   O     O_R   0.659060 0.276110 0.947860 -0.574442
O39   O     O_R   0.340940 0.276110 0.052140 -0.568111
O40   O     O_R   0.992470 0.545080 0.409840 -0.587999
O41   O     O_R   0.007530 0.545080 0.590160 -0.586590
O42   O     O_R   0.492470 0.045080 0.409840 -0.588037
O43   O     O_R   0.507530 0.045080 0.590160 -0.582729
O44   O     O_2   0.066427 0.772616 0.269989 -0.572123
O45   O     O_R   0.917390 0.545090 0.409880 -0.576838
O46   O     O_R   0.105643 0.704698 0.297041 -0.709811
O47   O     O_2   0.935078 0.732252 0.730326 -0.581999
O48   O     O_R   0.891580 0.798565 0.702511 -0.704663
O49   O     O_2   0.561603 0.291834 0.260269 -0.569465
O50   O     O_R   0.611601 0.226897 0.307735 -0.709769
O51   O     O_2   0.440139 0.212867 0.739113 -0.587156
O52   O     O_R   0.385900 0.276036 0.691126 -0.702106
O53   O     O_R   0.082610 0.545090 0.590120 -0.577591
O54   O     O_R   0.417390 0.045090 0.409880 -0.577375
O55   O     O_R   0.582610 0.045090 0.590120 -0.591837
O56   O     O_R   0.492440 0.954900 0.409820 -0.573207

loop_
_geom_bond_atom_site_label_1
_geom_bond_atom_site_label_2
_ccdc_geom_bond_type
C91   C95   A    
C162  H36   S    
C145  C158  A    
C134  C138  A    
Br4   C169  S    
C144  C157  A    
C24   C73   A    
C41   O38   A    
C146  C150  A    
C60   H34   S    
C79   H49   S    
Cu3   O3    S    
C65   H27   S    
C141  C145  A    
C81   C159  S    
C83   C88   A    
C3    C7    A    
Cu11  O30   S    
C144  C148  A    
C38   C47   A    
C62   C66   A    
C43   C49   S    
C143  C147  A    
Cu7   O34   S    
C114  O19   A    
C133  C137  A    
C116  O21   A    
C78   O44   D    
C27   C163  S    
C122  C126  A    
C78   C157  S    
Cu2   Cu12  S    
C164  O29   A    
C17   C21   A    
Cu8   O18   S    
C80   O48   S    
C19   C23   A    
C161  O22   A    
H70   O52   S    
C57   H42   S    
C85   O12   A    
C163  O24   A    
H66   O46   S    
C35   H40   S    
C79   C104  A    
C90   C94   A    
C1    O1    A    
Cu6   Cu10  S    
Cu3   Cu4   S    
C21   C26   A    
C98   H64   S    
Cu9   O28   S    
C70   C74   A    
C35   C46   A    
C8    C12   A    
Cu5   O32   S    
C37   H33   S    
C41   O33   A    
Cu1   O22   S    
C121  C125  A    
C42   C137  S    
C20   C25   A    
C66   C71   A    
C146  C159  A    
C93   H60   S    
C97   H63   S    
C52   C126  S    
C142  H7    S    
C53   C127  S    
Cu4   O7    S    
C89   H55   S    
C90   H57   S    
C19   C45   A    
C23   C172  A    
Cu6   O23   S    
C94   H61   S    
C39   O36   A    
C104  C109  A    
C22   C171  A    
C13   H38   S    
C170  H14   S    
C41   C138  S    
C87   C91   A    
C119  C123  A    
C123  H56   S    
Br3   C168  S    
Cu2   O5    S    
C68   C140  A    
C119  H46   S    
C31   H10   S    
C66   H28   S    
C95   H62   S    
C23   C28   A    
C81   O49   D    
C149  C154  A    
C6    C172  A    
C4    C170  A    
C165  O26   A    
C15   H25   S    
C101  C127  A    
C102  C128  A    
C51   O43   A    
Cu7   O17   S    
C58   C62   A    
C120  H47   S    
C136  C141  A    
Cu3   O53   S    
C1    O9    A    
Cu8   O9    S    
C132  C154  A    
C70   C162  A    
C131  C135  A    
C79   C87   A    
C38   H35   S    
C52   O5    A    
C39   O31   A    
C102  C106  A    
C106  C111  A    
C40   O32   A    
C96   C111  S    
C58   H12   S    
C36   C44   A    
C37   C45   A    
H68   O48   S    
Cu7   O35   S    
Cu5   O15   S    
Cu6   O16   S    
C84   C89   A    
C28   C164  S    
C111  C120  A    
C112  C121  A    
C4    C8    A    
C3    C25   A    
C40   O37   A    
C157  C166  A    
C108  C112  A    
C11   H21   S    
C12   H22   S    
Br2   C167  S    
C124  C128  A    
C94   C99   A    
C56   C61   A    
C26   C161  S    
C82   O52   S    
C150  C155  A    
C148  C153  A    
C18   C22   A    
C110  C119  A    
Cu11  O21   S    
C93   C98   A    
C125  H71   S    
C97   C101  A    
Cu2   O54   S    
C82   C160  S    
C99   C103  A    
C143  H8    S    
Cu1   O31   S    
C16   C20   A    
Cu5   Cu9   S    
C31   C36   A    
C141  H6    S    
C5    C9    A    
C99   H65   S    
C53   O6    A    
Cu7   O26   S    
C87   H53   S    
C61   C114  S    
C88   C92   A    
C29   C33   A    
Cu3   O40   S    
C138  C143  A    
Cu8   O36   S    
C69   H30   S    
Cu9   O37   S    
C85   C110  S    
C109  C117  A    
C73   C77   A    
C122  H45   S    
Cu12  O42   S    
C72   C76   A    
C92   H59   S    
C7    C11   A    
C46   C118  A    
C158  C167  A    
C57   C68   A    
H69   O50   S    
C152  C156  A    
Cu5   O24   S    
C115  O20   A    
C161  O27   A    
C134  C156  A    
Cu1   O14   S    
C84   H51   S    
C12   C17   A    
C86   C90   A    
C160  C169  A    
Cu12  O55   S    
Cu2   O43   S    
C133  H3    S    
C74   C118  A    
C155  C169  A    
C61   C65   A    
C103  C108  A    
C36   H32   S    
C55   O4    A    
C51   O55   A    
C54   O7    A    
C52   O56   A    
C163  O28   A    
C125  C130  A    
C150  C152  A    
Cu12  O6    S    
C88   H54   S    
Cu1   Cu8   S    
C171  H15   S    
C76   C140  A    
C32   C37   A    
C131  C153  A    
Cu6   O33   S    
C113  O14   A    
Cu5   O12   S    
C86   C108  A    
C115  O16   A    
C39   C136  S    
C25   C29   A    
C100  C104  A    
C40   C135  S    
C27   C31   A    
C100  C126  A    
C42   O35   A    
C83   H50   S    
C69   C73   A    
C147  C160  A    
C76   C77   A    
Br5   C4    S    
Cu1   O1    S    
Br8   C7    S    
C56   C118  A    
C21   C170  A    
C64   C115  S    
C139  H5    S    
C75   C129  A    
Cu8   O27   S    
C80   O47   D    
C132  C136  A    
C9    H19   S    
C2    C71   A    
C2    C162  A    
C9    C14   A    
C8    H18   S    
C11   C16   A    
C117  H44   S    
C71   C75   A    
C48   O40   A    
Cu9   O19   S    
C13   C72   A    
Cu10  O20   S    
C156  C168  A    
C59   C63   A    
Cu4   O41   S    
C145  C149  A    
C74   C75   A    
C14   C18   A    
C47   C50   S    
C59   C140  A    
C77   C151  A    
C132  H2    S    
C103  C130  A    
Cu9   O10   S    
C14   H24   S    
C1    C109  S    
C6    C10   A    
C59   H23   S    
C57   C151  A    
C114  O15   A    
C45   C51   S    
C116  O17   A    
C135  C139  A    
C92   C97   A    
C22   C27   A    
C107  O34   A    
C148  C149  A    
C30   C34   A    
C123  C127  A    
C153  C167  A    
C164  O25   A    
Cu10  O38   S    
C54   C128  S    
C86   H52   S    
Cu11  O13   S    
C117  C122  A    
Br7   C6    S    
C30   H9    S    
C33   C38   A    
C49   O53   A    
C95   C100  A    
C15   C19   A    
C60   C151  A    
C81   O50   S    
Cu7   Cu11  S    
C60   C64   A    
C34   C43   A    
C107  O13   A    
C24   H39   S    
C131  H72   S    
C91   H58   S    
C120  C124  A    
C20   C47   A    
C124  H67   S    
C53   O2    A    
C13   C24   A    
Br1   C166  S    
C10   C15   A    
C63   C116  S    
C28   C32   A    
C82   O51   D    
C5    C171  A    
C2    H37   S    
C83   C105  A    
C50   O54   A    
C10   H20   S    
C55   O8    A    
C17   C43   A    
C64   C69   A    
C18   C44   A    
C54   O3    A    
C32   H11   S    
C65   C70   A    
C56   H1    S    
C49   O41   A    
C96   O11   A    
C133  C155  A    
C80   C158  S    
Cu10  O11   S    
C121  H48   S    
Cu4   O4    S    
C55   C130  S    
C113  O18   A    
C34   H31   S    
C67   C72   A    
C78   O46   S    
Cu3   O8    S    
C147  C152  A    
C26   C30   A    
C137  C142  A    
C42   O39   A    
Cu11  O39   S    
C154  C166  A    
C101  C105  A    
C165  O30   A    
C139  C144  A    
C85   O10   A    
C50   O42   A    
C3    H17   S    
Br6   C5    S    
C63   C67   A    
C62   C113  S    
Cu2   O2    S    
C58   C129  A    
Cu12  O56   S    
Cu4   O45   S    
C35   C129  A    
C68   H43   S    
C33   H13   S    
C48   O45   A    
C96   O23   A    
C29   C165  S    
C105  C110  A    
Cu10  O29   S    
C67   H29   S    
C98   C102  A    
C107  C112  S    
C142  C146  A    
C134  H4    S    
C46   H41   S    
C172  H16   S    
Cu6   O25   S    
C84   C106  A    
C89   C93   A    
C44   C48   S    
C159  C168  A    
C16   H26   S    
