data_mof_unit_14676.cif
_audit_creation_date              2013-03-05T16:46:54-0500
_audit_creation_method            fapswitch 2.2
_symmetry_space_group_name_H-M    P1
_symmetry_Int_Tables_number       1
_space_group_crystal_system       triclinic
_cell_length_a                    18.19331
_cell_length_b                    18.27256
_cell_length_c                    18.374787
_cell_angle_alpha                 120.12811
_cell_angle_beta                  89.960517
_cell_angle_gamma                 119.872385
_cell_volume                      4320.78247648

loop_
_atom_site_label
_atom_site_type_symbol
_atom_site_description
_atom_site_fract_x
_atom_site_fract_y
_atom_site_fract_z
_atom_type_partial_charge
Zn1   Zn    Zn3+2 0.456040 0.586770 0.543190 0.972767
Zn2   Zn    Zn3+2 0.456820 0.413240 0.543960 0.976941
Zn3   Zn    Zn3+2 0.631110 0.586750 0.543190 0.980126
Zn4   Zn    Zn3+2 0.456040 0.413240 0.369660 1.080101
O1    O     O_3   0.500000 0.500000 0.500000 -0.499985
O2    O     O_R   0.383400 0.268380 0.323710 -0.582445
O3    O     O_R   0.555060 0.731630 0.615290 -0.643769
O4    O     O_R   0.383950 0.439280 0.616600 -0.646994
O5    O     O_R   0.677590 0.560710 0.444390 -0.646944
O6    O     O_R   0.556370 0.439260 0.616600 -0.648372
O7    O     O_R   0.382640 0.439290 0.322940 -0.577976
O8    O     O_R   0.678360 0.560700 0.616060 -0.641640
O9    O     O_R   0.382640 0.560750 0.444390 -0.664169
O10   O     O_R   0.383400 0.560740 0.616060 -0.658135
O11   O     O_R   0.555060 0.439270 0.322940 -0.626155
O12   O     O_R   0.383950 0.268380 0.445700 -0.645621
O13   O     O_R   0.677590 0.731610 0.615290 -0.638614
C1    C     C_R   0.355217 0.220076 0.360781 0.826282
C2    C     C_R   0.640862 0.781015 0.640512 0.801608
C3    C     C_R   0.358817 0.500203 0.640226 0.816960
C4    C     C_R   0.640720 0.500785 0.359552 0.820814
C5    C     C_R   0.641907 0.500610 0.640475 0.806700
C6    C     C_R   0.357666 0.499621 0.359179 0.833459
C7    C     C_3   0.273290 0.413908 0.200119 0.285816
H1    H     H_    0.336132 0.430960 0.182871 0.155230
C8    C     C_3   0.214553 0.415614 0.141416 -0.383447
H2    H     H_    0.248700 0.431359 0.095824 0.219141
H3    H     H_    0.149098 0.338381 0.098652 0.220654
H4    H     H_    0.175002 0.402822 0.317014 0.240010
H5    H     H_    0.086081 0.397643 0.223470 0.226659
C9    C     C_3   0.212207 0.477574 0.324281 -0.315534
C10   C     C_3   0.350353 0.605297 0.315391 -0.534698
C11   C     C_3   0.299374 0.498665 0.300911 0.048325
H6    H     H_    0.370920 0.667765 0.386911 0.179775
H7    H     H_    0.413067 0.621698 0.298519 0.225382
C12   C     C_3   0.197843 0.499586 0.199885 0.048105
C13   C     C_3   0.151393 0.475226 0.263229 -0.445589
C14   C     C_3   0.289957 0.607107 0.257517 0.273401
H8    H     H_    0.277629 0.666243 0.302623 0.128119
H9    H     H_    0.229680 0.539349 0.395068 0.188041
H10   H     H_    0.136653 0.532733 0.305288 0.228682
C15   C     C_3   0.638323 0.937952 0.729712 -0.421473
H11   H     H_    0.594262 0.902264 0.760564 0.216524
H12   H     H_    0.592884 0.913771 0.669765 0.200707
C16   C     C_3   0.697130 0.057533 0.794977 0.293636
H13   H     H_    0.676732 0.086513 0.764222 0.178558
H14   H     H_    0.724651 0.912921 0.825606 0.188461
C17   C     C_3   0.764044 0.938126 0.786657 -0.468824
C18   C     C_3   0.753000 0.942792 0.652249 -0.363297
C19   C     C_3   0.698066 0.897424 0.700883 0.042130
H15   H     H_    0.800017 0.919531 0.635065 0.215317
H16   H     H_    0.707226 0.911311 0.588678 0.197279
C20   C     C_3   0.798994 0.102678 0.807080 -0.026176
C21   C     C_3   0.830875 0.058214 0.844077 0.167132
C22   C     C_3   0.807138 0.062471 0.712104 -0.550698
H17   H     H_    0.781887 0.087727 0.680589 0.227005
H18   H     H_    0.878768 0.095992 0.716117 0.200305
H19   H     H_    0.802919 0.903716 0.768912 0.188299
H20   H     H_    0.897047 0.076530 0.835103 0.156942
C23   C     C_3   0.695583 0.402950 0.256796 -0.487552
H21   H     H_    0.625009 0.333151 0.218603 0.209970
H22   H     H_    0.723148 0.399413 0.308129 0.201073
C24   C     C_3   0.751038 0.400862 0.192839 -0.429607
H23   H     H_    0.800141 0.387182 0.208559 0.199872
H24   H     H_    0.705453 0.335022 0.122996 0.226141
H25   H     H_    0.598164 0.430750 0.180758 0.136121
H26   H     H_    0.688811 0.452499 0.100419 0.160363
C25   C     C_3   0.664154 0.506504 0.227110 0.180222
C26   C     C_3   0.798254 0.596836 0.360177 -0.377876
C27   C     C_3   0.698624 0.503023 0.302582 -0.004533
H27   H     H_    0.804494 0.670881 0.395109 0.252691
H28   H     H_    0.821757 0.593542 0.413716 0.165716
C28   C     C_3   0.800850 0.504476 0.201527 -0.011602
C29   C     C_3   0.728779 0.515435 0.172175 -0.441564
C30   C     C_3   0.859356 0.594350 0.302335 0.182996
H29   H     H_    0.901725 0.575644 0.322879 0.143769
H30   H     H_    0.760523 0.588540 0.177504 0.237675
H31   H     H_    0.297839 0.223282 0.690540 0.178197
C31   C     C_R   0.338182 0.143516 0.583569 0.376670
C32   C     C_R   0.328238 0.098677 0.492418 -0.208591
H32   H     H_    0.363428 0.063792 0.462468 0.181872
C33   C     C_R   0.273326 0.099414 0.439541 0.106266
C34   C     C_R   0.226768 0.143515 0.477669 -0.053949
H33   H     H_    0.183404 0.143635 0.437424 0.147223
C35   C     C_R   0.236062 0.187788 0.567838 -0.164298
H34   H     H_    0.199938 0.221636 0.596781 0.166435
C36   C     C_R   0.291648 0.188305 0.620722 -0.172674
C37   C     C_R   0.214555 0.944915 0.287956 -0.202422
H35   H     H_    0.196878 0.902803 0.317903 0.207345
C38   C     C_R   0.186558 0.892157 0.195406 -0.107409
C39   C     C_R   0.201824 0.946843 0.156873 -0.109092
C40   C     C_R   0.253563 0.054566 0.211884 0.268950
C41   C     C_R   0.289060 0.107686 0.305082 -0.186001
C42   C     C_R   0.261852 0.051505 0.343340 -0.021123
C43   C     C_R   0.204740 0.872121 0.000099 -0.121195
H36   H     H_    0.270764 0.892117 0.024129 0.171748
C44   C     C_R   0.165107 0.824209 0.909194 0.370758
C45   C     C_R   0.079550 0.799858 0.880128 -0.176927
H37   H     H_    0.047629 0.763625 0.810742 0.185187
C46   C     C_R   0.034226 0.821934 0.940441 -0.183478
H38   H     H_    0.968287 0.802570 0.917371 0.158037
C47   C     C_R   0.073766 0.868974 0.030398 -0.081118
H39   H     H_    0.038131 0.886040 0.076598 0.148352
C48   C     C_R   0.159229 0.894446 0.060688 0.126469
C49   C     C_R   0.920823 0.647221 0.583941 -0.190493
H40   H     H_    0.941751 0.615932 0.527385 0.212163
C50   C     C_R   0.872151 0.586002 0.613504 -0.171713
H41   H     H_    0.856516 0.508922 0.579660 0.187780
C51   C     C_R   0.843509 0.623915 0.686129 0.127588
C52   C     C_R   0.865297 0.724365 0.729965 -0.192674
H42   H     H_    0.844262 0.754895 0.786719 0.147791
C53   C     C_R   0.913498 0.785445 0.700130 -0.170808
H43   H     H_    0.928901 0.862437 0.734652 0.190987
C54   C     C_R   0.941720 0.747480 0.626695 0.354666
C55   C     C_R   0.841637 0.554596 0.770420 -0.231726
H44   H     H_    0.913758 0.597011 0.784900 0.182763
C56   C     C_R   0.799180 0.496510 0.804163 -0.034139
C57   C     C_R   0.704713 0.438560 0.782639 0.046197
C58   C     C_R   0.655696 0.443387 0.730186 -0.173833
H45   H     H_    0.583283 0.399254 0.714415 0.184139
C59   C     C_R   0.698361 0.502378 0.697155 -0.059721
C60   C     C_R   0.792728 0.559273 0.717790 0.003485
C61   C     C_R   0.631706 0.269428 0.768056 0.393791
C62   C     C_R   0.587241 0.212468 0.803066 -0.089984
H46   H     H_    0.569450 0.134781 0.771216 0.173859
C63   C     C_R   0.563329 0.253960 0.878273 -0.083537
H47   H     H_    0.528569 0.208911 0.903968 0.172634
C64   C     C_R   0.583089 0.352761 0.919684 -0.101541
H48   H     H_    0.563511 0.384215 0.977326 0.160490
C65   C     C_R   0.628404 0.411322 0.887143 -0.186087
H49   H     H_    0.644408 0.488563 0.920856 0.149165
C66   C     C_R   0.653813 0.371261 0.812143 0.013346
H50   H     H_    0.273917 0.758746 0.576484 0.198439
C67   C     C_R   0.344334 0.760232 0.672010 0.507721
C68   C     C_R   0.339897 0.704635 0.705078 -0.045742
H51   H     H_    0.396490 0.739659 0.759601 0.164021
C69   C     C_R   0.263277 0.604735 0.669065 -0.119646
C70   C     C_R   0.188090 0.560704 0.600209 0.241598
C71   C     C_R   0.191978 0.616790 0.566368 0.238264
C72   C     C_R   0.270323 0.715954 0.602629 -0.322398
C73   C     C_R   0.206236 0.549543 0.765573 -0.145448
H52   H     H_    0.172746 0.587505 0.775935 0.203247
C74   C     C_R   0.195068 0.498115 0.805287 -0.085584
C75   C     C_R   0.238122 0.447508 0.790242 0.076249
C76   C     C_R   0.292229 0.451594 0.737287 -0.270129
H53   H     H_    0.326140 0.414170 0.727412 0.175115
C77   C     C_R   0.302778 0.502204 0.696924 -0.048221
C78   C     C_R   0.258891 0.551849 0.711057 0.091436
C79   C     C_R   0.300645 0.434626 0.900665 -0.312416
H54   H     H_    0.359924 0.512090 0.929557 0.169539
C80   C     C_R   0.295527 0.379458 0.935383 0.288281
C81   C     C_R   0.217454 0.278289 0.896897 0.473788
C82   C     C_R   0.146964 0.233389 0.823686 0.445966
C83   C     C_R   0.154098 0.289179 0.789031 -0.348479
H55   H     H_    0.100335 0.254495 0.731978 0.168069
C84   C     C_R   0.229985 0.390214 0.828368 0.056144
Zn5   Zn    Zn3+2 0.041710 0.413240 0.959030 1.012274
Zn6   Zn    Zn3+2 0.866640 0.413270 0.959030 1.017998
Zn7   Zn    Zn3+2 0.040930 0.586780 0.958260 0.982143
Zn8   Zn    Zn3+2 0.041710 0.586770 0.132560 1.045344
O14   O     O_3   0.997750 0.500010 0.002220 -0.503283
O15   O     O_R   0.942690 0.560750 0.179280 -0.611299
O16   O     O_R   0.114340 0.439270 0.886160 -0.639762
O17   O     O_R   0.820160 0.268410 0.886930 -0.602185
O18   O     O_R   0.113800 0.731630 0.056520 -0.654222
O19   O     O_R   0.819390 0.439310 0.886160 -0.659751
O20   O     O_R   0.115110 0.560720 0.179280 -0.644535
O21   O     O_R   0.941380 0.560750 0.885620 -0.647145
O22   O     O_R   0.115110 0.439270 0.057830 -0.636351
O23   O     O_R   0.942690 0.268390 0.886930 -0.650428
O24   O     O_R   0.114340 0.731630 0.178520 -0.622459
O25   O     O_R   0.820160 0.439310 0.057830 -0.634776
O26   O     O_R   0.113800 0.560730 0.885620 -0.643726
C85   C     C_R   0.857352 0.501772 0.143040 0.808308
C86   C     C_R   0.138809 0.499714 0.861841 0.821041
C87   C     C_R   0.856811 0.219119 0.863007 0.891001
C88   C     C_R   0.136649 0.779975 0.141170 0.825517
C89   C     C_R   0.855809 0.499114 0.861498 0.812377
C90   C     C_R   0.139523 0.499630 0.142763 0.853284
O27   O     O_3   0.226511 0.315472 0.183559 -0.685833
H56   H     H_    0.227723 0.268689 0.124931 0.378351
O28   O     O_3   0.680787 0.091472 0.876873 -0.702953
H57   H     H_    0.679663 0.049774 0.896934 0.371996
N1    N     N_R   0.845184 0.102277 0.939647 0.203534
O29   O     O_R   0.844050 0.182433 0.992796 -0.389950
O30   O     O_R   0.872062 0.069371 0.974579 -0.362749
N2    N     N_R   0.920304 0.696502 0.319183 0.231972
O31   O     O_R   0.006732 0.745897 0.352312 -0.306000
O32   O     O_R   0.889711 0.742173 0.307683 -0.352355
N3    N     N_R   0.648912 0.587890 0.260586 0.201436
O33   O     O_R   0.567763 0.562391 0.237565 -0.398029
O34   O     O_R   0.715265 0.685373 0.310457 -0.347848
N4    N     N_R   0.394721 0.143135 0.637910 0.202514
O35   O     O_R   0.404393 0.185212 0.722259 -0.395590
O36   O     O_R   0.435999 0.099406 0.603313 -0.376006
N5    N     N_R   0.263559 0.108966 0.173049 0.224834
O37   O     O_R   0.220608 0.151604 0.186546 -0.341031
O38   O     O_R   0.311365 0.111072 0.120513 -0.372392
N6    N     N_R   0.211455 0.800732 0.846931 0.198889
O39   O     O_R   0.291019 0.824170 0.873803 -0.407766
O40   O     O_R   0.174469 0.755595 0.762747 -0.395369
N7    N     N_R   0.991370 0.810272 0.595902 0.214454
O41   O     O_R   0.022589 0.777935 0.531812 -0.318554
O42   O     O_R   0.006155 0.900543 0.631861 -0.344211
N8    N     N_R   0.653881 0.223273 0.689203 0.213919
O43   O     O_R   0.655187 0.143686 0.664542 -0.430774
O44   O     O_R   0.664955 0.253718 0.637030 -0.358474
O45   O     O_3   0.421479 0.857884 0.709357 -0.751534
H58   H     H_    0.414353 0.886912 0.678716 0.345902
N9    N     N_R   0.106907 0.462201 0.568496 0.239100
O46   O     O_R   0.109054 0.382889 0.542670 -0.380393
O47   O     O_R   0.031801 0.453658 0.572021 -0.324786
N10   N     N_R   0.117851 0.573997 0.494873 0.215694
O48   O     O_R   0.065403 0.474804 0.433609 -0.353387
O49   O     O_R   0.108065 0.634904 0.485342 -0.363600
O50   O     O_3   0.365542 0.422415 0.006084 -0.769452
H59   H     H_    0.414143 0.493186 0.025149 0.364711
O51   O     O_3   0.207506 0.220587 0.928607 -0.692644
H60   H     H_    0.260998 0.261291 0.980586 0.366845
O52   O     O_3   0.071867 0.134559 0.787233 -0.678519
H61   H     H_    0.028610 0.113946 0.736502 0.331417
O53   O     O_3   0.332840 0.633226 0.202350 -0.762954
H62   H     H_    0.381648 0.708355 0.241464 0.349869

loop_
_geom_bond_atom_site_label_1
_geom_bond_atom_site_label_2
_geom_bond_distance
_ccdc_geom_bond_type
H31   C36   1.082766 S    
O20   C90   1.278727 A    
C22   H17   1.113192 S    
C24   H24   1.113455 S    
C41   C42   1.418038 A    
C33   C42   1.483110 S    
C61   C66   1.422004 A    
O18   C88   1.276022 A    
C28   C29   1.556008 S    
C44   N6    1.438838 S    
C69   C78   1.485662 S    
H25   C25   1.115927 S    
C43   H36   1.083013 S    
C74   C86   1.458148 S    
C39   C48   1.484905 S    
O16   C86   1.274005 A    
C64   H48   1.082278 S    
C31   C36   1.407513 A    
C76   H53   1.084756 S    
C38   C39   1.417910 A    
O52   H61   0.991673 S    
C61   C62   1.408638 A    
O23   C87   1.283494 A    
N10   O48   1.301275 A    
C9    H9    1.111860 S    
C17   C21   1.557714 S    
N4    O35   1.301398 A    
C49   C50   1.397535 A    
C61   N8    1.443884 S    
C8    H2    1.110735 S    
C63   H47   1.082414 S    
N7    O42   1.301500 A    
C23   C24   1.546646 S    
Zn1   O1    1.944850 S    
C12   C13   1.552761 S    
C79   C84   1.398874 A    
C7    C8    1.541057 S    
C73   C74   1.398169 A    
C67   C72   1.405228 A    
C14   H8    1.116682 S    
O21   C89   1.281330 A    
C51   C60   1.479599 S    
C25   C29   1.549366 S    
C74   C75   1.417625 A    
O8    C5    1.270994 A    
Zn7   O21   1.948312 S    
O9    C6    1.282718 A    
C23   H22   1.113331 S    
Zn8   O20   1.947251 S    
O7    C6    1.275444 A    
C28   C85   1.486555 S    
C26   H27   1.109404 S    
C57   C58   1.377256 A    
C46   H38   1.082278 S    
C82   O52   1.380477 S    
Zn3   O8    1.951253 S    
C73   C78   1.387001 A    
Zn5   O22   1.951691 S    
O28   H57   0.991592 S    
C65   H49   1.083397 S    
C73   H52   1.084866 S    
C56   C89   1.440812 S    
C77   C78   1.418675 A    
O45   H58   0.991756 S    
C55   C56   1.396733 A    
C29   H30   1.108067 S    
C81   O51   1.382164 S    
C7    O27   1.406494 S    
N3    O34   1.300325 A    
C80   C81   1.417199 A    
C9    C11   1.550560 S    
C26   C30   1.538718 S    
O19   C89   1.270428 A    
C10   C14   1.553191 S    
Zn2   O12   1.932333 S    
Zn5   O16   1.943177 S    
C83   C84   1.399877 A    
Zn6   O14   1.950779 S    
Zn6   O17   1.930844 S    
Zn6   O25   1.941342 S    
C37   H35   1.084727 S    
C17   C19   1.553898 S    
C38   C88   1.454635 S    
C16   C20   1.567806 S    
N6    O39   1.301427 A    
C55   C60   1.376303 A    
C28   C30   1.571224 S    
C23   C27   1.552274 S    
O53   H62   0.992846 S    
C12   C90   1.493532 S    
C15   H12   1.113897 S    
C53   C54   1.407057 A    
C53   H43   1.082478 S    
C76   C77   1.397727 A    
C1    C41   1.463937 S    
O25   C85   1.284605 A    
C16   O28   1.408428 S    
C44   C45   1.406694 A    
C51   C52   1.402299 A    
C21   H20   1.114588 S    
O26   C86   1.287246 A    
O2    C1    1.287724 A    
C37   C42   1.382573 A    
N7    O41   1.301316 A    
C35   C36   1.396327 A    
C47   H39   1.083086 S    
C10   H7    1.113525 S    
O10   C3    1.273103 A    
C49   C54   1.407026 A    
C68   H51   1.083864 S    
O50   H59   0.991694 S    
C32   C33   1.403630 A    
C58   H45   1.085163 S    
C39   C40   1.393034 A    
N4    O36   1.301447 A    
C32   H32   1.083026 S    
C24   C28   1.555297 S    
C18   H15   1.113154 S    
C35   H34   1.082370 S    
C70   N9    1.435561 S    
C17   H19   1.112999 S    
O6    C5    1.280756 A    
C9    C13   1.546147 S    
H5    C13   1.113039 S    
C23   H21   1.113189 S    
C15   C16   1.549120 S    
C10   H6    1.113240 S    
C75   C84   1.480023 S    
C26   H28   1.113517 S    
C65   C66   1.404357 A    
C30   H29   1.116205 S    
N3    O33   1.301327 A    
Zn3   O5    1.941342 S    
Zn5   O23   1.933762 S    
C67   O45   1.379163 S    
H14   C17   1.113264 S    
C25   N3    1.469389 S    
C50   H41   1.083179 S    
C18   H16   1.112874 S    
C54   N7    1.439141 S    
C83   H55   1.083675 S    
C3    C77   1.457265 S    
C52   H42   1.083184 S    
H26   C29   1.111707 S    
O4    C3    1.287797 A    
C7    H1    1.117346 S    
Zn4   O7    1.947255 S    
C47   C48   1.401516 A    
C59   C60   1.413971 A    
C58   C59   1.398358 A    
C15   C19   1.554868 S    
N9    O47   1.301254 A    
Zn4   O2    1.933700 S    
C34   C35   1.395254 A    
C37   C38   1.395385 A    
C18   C19   1.549781 S    
C45   C46   1.397206 A    
C80   O50   1.381684 S    
C22   H18   1.112903 S    
C21   N1    1.473869 S    
C31   C32   1.408704 A    
C34   H33   1.083228 S    
Zn2   O1    1.956251 S    
Zn1   O9    1.951793 S    
C15   H11   1.113100 S    
C20   C22   1.558307 S    
Zn2   O6    1.948414 S    
Zn5   O14   1.944850 S    
C43   C48   1.403808 A    
Zn6   O19   1.951108 S    
C5    C59   1.440597 S    
C62   C63   1.396308 A    
C46   C47   1.395696 A    
C49   H40   1.082424 S    
C8    C12   1.552547 S    
C68   C69   1.402541 A    
N8    O43   1.301384 A    
C63   C64   1.393689 A    
Zn1   O3    1.933864 S    
C30   N2    1.472449 S    
N5    O37   1.300523 A    
Zn3   O1    1.950779 S    
C64   C65   1.394662 A    
C6    C11   1.495210 S    
C71   C72   1.405502 A    
C43   C44   1.407581 A    
C20   C21   1.575782 S    
C67   C68   1.394876 A    
O15   C85   1.276569 A    
C69   C70   1.415432 A    
O17   C87   1.284321 A    
C8    H3    1.114067 S    
C7    C11   1.563171 S    
C31   N4    1.438960 S    
C4    C27   1.485203 S    
C75   C76   1.385558 A    
C10   C11   1.551516 S    
C14   O53   1.406304 S    
Zn4   O11   1.939800 S    
C79   C80   1.408470 A    
Zn7   O14   1.956399 S    
N10   O49   1.301576 A    
N2    O31   1.301419 A    
H4    C9    1.112546 S    
C18   C22   1.550309 S    
C56   C57   1.413923 A    
Zn8   O14   1.953690 S    
C2    C19   1.505292 S    
O5    C4    1.278777 A    
O51   H60   0.989775 S    
C50   C51   1.401022 A    
O11   C4    1.281451 A    
C71   N10   1.441094 S    
O3    C2    1.282119 A    
C40   N5    1.436027 S    
C12   C14   1.556898 S    
C40   C41   1.414316 A    
O13   C2    1.287138 A    
Zn8   O24   1.933654 S    
N1    O30   1.301316 A    
Zn3   O13   1.930845 S    
N9    O46   1.301149 A    
Zn7   O18   1.932230 S    
C13   H10   1.112912 S    
C26   C27   1.558951 S    
C52   C53   1.397786 A    
N2    O32   1.300288 A    
N5    O38   1.301008 A    
C57   C66   1.482527 S    
C70   C71   1.417532 A    
C24   H23   1.113239 S    
C16   H13   1.110825 S    
Zn4   O1    1.953690 S    
C81   C82   1.404916 A    
H50   C72   1.082849 S    
O12   C1    1.282957 A    
C45   H37   1.082471 S    
Zn7   O26   1.937552 S    
Zn2   O4    1.937507 S    
N6    O40   1.301402 A    
C25   C27   1.565231 S    
O24   C88   1.291200 A    
N1    O29   1.301366 A    
Zn1   O10   1.943278 S    
C33   C34   1.403593 A    
C82   C83   1.407582 A    
C79   H54   1.083634 S    
N8    O44   1.301008 A    
O22   C90   1.278416 A    
O27   H56   0.993002 S    
C55   H44   1.083330 S    
C20   C87   1.505530 S    
Zn8   O15   1.939797 S    
C62   H46   1.082098 S    
