data_mof_unit_10310.cif
_audit_creation_date              2013-03-05T15:58:55-0500
_audit_creation_method            fapswitch 2.2
_symmetry_space_group_name_H-M    P1
_symmetry_Int_Tables_number       1
_space_group_crystal_system       triclinic
_cell_length_a                    10.68336
_cell_length_b                    12.608139
_cell_length_c                    13.281311
_cell_angle_alpha                 83.008395
_cell_angle_beta                  90.719277
_cell_angle_gamma                 101.879449
_cell_volume                      1737.48051468

loop_
_atom_site_label
_atom_site_type_symbol
_atom_site_description
_atom_site_fract_x
_atom_site_fract_y
_atom_site_fract_z
_atom_type_partial_charge
O1    O     O_R   0.468120 0.366740 0.627160 -0.613354
O2    O     O_R   0.510770 0.544830 0.662520 -0.622140
C1    C     C_R   0.477790 0.440771 0.690990 0.904227
O3    O     O_R   0.663880 0.410950 0.482330 -0.637531
O4    O     O_R   0.706530 0.589040 0.517700 -0.622104
C2    C     C_R   0.741626 0.500380 0.498441 0.823821
Zn1   Zn    Zn3+2 0.471520 0.381090 0.476390 0.941254
Zn2   Zn    Zn3+2 0.528480 0.618910 0.523610 0.958917
O5    O     O_R   0.489230 0.455170 0.337480 -0.622298
O6    O     O_R   0.531880 0.633260 0.372840 -0.609366
O7    O     O_R   0.293470 0.410960 0.482300 -0.635704
O8    O     O_R   0.336120 0.589050 0.517670 -0.620386
C3    C     C_R   0.522170 0.560043 0.310059 0.882127
C4    C     C_R   0.257913 0.499382 0.499864 0.846897
C5    C     C_3   0.899496 0.384483 0.481471 -0.408116
H1    H     H_    0.857445 0.360217 0.408489 0.184599
H2    H     H_    0.851747 0.322265 0.543344 0.218106
C6    C     C_3   0.041920 0.383792 0.480184 -0.389251
H3    H     H_    0.061935 0.318648 0.538841 0.196106
H4    H     H_    0.068822 0.363614 0.405093 0.175092
H5    H     H_    0.910592 0.557555 0.335829 0.119733
H6    H     H_    0.124963 0.565446 0.339033 0.167619
C7    C     C_3   0.948354 0.583785 0.409376 -0.149106
C8    C     C_3   0.933424 0.526857 0.601721 -0.439846
C9    C     C_3   0.878032 0.500107 0.497472 0.108635
H7    H     H_    0.918845 0.608422 0.616977 0.174516
H8    H     H_    0.880504 0.466348 0.662876 0.163553
C10   C     C_3   0.120217 0.497516 0.499854 0.094256
C11   C     C_3   0.092383 0.583290 0.413330 -0.452921
C12   C     C_3   0.077335 0.527028 0.602903 -0.133223
H9    H     H_    0.127398 0.611367 0.611622 0.168724
H10   H     H_    0.147530 0.664779 0.426696 0.181678
C13   C     C_R   0.601472 0.734365 0.061376 -0.202848
H11   H     H_    0.612330 0.767871 0.215639 0.171026
H12   H     H_    0.533521 0.766987 0.872448 0.139741
H13   H     H_    0.621703 0.820219 0.031887 0.141662
C14   C     C_R   0.550986 0.594881 0.203620 -0.088819
C15   C     C_R   0.462927 0.299193 0.836910 -0.409217
C16   C     C_R   0.496886 0.269073 0.936349 0.434269
C17   C     C_R   0.539363 0.350150 0.999081 0.380616
C18   C     C_R   0.524484 0.459658 0.969146 -0.149338
C19   C     C_R   0.483949 0.489293 0.869815 -0.010600
C20   C     C_R   0.549121 0.541470 0.035134 0.103090
C21   C     C_R   0.569278 0.653328 0.996575 0.153311
C22   C     C_R   0.534047 0.681921 0.898451 -0.308253
C23   C     C_R   0.471715 0.600569 0.843149 0.057446
C24   C     C_R   0.533943 0.514418 0.138812 -0.211301
C25   C     C_R   0.593724 0.704811 0.165638 -0.167997
C26   C     C_R   0.465677 0.408775 0.800960 -0.152762
H14   H     H_    0.494614 0.430920 0.168662 0.220116
H15   H     H_    0.446945 0.237867 0.785113 0.193772
C27   C     C_R   0.262725 0.075284 0.422903 -0.290146
H16   H     H_    0.254395 0.242979 0.384893 0.132727
H17   H     H_    0.202112 0.866884 0.424385 0.158027
H18   H     H_    0.166762 0.046430 0.396411 0.152066
N1    N     N_R   0.433240 0.222190 0.444680 -0.117760
C28   C     C_R   0.671961 0.801852 0.611449 -0.044165
C29   C     C_R   0.715212 0.907253 0.634347 -0.343949
C30   C     C_R   0.648453 0.989092 0.600826 0.484475
C31   C     C_R   0.537312 0.964038 0.540402 -0.118264
C32   C     C_R   0.497047 0.854043 0.518598 0.123730
C33   C     C_R   0.463904 0.041685 0.499022 -0.005281
C34   C     C_R   0.338463 0.003159 0.463966 0.158146
C35   C     C_R   0.294532 0.893239 0.458692 -0.311691
C36   C     C_R   0.382761 0.826722 0.463159 0.024501
C37   C     C_R   0.509078 0.155363 0.486523 -0.018058
C38   C     C_R   0.312965 0.185722 0.413258 0.025784
N2    N     N_R   0.566070 0.776970 0.554790 -0.122316
H19   H     H_    0.602927 0.193916 0.507964 0.198989
H20   H     H_    0.724117 0.739197 0.638222 0.162624
H21   H     H_    0.801456 0.925800 0.678132 0.165647
C39   C     C_1   0.928326 0.696315 0.411166 0.177604
N3    N     N_1   0.912779 0.784317 0.412501 -0.213675
O9    O     O_3   0.596207 0.320306 0.089381 -0.601712
C40   C     C_3   0.730433 0.349670 0.076830 0.141212
H22   H     H_    0.762791 0.436524 0.043669 0.126001
H23   H     H_    0.763833 0.295850 0.027054 0.157472
C41   C     C_3   0.792185 0.335626 0.180120 -0.832308
H24   H     H_    0.764107 0.249460 0.215227 0.265456
H25   H     H_    0.897955 0.357790 0.171635 0.199132
H26   H     H_    0.760841 0.389550 0.230628 0.249462
O10   O     O_3   0.512746 0.163796 0.967145 -0.599873
C42   C     C_3   0.392234 0.091724 0.974296 0.115777
H27   H     H_    0.346548 0.087562 0.898684 0.128897
H28   H     H_    0.327489 0.117258 0.027648 0.147175
C43   C     C_3   0.410198 0.977636 0.014574 -0.810162
H29   H     H_    0.455037 0.978169 0.090519 0.266989
H30   H     H_    0.316002 0.920057 0.021352 0.210396
H31   H     H_    0.472498 0.949229 0.961729 0.235805
C44   C     C_1   0.378207 0.634660 0.774461 0.226492
N4    N     N_1   0.305191 0.666700 0.720462 -0.232634
O11   O     O_3   0.697935 0.093444 0.623362 -0.650093
C45   C     C_3   0.668090 0.101486 0.724983 0.105781
H32   H     H_    0.705206 0.040599 0.778726 0.144469
H33   H     H_    0.562693 0.089607 0.735922 0.148292
C46   C     C_3   0.730834 0.214857 0.749868 -0.829884
H34   H     H_    0.690566 0.277813 0.701753 0.250787
H35   H     H_    0.713883 0.221495 0.830856 0.237292
H36   H     H_    0.835670 0.230037 0.735850 0.254710
C47   C     C_1   0.374652 0.773218 0.373144 0.232951
N5    N     N_1   0.360303 0.735502 0.297545 -0.241338
C48   C     C_1   0.108656 0.453161 0.690586 0.150394
N6    N     N_1   0.133119 0.395296 0.759093 -0.224382

loop_
_geom_bond_atom_site_label_1
_geom_bond_atom_site_label_2
_geom_bond_distance
_ccdc_geom_bond_type
C5    C6    1.523701 S    
C45   H32   1.113936 S    
H6    C11   1.113720 S    
C18   C19   1.414148 A    
C32   N2    1.375324 A    
C8    H8    1.115557 S    
C20   C21   1.414053 A    
C1    C26   1.467144 S    
C15   C26   1.400271 A    
C22   C23   1.387401 A    
Zn1   O7    2.017951 S    
O4    C2    1.303899 A    
C7    C11   1.540230 S    
C10   C11   1.549115 S    
C8    H7    1.113719 S    
C11   H10   1.107602 S    
C12   H9    1.106556 S    
O7    C4    1.296706 A    
C41   H25   1.110475 S    
C29   H21   1.082924 S    
C5    C9    1.561154 S    
C2    C9    1.458204 S    
C5    H1    1.113393 S    
C46   H36   1.110852 S    
C13   H13   1.083707 S    
C31   C33   1.431708 A    
C6    H3    1.113363 S    
C19   C23   1.436748 A    
O5    C3    1.303549 A    
C47   N5    1.157635 T    
C46   H35   1.108966 S    
C28   H20   1.081115 S    
C14   C24   1.391321 A    
C3    C14   1.445755 S    
C27   C34   1.396495 A    
C27   H18   1.084321 S    
C30   C31   1.427232 A    
C45   H33   1.113899 S    
C18   C20   1.415594 A    
Zn1   N1    2.054781 S    
O3    Zn1   2.013908 S    
C24   H14   1.078176 S    
C28   C29   1.383486 A    
O9    C40   1.411943 S    
C33   C37   1.405001 A    
C43   H30   1.110592 S    
C6    C10   1.554272 S    
C8    C9    1.546569 S    
C36   C47   1.435792 S    
O3    C2    1.294499 A    
C16   C17   1.397108 A    
C41   H24   1.110701 S    
C15   H15   1.082788 S    
C29   C30   1.398122 A    
C43   H31   1.111275 S    
C31   C32   1.428713 A    
O1    C1    1.323368 A    
C40   H22   1.114988 S    
C33   C34   1.421281 A    
C32   C36   1.420405 A    
C42   H27   1.113297 S    
Zn2   O8    2.013908 S    
C46   H34   1.110709 S    
C12   C48   1.479861 S    
C14   C25   1.399648 A    
C40   H23   1.113391 S    
C27   C38   1.376191 A    
C17   C18   1.429953 A    
C42   H28   1.115210 S    
O8    C4    1.305139 A    
Zn2   N2    2.042407 S    
C45   C46   1.522070 S    
H5    C7    1.113586 S    
H11   C25   1.082965 S    
C28   N2    1.354418 A    
H12   C22   1.087133 S    
C21   C22   1.378107 A    
C43   H29   1.111337 S    
C5    H2    1.113429 S    
O1    Zn1   1.988638 S    
C13   C21   1.401736 A    
C7    C39   1.480759 S    
O2    Zn2   1.956620 S    
C16   O10   1.384396 S    
C39   N3    1.157455 T    
O6    C3    1.305363 A    
O4    Zn2   2.017952 S    
C23   C44   1.439927 S    
N1    C38   1.351541 A    
C35   C36   1.381030 A    
C10   C12   1.559293 S    
O2    C1    1.296412 A    
C41   H26   1.111192 S    
C44   N4    1.153762 T    
C15   C16   1.393784 A    
H17   C35   1.087837 S    
N1    C37   1.353123 A    
O11   C45   1.411012 S    
C17   O9    1.383700 S    
C6    H4    1.114015 S    
C30   O11   1.380442 S    
C7    C9    1.562597 S    
C48   N6    1.157304 T    
H16   C38   1.080945 S    
C40   C41   1.521424 S    
C8    C12   1.536892 S    
C19   C26   1.430006 A    
C34   C35   1.378723 A    
C37   H19   1.071685 S    
Zn1   O5    1.956620 S    
C42   C43   1.521791 S    
Zn2   O6    1.988635 S    
O10   C42   1.411637 S    
C13   C25   1.388440 A    
C4    C10   1.466395 S    
C20   C24   1.381009 A    
