data_mof_unit_43145.cif
_audit_creation_date              2012-12-11T15:50:31-0500
_audit_creation_method            fapswitch 2.2
_symmetry_space_group_name_H-M    P1
_symmetry_Int_Tables_number       1
_space_group_crystal_system       triclinic
_cell_length_a                    18.937159
_cell_length_b                    11.044628
_cell_length_c                    18.699766
_cell_angle_alpha                 89.599662
_cell_angle_beta                  90.722192
_cell_angle_gamma                 89.513423
_cell_volume                      3910.57840423

loop_
_atom_site_label
_atom_site_type_symbol
_atom_type_description
_atom_site_fract_x
_atom_site_fract_y
_atom_site_fract_z
_atom_type_partial_charge
C1    C     C_R   0.285173 0.010236 0.861428 0.546508
C2    C     C_R   0.708572 0.994277 0.139443 0.565058
C3    C     C_R   0.785234 0.510084 0.861436 0.546555
C4    C     C_R   0.208578 0.494288 0.139443 0.565036
C5    C     C_3   0.507958 0.713275 0.979068 0.030225
C6    C     C_3   0.454040 0.757698 0.034044 0.004778
C7    C     C_3   0.008115 0.213332 0.979032 0.030136
C8    C     C_3   0.954159 0.257464 0.034043 0.004804
C9    C     C_R   0.215100 0.503987 0.061007 0.003113
C10   C     C_R   0.769886 0.544984 0.934695 0.016662
C11   C     C_R   0.715078 0.003960 0.061002 0.003147
C12   C     C_R   0.269799 0.045204 0.934666 0.016620
C13   C     C_R   0.265841 0.441477 0.020670 0.020915
C14   C     C_R   0.708030 0.510290 0.968853 0.001775
C15   C     C_R   0.765779 0.941392 0.020645 0.020832
C16   C     C_R   0.207996 0.010332 0.968860 0.001674
C17   C     C_R   0.278374 0.474755 0.949916 0.021407
C18   C     C_R   0.699678 0.527400 0.042202 0.019595
C19   C     C_R   0.778336 0.974712 0.949905 0.021429
C20   C     C_R   0.199681 0.027365 0.042219 0.019692
C21   C     C_R   0.175705 0.601020 0.950220 -0.184357
C22   C     C_R   0.819569 0.598003 0.050031 -0.169961
C23   C     C_R   0.675698 0.101045 0.950221 -0.184419
C24   C     C_R   0.319516 0.098257 0.049977 -0.169921
C25   C     C_R   0.165382 0.574180 0.022379 -0.168183
C26   C     C_R   0.824853 0.593588 0.976236 -0.173125
C27   C     C_R   0.665378 0.074212 0.022383 -0.168169
C28   C     C_R   0.324748 0.093934 0.976180 -0.173050
C29   C     C_3   0.342221 0.414520 0.033557 -0.266706
C30   C     C_3   0.678910 0.386407 0.971537 -0.268105
C31   C     C_3   0.842134 0.914222 0.033514 -0.266780
C32   C     C_3   0.178960 0.886387 0.971524 -0.268050
C33   C     C_3   0.355567 0.456039 0.957209 -0.285908
C34   C     C_3   0.669419 0.403570 0.050710 -0.276924
C35   C     C_3   0.855520 0.955806 0.957179 -0.285863
C36   C     C_3   0.169527 0.903452 0.050714 -0.276936
C37   C     C_R   0.238064 0.564936 0.915582 0.007882
C38   C     C_R   0.755357 0.573408 0.083098 0.017877
C39   C     C_R   0.738056 0.064942 0.915581 0.007870
C40   C     C_R   0.255352 0.073466 0.083085 0.017835
C41   C     C_R   0.496663 0.836200 0.421569 0.015067
C42   C     C_R   0.484871 0.829064 0.570794 0.023073
C43   C     C_R   0.996662 0.336205 0.421569 0.015062
C44   C     C_R   0.984872 0.329066 0.570795 0.023062
C45   C     C_R   0.468771 0.819982 0.856016 0.543051
C46   C     C_R   0.530843 0.822775 0.144261 0.538333
C47   C     C_R   0.968755 0.319983 0.856023 0.543038
C48   C     C_R   0.030850 0.322773 0.144258 0.538321
C49   C     C_R   0.467010 0.736075 0.455282 0.017223
C50   C     C_R   0.462139 0.732974 0.528355 0.047870
C51   C     C_R   0.967010 0.236075 0.455281 0.017231
C52   C     C_R   0.962143 0.232971 0.528355 0.047880
C53   C     C_R   0.504374 0.937017 0.537020 -0.174141
C54   C     C_R   0.509700 0.940873 0.462491 -0.164809
C55   C     C_R   0.004378 0.437023 0.537022 -0.174163
C56   C     C_R   0.009705 0.440883 0.462494 -0.164809
C57   C     C_3   0.484669 0.603674 0.452358 -0.271378
C58   C     C_3   0.481399 0.601965 0.533031 -0.265347
C59   C     C_3   0.984676 0.103663 0.452356 -0.271343
C60   C     C_3   0.981415 0.101957 0.533029 -0.265330
C61   C     C_R   0.236285 0.557285 0.431880 0.021557
C62   C     C_R   0.748471 0.602964 0.580945 0.020369
C63   C     C_R   0.736279 0.057256 0.431892 0.021536
C64   C     C_R   0.248471 0.102964 0.580945 0.020373
C65   C     C_R   0.178865 0.602998 0.468857 0.035408
C66   C     C_R   0.795879 0.676786 0.544216 0.026764
C67   C     C_R   0.678837 0.102882 0.468879 0.035434
C68   C     C_R   0.295878 0.176777 0.544216 0.026766
C69   C     C_R   0.180478 0.610890 0.541510 0.023181
C70   C     C_R   0.793716 0.680398 0.471434 0.046434
C71   C     C_R   0.680440 0.110746 0.541537 0.023199
C72   C     C_R   0.293718 0.180388 0.471435 0.046428
C73   C     C_R   0.291819 0.502980 0.545178 -0.155762
C74   C     C_R   0.689174 0.558121 0.469367 -0.166209
C75   C     C_R   0.791829 0.002965 0.545184 -0.155737
C76   C     C_R   0.189173 0.058127 0.469367 -0.166222
C77   C     C_R   0.290180 0.496706 0.470645 -0.152333
C78   C     C_R   0.690099 0.555728 0.543881 -0.169164
C79   C     C_R   0.790193 0.996714 0.470649 -0.152325
C80   C     C_R   0.190098 0.055734 0.543881 -0.169205
C81   C     C_3   0.140052 0.719573 0.457902 -0.279136
C82   C     C_3   0.875485 0.680612 0.544171 -0.268502
C83   C     C_3   0.639959 0.219416 0.457942 -0.279060
C84   C     C_3   0.375476 0.180616 0.544176 -0.268543
C85   C     C_3   0.141383 0.730176 0.538190 -0.268420
C86   C     C_3   0.871858 0.683488 0.463664 -0.278366
C87   C     C_3   0.641250 0.229968 0.538237 -0.268374
C88   C     C_3   0.371854 0.183485 0.463669 -0.278400
C89   C     C_R   0.259188 0.632876 0.850817 0.531568
C90   C     C_R   0.740695 0.632787 0.150442 0.537031
C91   C     C_R   0.759187 0.132877 0.850817 0.531559
C92   C     C_R   0.240696 0.132789 0.150444 0.537052
C93   C     C_R   0.241151 0.573714 0.579756 0.020875
C94   C     C_R   0.744460 0.613843 0.432743 0.023395
C95   C     C_R   0.741139 0.073654 0.579773 0.020855
C96   C     C_R   0.244463 0.113839 0.432743 0.023396
C97   C     C_R   0.270763 0.048339 0.647402 0.557059
C98   C     C_R   0.726628 0.040153 0.356425 0.556059
C99   C     C_R   0.770763 0.548338 0.647402 0.557094
C100  C     C_R   0.226629 0.540155 0.356421 0.556071
C101  C     C_R   0.468361 0.823091 0.646036 0.547220
C102  C     C_R   0.529625 0.823931 0.352502 0.553134
C103  C     C_R   0.968361 0.323091 0.646036 0.547229
C104  C     C_R   0.029625 0.323932 0.352502 0.553137
C105  C     C_R   0.258522 0.633891 0.645525 0.552877
C106  C     C_R   0.739256 0.640017 0.357713 0.545367
C107  C     C_R   0.758518 0.133881 0.645529 0.552895
C108  C     C_R   0.239257 0.140015 0.357712 0.545357
C109  C     C_3   0.491820 0.943946 0.021881 -0.136252
C110  C     C_3   0.545873 0.899680 0.965817 -0.150394
C111  C     C_3   0.991639 0.443891 0.021924 -0.136331
C112  C     C_3   0.045735 0.399923 0.965821 -0.150351
C113  C     C_3   0.434227 0.866108 0.985735 -0.115229
C114  C     C_3   0.565800 0.790287 0.014335 -0.100196
C115  C     C_3   0.934143 0.365826 0.985784 -0.115218
C116  C     C_3   0.065862 0.290558 0.014291 -0.100178
C117  C     C_3   0.489076 0.822441 0.931233 0.048806
C118  C     C_3   0.510953 0.833574 0.069098 0.060347
C119  C     C_3   0.989038 0.322456 0.931242 0.048824
C120  C     C_3   0.010974 0.333559 0.069093 0.060350
Cr1   Cr    Cr6+3 0.229640 0.835880 0.747370 1.002044
Cr2   Cr    Cr6+3 0.770360 0.835880 0.252630 1.002289
Cr3   Cr    Cr6+3 0.729640 0.335880 0.747370 1.002050
Cr4   Cr    Cr6+3 0.270360 0.335880 0.252630 1.002296
Cr5   Cr    Cr6+3 0.387390 0.989720 0.750850 1.003038
Cr6   Cr    Cr6+3 0.612610 0.989720 0.249150 1.000562
Cr7   Cr    Cr6+3 0.887390 0.489720 0.750850 1.003019
Cr8   Cr    Cr6+3 0.112610 0.489720 0.249150 1.000559
Cr9   Cr    Cr6+3 0.385770 0.677220 0.749340 1.003672
Cr10  Cr    Cr6+3 0.614230 0.677220 0.250660 1.002620
Cr11  Cr    Cr6+3 0.885770 0.177220 0.749340 1.003670
Cr12  Cr    Cr6+3 0.114230 0.177220 0.250660 1.002608
H1    H     H_    0.378721 0.885370 0.970963 0.111720
H2    H     H_    0.620579 0.760526 0.027794 0.120680
H3    H     H_    0.878587 0.384804 0.971066 0.111607
H4    H     H_    0.120690 0.261008 0.027713 0.120616
H5    H     H_    0.517849 0.016137 0.568048 0.121092
H6    H     H_    0.530138 0.021836 0.437904 0.139455
H7    H     H_    0.017860 0.516137 0.568054 0.121122
H8    H     H_    0.030152 0.521851 0.437911 0.139478
H9    H     H_    0.038251 0.083608 0.432839 0.163077
H10   H     H_    0.938444 0.045678 0.554059 0.139999
H11   H     H_    0.538240 0.583620 0.432845 0.163083
H12   H     H_    0.438425 0.545702 0.554058 0.140021
H13   H     H_    0.442064 0.550802 0.426249 0.126740
H14   H     H_    0.533511 0.586537 0.559534 0.135226
H15   H     H_    0.942069 0.050781 0.426249 0.126713
H16   H     H_    0.033535 0.086544 0.559529 0.135218
H17   H     H_    0.335411 0.462807 0.574867 0.117109
H18   H     H_    0.647513 0.512501 0.440624 0.118116
H19   H     H_    0.835432 0.962814 0.574867 0.117110
H20   H     H_    0.147515 0.012505 0.440622 0.118132
H21   H     H_    0.331640 0.448609 0.443504 0.125984
H22   H     H_    0.650015 0.505395 0.571675 0.116788
H23   H     H_    0.831668 0.948659 0.443503 0.125956
H24   H     H_    0.150017 0.005389 0.571673 0.116806
H25   H     H_    0.086095 0.707771 0.435289 0.134197
H26   H     H_    0.901079 0.596508 0.564367 0.176026
H27   H     H_    0.586012 0.207562 0.435310 0.134167
H28   H     H_    0.401074 0.096533 0.564381 0.176035
H29   H     H_    0.172454 0.788857 0.430426 0.137223
H30   H     H_    0.896495 0.765414 0.567584 0.121090
H31   H     H_    0.672342 0.288779 0.430497 0.137198
H32   H     H_    0.396472 0.265414 0.567590 0.121100
H33   H     H_    0.174109 0.807131 0.555901 0.171899
H34   H     H_    0.891167 0.769372 0.440211 0.132756
H35   H     H_    0.673901 0.307025 0.555970 0.171873
H36   H     H_    0.391157 0.269364 0.440214 0.132764
H37   H     H_    0.088112 0.725054 0.562300 0.125947
H38   H     H_    0.892969 0.600087 0.438454 0.141314
H39   H     H_    0.587962 0.224688 0.562329 0.125867
H40   H     H_    0.392970 0.100095 0.438463 0.141319
H41   H     H_    0.485061 0.038096 0.041097 0.104078
H42   H     H_    0.580325 0.951066 0.929978 0.129610
H43   H     H_    0.984780 0.537995 0.041182 0.104050
H44   H     H_    0.080038 0.451586 0.929967 0.129530
H45   H     H_    0.137161 0.659480 0.923881 0.138138
H46   H     H_    0.864688 0.628443 0.080977 0.126690
H47   H     H_    0.637159 0.159516 0.923884 0.138199
H48   H     H_    0.364643 0.128726 0.080900 0.126719
H49   H     H_    0.120094 0.614145 0.048331 0.143405
H50   H     H_    0.874836 0.617748 0.952690 0.137548
H51   H     H_    0.620108 0.114221 0.048343 0.143387
H52   H     H_    0.374702 0.118212 0.952615 0.137559
H53   H     H_    0.853138 0.817509 0.040673 0.147590
H54   H     H_    0.220726 0.819208 0.959024 0.154245
H55   H     H_    0.353316 0.317840 0.040770 0.147461
H56   H     H_    0.720654 0.319155 0.959098 0.154210
H57   H     H_    0.366110 0.468680 0.076244 0.142696
H58   H     H_    0.628502 0.378420 0.940999 0.134933
H59   H     H_    0.866053 0.968228 0.076249 0.142683
H60   H     H_    0.128529 0.878353 0.941030 0.134933
H61   H     H_    0.382703 0.543746 0.953715 0.155064
H62   H     H_    0.613238 0.406293 0.066963 0.134598
H63   H     H_    0.882748 0.043437 0.953721 0.154934
H64   H     H_    0.113362 0.906017 0.067023 0.134560
H65   H     H_    0.375501 0.383008 0.921993 0.140516
H66   H     H_    0.703525 0.342120 0.083873 0.150911
H67   H     H_    0.875386 0.882762 0.921933 0.140603
H68   H     H_    0.203714 0.842050 0.083823 0.150858
O1    O     O_R   0.214300 0.709080 0.827500 -0.536706
O2    O     O_R   0.785700 0.709080 0.172500 -0.535192
O3    O     O_R   0.714300 0.209080 0.827500 -0.536725
O4    O     O_R   0.285700 0.209080 0.172500 -0.535184
O5    O     O_R   0.445900 0.919370 0.676500 -0.508982
O6    O     O_R   0.554100 0.919370 0.323500 -0.509861
O7    O     O_R   0.945900 0.419370 0.676500 -0.508975
O8    O     O_R   0.054100 0.419370 0.323500 -0.509858
O9    O     O_R   0.456660 0.717710 0.669820 -0.517607
O10   O     O_R   0.543340 0.717710 0.330180 -0.522612
O11   O     O_R   0.956660 0.217710 0.669820 -0.517598
O12   O     O_R   0.043340 0.217710 0.330180 -0.522611
O13   O     O_R   0.320590 0.625770 0.672930 -0.505426
O14   O     O_R   0.679410 0.625770 0.327070 -0.508314
O15   O     O_R   0.820590 0.125770 0.672930 -0.505413
O16   O     O_R   0.179410 0.125770 0.327070 -0.508321
O17   O     O_3   0.334270 0.834280 0.749190 -0.260120
O18   O     O_3   0.665730 0.834280 0.250810 -0.270410
O19   O     O_3   0.834270 0.334280 0.749190 -0.260201
O20   O     O_3   0.165730 0.334280 0.250810 -0.270405
O21   O     O_R   0.236190 0.958390 0.823150 -0.498410
O22   O     O_R   0.763810 0.958390 0.176850 -0.501499
O23   O     O_R   0.736190 0.458390 0.823150 -0.498375
O24   O     O_R   0.263810 0.458390 0.176850 -0.501492
O25   O     O_R   0.332090 0.075280 0.831290 -0.521828
O26   O     O_R   0.667910 0.075280 0.168710 -0.525951
O27   O     O_R   0.832090 0.575280 0.831290 -0.521770
O28   O     O_R   0.167910 0.575280 0.168710 -0.525942
O29   O     O_R   0.446280 0.918040 0.826620 -0.515533
O30   O     O_R   0.553720 0.918040 0.173380 -0.526442
O31   O     O_R   0.946280 0.418040 0.826620 -0.515618
O32   O     O_R   0.053720 0.418040 0.173380 -0.526444
O33   O     O_R   0.457080 0.716270 0.831760 -0.527438
O34   O     O_R   0.542920 0.716270 0.168240 -0.519327
O35   O     O_R   0.957080 0.216270 0.831760 -0.527407
O36   O     O_R   0.042920 0.216270 0.168240 -0.519332
O37   O     O_R   0.320980 0.624440 0.823040 -0.501642
O38   O     O_R   0.679020 0.624440 0.176960 -0.499702
O39   O     O_R   0.820980 0.124440 0.823040 -0.501636
O40   O     O_R   0.179020 0.124440 0.176960 -0.499689
O41   O     O_R   0.213880 0.710510 0.665560 -0.526936
O42   O     O_R   0.786120 0.710510 0.334440 -0.521378
O43   O     O_R   0.713880 0.210510 0.665560 -0.526937
O44   O     O_R   0.286120 0.210510 0.334440 -0.521381
O45   O     O_R   0.235800 0.959720 0.673040 -0.507749
O46   O     O_R   0.764200 0.959720 0.326960 -0.505461
O47   O     O_R   0.735800 0.459720 0.673040 -0.507726
O48   O     O_R   0.264200 0.459720 0.326960 -0.505478
O49   O     O_R   0.331670 0.076720 0.669350 -0.522938
O50   O     O_R   0.668330 0.076720 0.330650 -0.516939
O51   O     O_R   0.831670 0.576720 0.669350 -0.522927
O52   O     O_R   0.168330 0.576720 0.330650 -0.516947
C121  C     C_3   0.526285 0.585314 0.955450 -0.390851
H69   H     H_    0.527970 0.524031 0.002599 0.124524
H70   H     H_    0.488452 0.550593 0.915478 0.148973
H71   H     H_    0.578382 0.586532 0.929341 0.144691
C122  C     C_3   0.398296 0.698642 0.079660 -0.399961
H72   H     H_    0.423045 0.624698 0.111667 0.151249
H73   H     H_    0.376589 0.766439 0.117222 0.133805
H74   H     H_    0.353839 0.668042 0.045653 0.132369
C123  C     C_3   0.026515 0.085448 0.955341 -0.390694
H75   H     H_    0.028480 0.024185 0.002494 0.124562
H76   H     H_    0.988536 0.050574 0.915556 0.148852
H77   H     H_    0.078496 0.086869 0.928996 0.144778
C124  C     C_3   0.898606 0.197970 0.079702 -0.399705
H78   H     H_    0.923535 0.123757 0.111374 0.151192
H79   H     H_    0.877015 0.265400 0.117579 0.133938
H80   H     H_    0.854037 0.167631 0.045753 0.132348

loop_
_geom_bond_atom_site_label_1
_geom_bond_atom_site_label_2
_ccdc_geom_bond_type
Cr12  O40   S    
C89   O1    A    
C55   C56   A    
Cr4   O20   S    
C67   C83   S    
C88   H40   S    
C57   H13   S    
C5    C114  S    
C23   C39   A    
Cr1   O21   S    
C64   C80   A    
C5    C117  S    
C14   C18   A    
C83   C87   S    
C111  C112  S    
Cr12  O12   S    
C73   C93   A    
C39   C91   S    
C22   H46   S    
C31   H59   S    
C60   H16   S    
C115  H3    S    
Cr3   O43   S    
C28   H52   S    
C84   H28   S    
Cr7   O19   S    
C7    C8    S    
Cr2   O42   S    
C63   C79   A    
C53   C54   A    
C15   C19   A    
C32   H60   S    
C33   H65   S    
Cr8   O52   S    
C55   H7    S    
C17   C33   S    
C12   C28   A    
C6    C122  S    
C111  H43   S    
C32   C36   S    
C13   C29   S    
Cr6   O30   S    
C45   O33   A    
C98   O46   A    
C63   C98   S    
C69   C93   A    
Cr8   O28   S    
C42   C53   A    
C97   O45   A    
C123  H75   S    
C56   H8    S    
C72   C96   A    
C109  H41   S    
C59   H15   S    
C71   C95   A    
C76   H20   S    
C45   C117  S    
C22   C38   A    
C29   C33   S    
C2    O22   A    
C91   O3    A    
C49   C57   S    
C41   C102  S    
C46   C118  S    
Cr11  O19   S    
C122  H72   S    
C5    C121  S    
Cr10  O18   S    
C9    C13   A    
C43   C104  S    
C1    O21   A    
Cr9   O17   S    
C83   H27   S    
C52   C60   S    
C8    C115  S    
C93   C105  S    
Cr5   O5    S    
C11   C15   A    
Cr10  O38   S    
C12   C16   A    
C75   H19   S    
C88   H36   S    
C86   H34   S    
C24   H48   S    
C106  O42   A    
C3    O23   A    
Cr4   O24   S    
C121  H69   S    
Cr12  O16   S    
C104  O8    A    
C23   C27   A    
Cr4   O44   S    
C24   C28   A    
C124  H78   S    
Cr8   O20   S    
C23   H47   S    
C84   H32   S    
C109  C113  S    
Cr2   O46   S    
C60   H10   S    
C34   H62   S    
Cr1   O45   S    
C96   C108  S    
Cr2   O22   S    
C33   H61   S    
C59   C60   S    
Cr8   O32   S    
C113  H1    S    
C100  O52   A    
Cr7   O27   S    
C46   O30   A    
C107  O43   A    
C75   C79   A    
Cr6   O26   S    
C1    C12   S    
C45   O29   A    
C14   C30   S    
C2    O26   A    
Cr5   O25   S    
C2    C11   S    
C101  O5    A    
C110  C117  S    
C41   C49   A    
C72   C88   S    
C44   C103  S    
C25   H49   S    
C109  C118  S    
C80   H24   S    
C47   O35   A    
C110  H42   S    
C70   C94   A    
C106  O14   A    
C63   C67   A    
C81   H25   S    
C90   O38   A    
C75   C95   A    
C51   C52   A    
C68   C84   S    
C35   H67   S    
C7    C119  S    
C62   C66   A    
Cr7   O7    S    
C48   C120  S    
C21   C25   A    
C10   C14   A    
C3    O27   A    
C103  O11   A    
C37   C89   S    
C123  H76   S    
C31   C35   S    
C30   C34   S    
C102  O10   A    
C97   O49   A    
Cr10  O14   S    
C82   H30   S    
C101  O9    A    
C82   C86   S    
Cr11  O15   S    
Cr10  O34   S    
C85   H37   S    
C116  C120  S    
C115  C119  S    
Cr9   O33   S    
C68   C72   A    
Cr12  O20   S    
C50   C58   S    
C7    C116  S    
Cr4   O48   S    
Cr1   O41   S    
C36   H64   S    
C6    C113  S    
C100  O48   A    
C69   C85   S    
C89   O37   A    
C66   C82   S    
C102  O6    A    
C34   H66   S    
C65   C81   S    
C114  C118  S    
C11   C27   A    
C16   C20   A    
C87   H39   S    
C31   H53   S    
C123  H77   S    
Cr7   O31   S    
C10   C26   A    
C114  H2    S    
C107  O15   A    
C82   H26   S    
C48   O36   A    
C40   C92   S    
C92   O40   A    
C18   C34   S    
C108  O16   A    
C87   H35   S    
C95   C107  S    
C83   H31   S    
C42   C50   A    
C71   C87   S    
C26   H50   S    
C47   O31   A    
C99   O51   A    
C64   C97   S    
C112  H44   S    
Cr4   O4    S    
C54   H6    S    
C61   C77   A    
C46   O34   A    
Cr11  O11   S    
C29   H57   S    
Cr10  O10   S    
C61   C100  S    
C51   C59   S    
C17   C37   A    
Cr9   O9    S    
C48   O32   A    
C70   C86   S    
C42   C101  S    
C64   C68   A    
C110  C114  S    
C112  C116  S    
C77   H21   S    
C47   C119  S    
C8    C120  S    
Cr7   O51   S    
C121  H70   S    
C53   H5    S    
C113  C117  S    
C1    O25   A    
C65   C69   A    
Cr3   O19   S    
C94   C106  S    
C73   C77   A    
Cr2   O18   S    
C108  O44   A    
C73   H17   S    
C86   H38   S    
Cr1   O17   S    
C62   C78   A    
C78   H22   S    
C76   C80   A    
C103  O7    A    
C8    C124  S    
C98   O50   A    
C105  O13   A    
C92   O4    A    
C44   C52   A    
C9    C25   A    
C112  C119  S    
C111  C115  S    
C58   H14   S    
C15   C31   S    
C36   H68   S    
C116  H4    S    
C13   C17   A    
C16   C32   S    
C35   H63   S    
C29   H55   S    
C38   C90   S    
Cr5   O29   S    
C32   H54   S    
Cr6   O50   S    
C122  H74   S    
C85   H33   S    
Cr2   O2    S    
C121  H71   S    
Cr5   O49   S    
C18   C38   A    
C74   H18   S    
Cr1   O1    S    
Cr11  O35   S    
C124  H79   S    
C4    O24   A    
C109  C110  S    
C76   C96   A    
C81   H29   S    
C44   C55   A    
C43   C51   A    
C57   C58   S    
C5    C6    S    
C84   C88   S    
Cr3   O23   S    
Cr6   O6    S    
C20   C40   A    
C30   H58   S    
C21   H45   S    
C24   C40   A    
Cr12  O36   S    
C6    C118  S    
C7    C123  S    
C67   C71   A    
C4    O28   A    
C61   C65   A    
Cr9   O13   S    
C124  H80   S    
C27   H51   S    
C41   C54   A    
Cr3   O47   S    
Cr9   O37   S    
Cr11  O39   S    
C79   H23   S    
C62   C99   S    
C20   C36   S    
C58   H12   S    
C43   C56   A    
C21   C37   A    
C66   C70   A    
C59   H9    S    
C19   C39   A    
C49   C50   A    
C22   C26   A    
C91   O39   A    
C74   C94   A    
C3    C10   S    
C104  O12   A    
C111  C120  S    
C19   C35   S    
Cr8   O8    S    
Cr3   O3    S    
C122  H73   S    
C4    C9    S    
C99   O47   A    
C105  O41   A    
C81   C85   S    
Cr6   O18   S    
C57   H11   S    
C30   H56   S    
C74   C78   A    
C90   O2    A    
Cr5   O17   S    
