data_mof_unit_47903.cif
_audit_creation_date              2012-12-11T14:06:52-0500
_audit_creation_method            fapswitch 2.2
_symmetry_space_group_name_H-M    P1
_symmetry_Int_Tables_number       1
_space_group_crystal_system       triclinic
_cell_length_a                    6.928368
_cell_length_b                    17.288438
_cell_length_c                    24.097334
_cell_angle_alpha                 104.499968
_cell_angle_beta                  90.408639
_cell_angle_gamma                 90.002793
_cell_volume                      2794.38042186

loop_
_atom_site_label
_atom_site_type_symbol
_atom_type_description
_atom_site_fract_x
_atom_site_fract_y
_atom_site_fract_z
_atom_type_partial_charge
O1    O     O_R   0.494290 0.391990 0.999150 -0.535013
O2    O     O_R   0.827170 0.534410 0.082350 -0.542251
O3    O     O_R   0.994360 0.608010 0.000850 -0.535386
C1    C     C_R   0.658698 0.550084 0.106097 0.717774
O4    O     O_R   0.824210 0.388010 0.004470 -0.545925
O5    O     O_R   0.991370 0.460560 0.922410 -0.541129
C2    C     C_R   0.654519 0.354888 0.001476 0.776213
O6    O     O_R   0.497270 0.539440 0.077590 -0.538970
O7    O     O_3   0.659770 0.523970 0.973170 -0.373102
V1    V     V_3+5 0.935840 0.495550 0.004980 1.419058
O8    O     O_R   0.320910 0.465590 0.917650 -0.543794
C3    C     C_R   0.151373 0.450179 0.893904 0.706593
O9    O     O_R   0.323870 0.611990 0.995530 -0.546894
C4    C     C_R   0.154413 0.645123 0.998530 0.773365
V2    V     V_3+5 0.435470 0.504450 0.995020 1.416411
O10   O     O_3   0.161670 0.476030 0.026830 -0.369232
C5    C     C_2   0.142755 0.730289 0.998117 -0.340418
H1    H     H_    0.277099 0.761170 0.994757 0.150468
C6    C     C_2   0.972803 0.769758 0.002032 -0.339454
H2    H     H_    0.838461 0.738878 0.005395 0.150233
C7    C     C_R   0.009242 0.254950 0.626983 0.577548
N1    N     N_R   0.098284 0.327338 0.648570 -0.559857
C8    C     C_R   0.172005 0.370062 0.612574 0.577752
C9    C     C_R   0.157595 0.340414 0.552628 -0.024246
C10   C     C_R   0.065621 0.266452 0.529988 -0.016640
C11   C     C_R   0.990577 0.223228 0.567354 -0.026010
C12   C     C_R   0.231853 0.383065 0.514880 -0.146030
C13   C     C_R   0.215047 0.352683 0.455550 -0.129850
C14   C     C_R   0.123679 0.278850 0.432468 -0.029954
C15   C     C_R   0.048641 0.235634 0.469841 -0.017831
C16   C     C_R   0.956743 0.161652 0.447209 -0.022585
C17   C     C_R   0.882383 0.119020 0.484950 -0.146193
C18   C     C_R   0.899105 0.149421 0.544274 -0.139121
C19   C     C_R   0.105189 0.247066 0.372835 0.586238
N2    N     N_R   0.016361 0.174626 0.351268 -0.561328
C20   C     C_R   0.942563 0.131941 0.387274 0.575838
O11   O     O_2   0.940247 0.213355 0.663065 -0.514045
O12   O     O_2   0.257052 0.441464 0.634631 -0.514783
H3    H     H_    0.303225 0.440088 0.531031 0.158580
H4    H     H_    0.274048 0.387260 0.427859 0.183812
O13   O     O_2   0.174175 0.288631 0.336734 -0.503914
O14   O     O_2   0.857680 0.060500 0.365233 -0.515463
H5    H     H_    0.811047 0.061983 0.468802 0.158636
H6    H     H_    0.840035 0.114852 0.571960 0.177929
C21   C     C_R   0.170085 0.123928 0.256896 -0.079661
H7    H     H_    0.310688 0.132915 0.277418 0.123609
C22   C     C_R   0.157490 0.093642 0.197428 -0.193089
H8    H     H_    0.289868 0.080188 0.173346 0.131023
C23   C     C_R   0.976603 0.080999 0.169518 -0.058741
C24   C     C_R   0.808691 0.099270 0.202842 -0.193531
H9    H     H_    0.667140 0.090596 0.182922 0.128602
C25   C     C_R   0.821666 0.129803 0.262379 -0.070697
H10   H     H_    0.690880 0.144153 0.287138 0.127282
C26   C     C_R   0.002484 0.142538 0.289880 0.373501
C27   C     C_R   0.945023 0.377645 0.743053 -0.080550
H11   H     H_    0.804322 0.368818 0.722580 0.123876
C28   C     C_R   0.957852 0.407398 0.802560 -0.194980
H12   H     H_    0.825547 0.420659 0.826704 0.131038
C29   C     C_R   0.138844 0.419742 0.830431 -0.058198
C30   C     C_R   0.306640 0.401781 0.797015 -0.194688
H13   H     H_    0.448265 0.410281 0.816899 0.128441
C31   C     C_R   0.293430 0.371768 0.737427 -0.074931
H14   H     H_    0.424122 0.357574 0.712598 0.126999
C32   C     C_R   0.112486 0.359263 0.709974 0.373941
C33   C     C_R   0.574450 0.875641 0.614850 0.575793
N3    N     N_R   0.505762 0.827658 0.647941 -0.561400
C34   C     C_R   0.455114 0.749679 0.623504 0.579592
C35   C     C_R   0.474118 0.717098 0.563934 -0.028157
C36   C     C_R   0.545306 0.765621 0.529612 -0.013829
C37   C     C_R   0.595441 0.845658 0.555114 -0.025197
C38   C     C_R   0.425277 0.637149 0.537988 -0.135724
C39   C     C_R   0.447361 0.605844 0.478932 -0.129328
C40   C     C_R   0.518229 0.653745 0.444226 -0.031215
C41   C     C_R   0.566781 0.734000 0.469671 -0.017576
C42   C     C_R   0.636986 0.782689 0.435318 -0.027528
C43   C     C_R   0.685948 0.862598 0.461244 -0.134073
C44   C     C_R   0.665697 0.893647 0.520373 -0.144977
C45   C     C_R   0.541472 0.623548 0.384587 0.645056
N4    N     N_R   0.608157 0.671879 0.351554 -0.556315
C46   C     C_R   0.655852 0.750152 0.375777 0.599927
O15   O     O_2   0.621559 0.952311 0.639560 -0.514077
O16   O     O_2   0.388970 0.703368 0.656759 -0.509384
H15   H     H_    0.370266 0.598382 0.563259 0.179129
H16   H     H_    0.408418 0.543998 0.460577 0.162517
O17   O     O_2   0.497744 0.546543 0.359858 -0.488833
O18   O     O_2   0.721493 0.796385 0.342400 -0.506481
H17   H     H_    0.740347 0.901444 0.435943 0.178810
H18   H     H_    0.705351 0.955413 0.538738 0.159643
C47   C     C_R   0.471785 0.652364 0.254370 -0.101240
H19   H     H_    0.344311 0.684783 0.272765 0.152385
C48   C     C_R   0.482911 0.622343 0.194878 -0.185490
H20   H     H_    0.362561 0.632266 0.168583 0.137716
C49   C     C_R   0.648298 0.581250 0.169574 -0.089815
C50   C     C_R   0.801648 0.570365 0.205535 -0.216868
H21   H     H_    0.930207 0.538608 0.187304 0.154935
C51   C     C_R   0.788913 0.598975 0.265401 0.201954
C52   C     C_R   0.623472 0.640660 0.290180 0.343236
C53   C     C_R   0.311602 0.868876 0.736662 -0.076860
H22   H     H_    0.180703 0.853368 0.711523 0.122507
C54   C     C_R   0.299291 0.898932 0.796348 -0.193603
H23   H     H_    0.158245 0.905604 0.816012 0.127230
C55   C     C_R   0.467371 0.919387 0.830148 -0.058806
C56   C     C_R   0.647585 0.909348 0.802457 -0.192584
H24   H     H_    0.780244 0.924369 0.826794 0.131518
C57   C     C_R   0.659461 0.879719 0.742908 -0.083601
H25   H     H_    0.799711 0.872306 0.722740 0.119673
C58   C     C_R   0.491886 0.859026 0.709446 0.376495
C59   C     C_2   0.642837 0.269718 0.001894 -0.336956
H26   H     H_    0.777336 0.238839 0.005261 0.150681
C60   C     C_2   0.472673 0.230242 0.997974 -0.337295
H27   H     H_    0.338172 0.261122 0.994610 0.150731
O19   O     O_R   0.618210 0.960470 0.922400 -0.540824
O20   O     O_R   0.291310 0.111960 0.995450 -0.545433
O21   O     O_R   0.124210 0.039530 0.077580 -0.540652
C61   C     C_R   0.460996 0.145082 0.998421 0.776566
O22   O     O_R   0.288310 0.965490 0.917650 -0.542678
O23   O     O_R   0.121180 0.892010 0.999220 -0.535453
C62   C     C_R   0.456834 0.949974 0.893808 0.705565
O24   O     O_R   0.621230 0.107990 0.000760 -0.535216
O25   O     O_3   0.455770 0.976060 0.026840 -0.371810
V3    V     V_3+5 0.179680 0.004440 0.995020 1.414593
O26   O     O_R   0.791670 0.888040 0.004570 -0.545930
C63   C     C_R   0.961134 0.854912 0.001584 0.774854
O27   O     O_R   0.794680 0.034510 0.082370 -0.543551
C64   C     C_R   0.964203 0.050077 0.106085 0.708296
V4    V     V_3+5 0.680070 0.995560 0.005010 1.413984
O28   O     O_3   0.953840 0.023940 0.973160 -0.371462
I1    I     I_    0.020857 0.577487 0.317092 -0.329442

loop_
_geom_bond_atom_site_label_1
_geom_bond_atom_site_label_2
_ccdc_geom_bond_type
C27   H11   S    
C49   C50   A    
C40   C41   A    
C20   O14   S    
N2    C20   A    
C9    C12   A    
N3    C58   S    
C1    O6    A    
C22   C23   A    
C21   H7    S    
O25   V3    S    
C57   C58   A    
C6    C63   S    
C31   H14   S    
C13   C14   A    
V3    O28   S    
C36   C37   A    
C35   C38   A    
O5    C3    A    
C15   C16   A    
O25   V4    S    
C28   C29   A    
C13   H4    S    
C33   C37   A    
C59   H26   S    
C51   I1    S    
C30   C31   A    
C19   N2    A    
O23   V3    S    
C60   H27   S    
C31   C32   A    
O21   V3    S    
O8    V2    S    
C16   C17   A    
C44   H18   S    
C12   H3    S    
C35   C36   A    
C24   C25   A    
C40   C45   A    
O1    V2    S    
C47   C48   A    
C42   C46   A    
C16   C20   A    
O19   V4    S    
C55   C62   S    
N3    C34   A    
C29   C30   A    
O9    C4    A    
C51   C52   A    
N2    C26   S    
C3    C29   S    
C4    C5    S    
C55   C56   A    
C19   O13   S    
C7    C11   A    
C25   C26   A    
C24   H9    S    
C38   H15   S    
C21   C22   A    
C37   C44   A    
C41   C42   A    
C34   C35   A    
C43   C44   A    
O22   V3    S    
C48   H20   S    
O4    C2    A    
O21   C64   A    
C45   N4    A    
C10   C11   A    
C14   C19   A    
C53   C58   A    
N4    C46   A    
C61   O24   A    
C47   C52   A    
C30   H13   S    
O26   V4    S    
O2    C1    A    
C42   C43   A    
C14   C15   A    
C48   C49   A    
C11   C18   A    
C33   O15   S    
C22   H8    S    
C8    C9    A    
C27   C32   A    
C54   C55   A    
C5    H1    S    
O20   V3    S    
C36   C41   A    
C56   C57   A    
C9    C10   A    
C50   C51   A    
C43   H17   S    
C39   H16   S    
O3    C4    A    
O22   C62   A    
C45   O17   S    
C21   C26   A    
C53   H22   S    
O6    V2    S    
C53   C54   A    
O9    V2    S    
O2    V1    S    
C12   C13   A    
C25   H10   S    
O27   V4    S    
O7    V1    S    
C10   C15   A    
O1    C2    A    
C18   H6    S    
N4    C52   S    
N1    C8    A    
C39   C40   A    
O5    V1    S    
O8    C3    A    
C8    O12   S    
C23   C64   S    
C57   H25   S    
C46   O18   S    
C17   C18   A    
C6    H2    S    
C27   C28   A    
O7    V2    S    
O4    V1    S    
O3    V1    S    
V1    O10   S    
O19   C62   A    
C28   H12   S    
V4    O28   S    
C54   H23   S    
C5    C6    D    
C17   H5    S    
C59   C60   D    
C33   N3    A    
O23   C63   A    
C50   H21   S    
N1    C32   S    
C1    C49   S    
O24   V4    S    
C38   C39   A    
C7    O11   S    
C34   O16   S    
C23   C24   A    
C56   H24   S    
O26   C63   A    
C2    C59   S    
C47   H19   S    
C7    N1    A    
C60   C61   S    
V2    O10   S    
O27   C64   A    
O20   C61   A    
