data_mof_unit_16126.cif
_audit_creation_date              2012-10-26T20:18:08-0400
_audit_creation_method            fapswitch 2.2
_symmetry_space_group_name_H-M    P1
_symmetry_Int_Tables_number       1
_space_group_crystal_system       triclinic
_cell_length_a                    23.512079
_cell_length_b                    8.673787
_cell_length_c                    7.421612
_cell_angle_alpha                 103.111192
_cell_angle_beta                  93.908971
_cell_angle_gamma                 92.601092
_cell_volume                      1467.78292698

loop_
_atom_site_label
_atom_site_type_symbol
_atom_type_description
_atom_site_fract_x
_atom_site_fract_y
_atom_site_fract_z
_atom_type_partial_charge
C1    C     C_R   0.498225 0.199513 0.453038 0.543831
C2    C     C_R   0.706523 0.534446 0.658042 -0.196226
C3    C     C_R   0.244088 0.481615 0.671086 -0.115219
C4    C     C_R   0.765626 0.539866 0.657610 -0.082064
C5    C     C_R   0.210300 0.518913 0.526629 0.234698
C6    C     C_R   0.791479 0.514017 0.490237 0.177461
C7    C     C_2   0.497415 0.031530 0.426538 -0.162286
C8    C     C_2   0.501887 0.968337 0.573388 -0.162211
C9    C     C_R   0.391068 0.503103 0.503252 0.562529
C10   C     C_R   0.609113 0.499022 0.496713 0.557466
C11   C     C_R   0.883924 0.656941 0.552619 0.439225
C12   C     C_R   0.501526 0.800446 0.546957 0.543944
C13   C     C_R   0.118066 0.377263 0.461391 0.472031
C14   C     C_R   0.877767 0.375703 0.442776 0.411858
C15   C     C_R   0.124758 0.655132 0.596438 0.451387
C16   C     C_R   0.937395 0.373915 0.433319 -0.001892
C17   C     C_R   0.064818 0.661384 0.578144 0.008616
C18   C     C_R   0.970955 0.517868 0.500832 -0.133454
C19   C     C_R   0.031182 0.517610 0.509152 -0.131162
C20   C     C_R   0.944182 0.661720 0.561280 0.036571
C21   C     C_R   0.057858 0.373343 0.449777 0.037275
C22   C     C_R   0.964220 0.232187 0.361730 0.246479
C23   C     C_R   0.235104 0.555815 0.373750 0.306496
C24   C     C_R   0.037767 0.806276 0.628350 0.235538
C25   C     C_R   0.024218 0.230496 0.376144 0.303695
C26   C     C_R   0.977732 0.806011 0.625747 0.306825
C27   C     C_3   0.335718 0.758020 0.261417 -0.007600
C28   C     C_3   0.365407 0.799171 0.101046 -0.343443
C29   C     C_3   0.658917 0.262396 0.091347 0.017867
C30   C     C_3   0.621804 0.217852 0.909069 -0.333524
C31   C     C_R   0.757427 0.480733 0.319515 0.307189
C32   C     C_R   0.295039 0.556596 0.367493 0.231291
C33   C     C_R   0.697699 0.467196 0.320100 0.287229
C34   C     C_R   0.328879 0.512568 0.510928 -0.029822
C35   C     C_R   0.671806 0.499588 0.490467 -0.053729
C36   C     C_R   0.302947 0.478228 0.663340 -0.209440
Cu1   Cu    Cu3+1 0.506340 0.517380 0.684380 0.935024
Cu2   Cu    Cu3+1 0.493660 0.482620 0.315620 0.973599
H1    H     H_    0.328139 0.446193 0.775514 0.172103
H2    H     H_    0.094359 0.952845 0.576030 0.391773
H3    H     H_    0.022817 0.999325 0.280899 0.373812
H4    H     H_    0.979079 0.036169 0.730925 0.374520
H5    H     H_    0.221969 0.607057 0.131655 0.355069
H6    H     H_    0.821934 0.490565 0.169090 0.337355
H7    H     H_    0.365917 0.792044 0.388355 0.133561
H8    H     H_    0.297357 0.828778 0.283031 0.159360
H9    H     H_    0.335888 0.771121 0.973039 0.165257
H10   H     H_    0.378661 0.927671 0.134685 0.103681
H11   H     H_    0.403908 0.730179 0.076045 0.188145
H12   H     H_    0.688053 0.557863 0.790594 0.193342
H13   H     H_    0.637941 0.208185 0.194438 0.121204
H14   H     H_    0.701197 0.211754 0.067322 0.185019
H15   H     H_    0.641656 0.268951 0.802336 0.173825
H16   H     H_    0.617168 0.086780 0.859516 0.094869
H17   H     H_    0.578816 0.263436 0.929335 0.188357
H18   H     H_    0.224486 0.452997 0.788247 0.167196
H19   H     H_    0.791643 0.564653 0.788258 0.186363
H20   H     H_    0.493284 0.959594 0.285156 0.125837
H21   H     H_    0.505848 0.040215 0.714742 0.123144
H22   H     H_    0.454752 0.379547 0.948734 0.243019
H23   H     H_    0.545277 0.620363 0.051254 0.255704
H24   H     H_    0.906070 0.124014 0.176254 0.368103
N1    N     N_R   0.852619 0.515814 0.495080 -0.430462
N2    N     N_R   0.149521 0.516384 0.532094 -0.384304
N3    N     N_2   0.484110 0.456420 0.038520 -0.269780
N4    N     N_2   0.515890 0.543580 0.961480 -0.264418
O1    O     O_R   0.504120 0.286130 0.619770 -0.515366
O2    O     O_2   0.145475 0.243970 0.402066 -0.389070
O3    O     O_2   0.844847 0.238916 0.404619 -0.419753
O4    O     O_2   0.158484 0.785159 0.680082 -0.436456
O5    O     O_3   0.933047 0.095039 0.270035 -0.632810
O6    O     O_3   0.068755 0.950365 0.676183 -0.640295
O7    O     O_3   0.050908 0.091735 0.311852 -0.615536
O8    O     O_3   0.950823 0.945920 0.681244 -0.591946
O9    O     O_3   0.199387 0.589829 0.233887 -0.661207
O10   O     O_3   0.780517 0.460259 0.149893 -0.675351
O11   O     O_3   0.319980 0.593869 0.217853 -0.565779
O12   O     O_R   0.495880 0.713870 0.380230 -0.513253
O13   O     O_3   0.664879 0.429339 0.152340 -0.524267
O14   O     O_R   0.493410 0.256770 0.308360 -0.506379
O15   O     O_R   0.506590 0.743230 0.691640 -0.500524
O16   O     O_R   0.423230 0.514630 0.655730 -0.520898
O17   O     O_R   0.576770 0.485370 0.344270 -0.457625
O18   O     O_R   0.412530 0.485280 0.344320 -0.445782
O19   O     O_R   0.587470 0.514720 0.655680 -0.507111
O20   O     O_2   0.856371 0.791496 0.600914 -0.378299

loop_
_geom_bond_atom_site_label_1
_geom_bond_atom_site_label_2
_ccdc_geom_bond_type
C2    C35   A    
C10   O19   A    
Cu2   O17   S    
C7    C8    D    
C28   H9    S    
C30   H16   S    
C29   C30   S    
Cu2   O14   S    
Cu1   O19   S    
C19   C21   A    
C24   C26   A    
C11   N1    A    
C8    H21   S    
C11   O20   S    
C10   O17   A    
C18   C20   A    
C18   C19   A    
C28   H11   S    
H6    O10   S    
C26   O8    S    
C2    H12   S    
C17   C19   A    
C32   O11   S    
H23   N4    S    
C22   C25   A    
C29   O13   S    
C4    H19   S    
H24   O5    S    
C15   N2    A    
C31   C33   A    
C10   C35   S    
C7    H20   S    
C25   O7    S    
C9    O16   A    
C27   H7    S    
C6    C31   A    
Cu1   O15   S    
H5    O9    S    
C30   H15   S    
C11   C20   A    
H4    O8    S    
C17   C24   A    
C4    C6    A    
C33   O13   S    
Cu2   O12   S    
C3    C5    A    
C5    N2    S    
C12   O12   A    
C32   C34   A    
C6    N1    S    
C2    C4    A    
Cu1   Cu2   S    
C3    H18   S    
C5    C23   A    
Cu2   N3    S    
C8    C12   S    
Cu1   N4    S    
C13   C21   A    
C27   H8    S    
H22   N3    S    
C9    C34   S    
C14   O3    S    
C14   C16   A    
Cu1   O16   S    
C22   O5    S    
C24   O6    S    
C29   H13   S    
C15   C17   A    
C15   O4    S    
C21   C25   A    
C28   H10   S    
C16   C22   A    
H2    O6    S    
Cu2   O18   S    
C1    C7    S    
C36   H1    S    
C23   O9    S    
C27   O11   S    
C1    O1    A    
C30   H17   S    
C23   C32   A    
C31   O10   S    
C13   N2    A    
C20   C26   A    
C3    C36   A    
C14   N1    A    
Cu1   O1    S    
C33   C35   A    
C12   O15   A    
C34   C36   A    
C9    O18   A    
H3    O7    S    
C16   C18   A    
N3    N4    D    
C27   C28   S    
C1    O14   A    
C13   O2    S    
C29   H14   S    
