data_mof_unit_49169.cif
_audit_creation_date              2012-12-11T17:09:25-0500
_audit_creation_method            fapswitch 2.2
_symmetry_space_group_name_H-M    P1
_symmetry_Int_Tables_number       1
_space_group_crystal_system       triclinic
_cell_length_a                    14.751101
_cell_length_b                    7.062713
_cell_length_c                    13.468996
_cell_angle_alpha                 89.987494
_cell_angle_beta                  99.90734
_cell_angle_gamma                 90.030047
_cell_volume                      1382.31134584

loop_
_atom_site_label
_atom_site_type_symbol
_atom_type_description
_atom_site_fract_x
_atom_site_fract_y
_atom_site_fract_z
_atom_type_partial_charge
O1    O     O_R   0.586930 0.505770 0.416350 -0.538387
O2    O     O_R   0.413070 0.005770 0.583650 -0.546203
O3    O     O_R   0.397900 0.173100 0.389630 -0.523610
O4    O     O_R   0.602100 0.673100 0.610370 -0.542214
C1    C     C_R   0.364963 0.345320 0.362794 0.820264
C2    C     C_R   0.635012 0.845350 0.637231 0.685528
O5    O     O_R   0.585280 0.175870 0.404330 -0.542741
O6    O     O_R   0.414720 0.675870 0.595670 -0.499522
O7    O     O_R   0.601790 0.008380 0.598460 -0.556052
O8    O     O_R   0.398210 0.508380 0.401540 -0.529966
C3    C     C_R   0.617168 0.344492 0.386084 0.686520
C4    C     C_R   0.386340 0.844923 0.617936 0.785151
O9    O     O_3   0.505200 0.340120 0.563670 -0.381118
O10   O     O_3   0.494800 0.840120 0.436330 -0.370881
V1    V     V_3+5 0.499040 0.064180 0.488190 1.524519
V2    V     V_3+5 0.500960 0.564180 0.511810 1.552698
C5    C     C_R   0.260449 0.007194 0.689254 -0.021215
C6    C     C_R   0.759763 0.493914 0.332983 0.008786
C7    C     C_R   0.321233 0.854674 0.691063 -0.183186
C8    C     C_R   0.693234 0.351615 0.325587 -0.182289
C9    C     C_R   0.322148 0.717911 0.768822 0.470715
C10   C     C_R   0.731221 0.189270 0.288863 0.438088
C11   C     C_R   0.256628 0.728891 0.835769 0.398988
C12   C     C_R   0.754931 0.219951 0.190424 0.504390
C13   C     C_R   0.192405 0.879116 0.826822 -0.162263
C14   C     C_R   0.814574 0.378078 0.183689 -0.200881
C15   C     C_R   0.204902 0.026228 0.762879 -0.131886
C16   C     C_R   0.814569 0.513594 0.258381 -0.021184
C17   C     C_3   0.246476 0.215915 0.793338 0.295305
C18   C     C_3   0.790458 0.718618 0.255522 0.234821
C19   C     C_3   0.286295 0.210407 0.696315 0.203855
C20   C     C_3   0.766307 0.691675 0.361021 0.199319
H1    H     H_    0.194009 0.327064 0.796675 0.142374
H2    H     H_    0.848568 0.815443 0.249625 0.104591
H3    H     H_    0.361223 0.239211 0.704774 0.142575
H4    H     H_    0.701763 0.757563 0.376024 0.115161
C21   C     C_1   0.783044 0.877461 0.783616 -0.129916
C22   C     C_1   0.216431 0.377249 0.217026 -0.137526
C23   C     C_1   0.715424 0.860224 0.717499 -0.117427
C24   C     C_1   0.284117 0.359995 0.283040 -0.092718
O11   O     O_R   0.101720 0.231700 0.098560 -0.520517
O12   O     O_R   0.898280 0.731700 0.901440 -0.529166
O13   O     O_R   0.914700 0.558980 0.095690 -0.528772
O14   O     O_R   0.085300 0.058980 0.904310 -0.528069
C25   C     C_R   0.883112 0.390004 0.114286 0.674113
C26   C     C_R   0.117303 0.890185 0.887018 0.775866
O15   O     O_R   0.102080 0.561590 0.110390 -0.549894
O16   O     O_R   0.897920 0.061590 0.889610 -0.553057
O17   O     O_R   0.086950 0.728940 0.916330 -0.527176
O18   O     O_R   0.913050 0.228940 0.083670 -0.549977
C27   C     C_R   0.135615 0.392058 0.137258 0.770778
C28   C     C_R   0.864129 0.892100 0.863054 0.747256
O19   O     O_3   0.994770 0.394510 0.936380 -0.368026
O20   O     O_3   0.005230 0.894510 0.063620 -0.381373
V3    V     V_3+5 0.000970 0.670520 0.011800 1.523868
V4    V     V_3+5 0.999030 0.170520 0.988200 1.525705
O21   O     O_3   0.385695 0.572454 0.778678 -0.537501
C29   C     C_3   0.473523 0.640124 0.823893 -0.023880
H5    H     H_    0.475621 0.670865 0.904942 0.153176
H6    H     H_    0.496022 0.767413 0.786267 0.057000
H7    H     H_    0.524840 0.527279 0.818933 0.134359
O22   O     O_3   0.800070 0.096695 0.356514 -0.579103
C30   C     C_3   0.794670 0.121361 0.460883 -0.003159
H8    H     H_    0.739367 0.032005 0.482172 0.118367
H9    H     H_    0.786489 0.268642 0.485420 0.109358
H10   H     H_    0.861174 0.084308 0.507693 0.245234
O23   O     O_3   0.256922 0.595359 0.910732 -0.537376
C31   C     C_3   0.295842 0.673817 0.005189 0.025017
H11   H     H_    0.304174 0.559164 0.062207 0.153356
H12   H     H_    0.250671 0.782035 0.030896 0.101662
H13   H     H_    0.365266 0.733779 0.004675 0.140538
O24   O     O_3   0.684603 0.175919 0.110079 -0.495124
C32   C     C_3   0.701005 0.226935 0.013323 -0.033838
H14   H     H_    0.759493 0.146235 0.993114 0.123512
H15   H     H_    0.710021 0.382036 0.005690 0.118017
H16   H     H_    0.639494 0.187268 0.957588 0.150308
S1    S     S_3+6 0.333132 0.189496 0.908029 -0.035301
O25   O     O_2   0.391441 0.361075 0.934329 -0.313053
O26   O     O_2   0.285079 0.145781 0.995035 -0.362591
O27   O     O_3   0.406576 0.013956 0.895392 -0.573290
H17   H     H_    0.453682 0.018655 0.957399 0.368022
S2    S     S_3+6 0.687092 0.751409 0.160576 -0.040849
O28   O     O_2   0.623209 0.891289 0.196291 -0.329766
O29   O     O_2   0.715098 0.815559 0.063979 -0.360789
O30   O     O_3   0.626326 0.550382 0.136854 -0.509149
H18   H     H_    0.574463 0.583159 0.082563 0.365526
S3    S     S_3+6 0.214902 0.324550 0.590846 0.030145
O31   O     O_2   0.244008 0.524782 0.578735 -0.317797
O32   O     O_2   0.222154 0.218317 0.495841 -0.342348
O33   O     O_3   0.104169 0.325032 0.606816 -0.462699
H19   H     H_    0.080399 0.197447 0.585677 0.372117
S4    S     S_3+6 0.866592 0.698955 0.462447 -0.010521
O34   O     O_2   0.837152 0.753255 0.559847 -0.357613
O35   O     O_2   0.912749 0.508611 0.478349 -0.304609
O36   O     O_3   0.946259 0.852153 0.434976 -0.475370
H20   H     H_    0.981051 0.781704 0.390215 0.355986

loop_
_geom_bond_atom_site_label_1
_geom_bond_atom_site_label_2
_ccdc_geom_bond_type
C22   C24   T    
S3    O31   D    
C30   H9    S    
O4    V2    S    
C15   C17   S    
C32   H14   S    
O36   H20   S    
O1    C3    A    
O2    C4    A    
C2    O7    A    
O33   H19   S    
S1    O25   D    
O5    C3    A    
C26   O17   A    
C20   H4    S    
C10   C12   A    
C7    C9    A    
C12   C14   A    
O30   H18   S    
S1    O27   S    
C29   H6    S    
C17   H1    S    
C4    C7    S    
C11   O23   S    
C14   C25   S    
S3    O33   S    
C31   H11   S    
C29   H7    S    
S1    O26   D    
C30   H10   S    
O6    V2    S    
C32   H15   S    
O14   C26   A    
O19   V3    S    
C21   C23   T    
O20   V4    S    
C3    C8    S    
C19   S3    S    
C18   H2    S    
O23   C31   S    
C5    C15   A    
C6    C16   A    
O4    C2    A    
C21   C28   S    
O24   C32   S    
O15   C27   A    
C22   C27   S    
C29   H5    S    
O17   V3    S    
S4    O36   S    
O18   V4    S    
C18   S2    S    
O11   V4    S    
C9    O21   S    
O22   C30   S    
O12   V3    S    
C10   O22   S    
O14   V4    S    
O6    C4    A    
S4    O35   D    
O1    V2    S    
O2    V1    S    
O13   C25   A    
O13   V3    S    
C8    C10   A    
S2    O29   D    
O9    V1    S    
C5    C19   S    
C32   H16   S    
O10   V2    S    
C1    C24   S    
C6    C20   S    
O3    V1    S    
C12   O24   S    
O15   V3    S    
O19   V4    S    
O16   V4    S    
O20   V3    S    
C2    C23   S    
O27   H17   S    
O3    C1    A    
C13   C15   A    
S2    O30   S    
C14   C16   A    
C9    C11   A    
O7    V1    S    
C1    O8    A    
C17   C19   S    
O8    V2    S    
C18   C20   S    
O21   C29   S    
C20   S4    S    
C25   O18   A    
C31   H13   S    
C19   H3    S    
O5    V1    S    
S4    O34   D    
C5    C7    A    
C16   C18   S    
C6    C8    A    
C11   C13   A    
C30   H8    S    
O16   C28   A    
C17   S1    S    
C31   H12   S    
S2    O28   D    
O9    V2    S    
S3    O32   D    
O10   V1    S    
C13   C26   S    
O11   C27   A    
O12   C28   A    
