data_mof_unit_41382.cif
_audit_creation_date              2012-12-10T17:28:34-0500
_audit_creation_method            fapswitch 2.2
_symmetry_space_group_name_H-M    P1
_symmetry_Int_Tables_number       1
_space_group_crystal_system       triclinic
_cell_length_a                    10.610471
_cell_length_b                    12.013345
_cell_length_c                    12.843498
_cell_angle_alpha                 93.571944
_cell_angle_beta                  90.980171
_cell_angle_gamma                 84.664334
_cell_volume                      1626.75970158

loop_
_atom_site_label
_atom_site_type_symbol
_atom_type_description
_atom_site_fract_x
_atom_site_fract_y
_atom_site_fract_z
_atom_type_partial_charge
C1    C     C_R   0.501787 0.522488 0.700427 0.885103
C2    C     C_R   0.498202 0.477495 0.299587 0.890611
C3    C     C_R   0.491694 0.462740 0.187991 -0.062007
C4    C     C_R   0.508491 0.537101 0.812045 -0.061015
C5    C     C_R   0.591401 0.619181 0.972038 -0.201674
C6    C     C_R   0.409044 0.380447 0.028001 -0.201692
C7    C     C_R   0.578845 0.618786 0.863985 0.186976
C8    C     C_R   0.421324 0.381044 0.136086 0.189263
C9    C     C_R   0.450899 0.459725 0.867010 -0.324696
C10   C     C_R   0.549621 0.539870 0.133002 -0.334722
C11   C     C_R   0.464759 0.459801 0.973662 0.136576
C12   C     C_R   0.535802 0.539753 0.026352 0.140109
C13   C     C_R   0.385473 0.959191 0.399969 -0.323852
C14   C     C_R   0.611476 0.041106 0.602115 -0.329506
C15   C     C_R   0.396879 0.842281 0.407072 0.333779
C16   C     C_R   0.603766 0.157355 0.592333 0.344427
C17   C     C_R   0.547714 0.856956 0.544835 -0.083106
C18   C     C_R   0.449561 0.143437 0.457162 -0.083648
C19   C     C_R   0.539185 0.974420 0.537875 0.051466
C20   C     C_R   0.457056 0.026016 0.464799 0.051160
C21   C     C_R   0.739666 0.496589 0.484700 0.883440
C22   C     C_R   0.260297 0.503411 0.515215 0.885052
C23   C     C_R   0.913295 0.284813 0.471942 -0.183316
C24   C     C_R   0.086682 0.715236 0.527581 -0.197929
C25   C     C_R   0.981979 0.192155 0.512068 -0.188198
C26   C     C_R   0.018228 0.807828 0.487126 -0.179085
C27   C     C_R   0.089699 0.206249 0.573461 0.253513
C28   C     C_R   0.910204 0.793753 0.426099 0.254619
C29   C     C_R   0.132974 0.312850 0.587244 -0.130696
C30   C     C_R   0.866868 0.687160 0.412487 -0.131995
C31   C     C_R   0.070223 0.405390 0.538345 0.033491
C32   C     C_R   0.929692 0.594632 0.461362 0.034729
C33   C     C_R   0.951826 0.393930 0.491958 0.083901
C34   C     C_R   0.048110 0.606104 0.507718 0.083797
C35   C     C_R   0.124189 0.508066 0.532189 -0.232438
C36   C     C_R   0.875733 0.491960 0.467575 -0.232121
H1    H     H_    0.323141 0.997838 0.341993 0.151215
H2    H     H_    0.674769 0.002851 0.659730 0.155489
H3    H     H_    0.831580 0.269815 0.423349 0.172938
H4    H     H_    0.168362 0.730297 0.576194 0.173077
H5    H     H_    0.949640 0.109738 0.497041 0.147134
H6    H     H_    0.050682 0.890224 0.501959 0.148060
H7    H     H_    0.215875 0.323281 0.636009 0.148877
H8    H     H_    0.783818 0.676744 0.363900 0.148409
H9    H     H_    0.604035 0.601618 0.173900 0.154346
H10   H     H_    0.396549 0.397933 0.826110 0.157279
H11   H     H_    0.645381 0.680496 0.013798 0.139137
H12   H     H_    0.355028 0.319152 0.986254 0.138975
H13   H     H_    0.384773 0.183536 0.402060 0.143289
H14   H     H_    0.612219 0.816977 0.600183 0.142862
N1    N     N_R   0.523130 0.207800 0.519340 -0.104132
N2    N     N_R   0.476870 0.792200 0.480660 -0.103336
O1    O     O_R   0.506170 0.421700 0.658830 -0.631957
O2    O     O_R   0.493830 0.578300 0.341170 -0.629285
O3    O     O_R   0.491330 0.609310 0.646410 -0.616576
O4    O     O_R   0.508670 0.390690 0.353590 -0.617001
O5    O     O_R   0.690650 0.406190 0.506220 -0.633689
O6    O     O_R   0.309350 0.593810 0.493780 -0.630034
O7    O     O_R   0.675800 0.593810 0.493800 -0.616730
O8    O     O_R   0.324200 0.406190 0.506200 -0.617003
Zn1   Zn    Zn3+2 0.509910 0.374730 0.508290 0.925065
Zn2   Zn    Zn3+2 0.490090 0.625270 0.491710 0.924445
C37   C     C_3   0.839864 0.893035 0.379092 -0.951405
H15   H     H_    0.903190 0.930829 0.326049 0.241113
H16   H     H_    0.755230 0.869212 0.333919 0.244221
H17   H     H_    0.807971 0.956465 0.441950 0.246548
C38   C     C_3   0.159553 0.107036 0.620933 -0.951394
H18   H     H_    0.095917 0.069746 0.674085 0.240502
H19   H     H_    0.191256 0.043215 0.558365 0.247322
H20   H     H_    0.244234 0.130781 0.666090 0.244869
C39   C     C_3   0.355648 0.297549 0.193437 -0.896871
H21   H     H_    0.295868 0.247603 0.140242 0.227337
H22   H     H_    0.427409 0.238234 0.229492 0.248892
H23   H     H_    0.293256 0.341611 0.254472 0.244466
C40   C     C_3   0.644050 0.702620 0.806727 -0.896671
H24   H     H_    0.704042 0.752412 0.859875 0.227540
H25   H     H_    0.706150 0.658915 0.745313 0.244543
H26   H     H_    0.571919 0.762018 0.771233 0.248578
C41   C     C_3   0.685350 0.220328 0.667798 -0.839481
H27   H     H_    0.783095 0.178207 0.667966 0.209899
H28   H     H_    0.694521 0.306710 0.650351 0.292645
H29   H     H_    0.646735 0.220218 0.747605 0.221526
C42   C     C_3   0.325062 0.776207 0.326435 -0.818765
H30   H     H_    0.251155 0.830801 0.286928 0.195165
H31   H     H_    0.390243 0.738975 0.264577 0.244103
H32   H     H_    0.274217 0.712069 0.360496 0.274148

loop_
_geom_bond_atom_site_label_1
_geom_bond_atom_site_label_2
_ccdc_geom_bond_type
O6    Zn2   S    
C37   H16   S    
C7    C40   S    
C27   C29   A    
C19   C20   A    
N1    Zn1   S    
C16   N1    A    
C21   C36   S    
C22   C35   S    
C5    H11   S    
C6    H12   S    
C32   C36   A    
C24   C26   A    
C21   O7    A    
C22   O8    A    
C14   H2    S    
O3    Zn2   S    
C33   C36   A    
C34   C35   A    
C1    O1    A    
C17   C19   A    
O1    Zn1   S    
C23   C33   A    
C31   C33   A    
C13   H1    S    
C37   H17   S    
C9    H10   S    
C29   H7    S    
C30   H8    S    
C4    C7    A    
C17   N2    A    
C18   N1    A    
C1    C4    S    
C38   H18   S    
C5    C12   A    
C3    C8    A    
C2    O2    A    
C25   H5    S    
C6    C11   A    
C5    C7    A    
C6    C8    A    
O2    Zn2   S    
C24   C34   A    
C41   H27   S    
O8    Zn1   S    
C38   H19   S    
C32   C34   A    
C40   H24   S    
C21   O5    A    
C39   H23   S    
C9    C11   A    
C42   H30   S    
C10   H9    S    
C15   N2    A    
C40   H25   S    
C10   C12   A    
C42   H31   S    
C13   C15   A    
C14   C16   A    
C26   H6    S    
C41   H28   S    
O7    Zn2   S    
C13   C20   A    
C14   C19   A    
C17   H14   S    
C22   O6    A    
C41   H29   S    
C15   C42   S    
C11   C12   A    
O5    Zn1   S    
C25   C27   A    
C26   C28   A    
C38   H20   S    
C16   C41   S    
C28   C30   A    
C2    C3    S    
C1    O3    A    
C39   H21   S    
C29   C31   A    
C3    C10   A    
C2    O4    A    
C30   C32   A    
C23   H3    S    
C31   C35   A    
C24   H4    S    
C18   C20   A    
C23   C25   A    
C40   H26   S    
C27   C38   S    
C37   H15   S    
C28   C37   S    
C42   H32   S    
C39   H22   S    
O4    Zn1   S    
N2    Zn2   S    
C4    C9    A    
C18   H13   S    
C8    C39   S    
