data_mof_unit_53475.cif
_audit_creation_date              2012-12-10T17:18:56-0500
_audit_creation_method            fapswitch 2.2
_symmetry_space_group_name_H-M    P1
_symmetry_Int_Tables_number       1
_space_group_crystal_system       triclinic
_cell_length_a                    9.602122
_cell_length_b                    10.776008
_cell_length_c                    13.427664
_cell_angle_alpha                 92.433919
_cell_angle_beta                  72.419955
_cell_angle_gamma                 90.016676
_cell_volume                      1323.19464769

loop_
_atom_site_label
_atom_site_type_symbol
_atom_type_description
_atom_site_fract_x
_atom_site_fract_y
_atom_site_fract_z
_atom_type_partial_charge
C1    C     C_R   0.498382 0.737423 0.503785 0.799351
C2    C     C_R   0.432756 0.474735 0.979219 0.083246
C3    C     C_R   0.471079 0.448640 0.869781 0.086287
C4    C     C_R   0.541191 0.460314 0.030550 0.074142
C5    C     C_R   0.679668 0.407523 0.974750 0.155557
C6    C     C_R   0.707537 0.366694 0.870743 -0.244896
C7    C     C_R   0.604258 0.385332 0.819352 -0.196050
C8    C     C_R   0.517180 0.499148 0.135356 -0.244988
C9    C     C_R   0.759321 0.429534 0.129582 -0.177395
C10   C     C_R   0.373903 0.485282 0.814475 -0.104320
C11   C     C_R   0.281456 0.879646 0.670187 -0.187405
C12   C     C_R   0.421651 0.493277 0.699749 0.761666
C13   C     C_R   0.177221 0.948751 0.747633 -0.130224
C14   C     C_R   0.177173 0.077820 0.747493 -0.122924
C15   C     C_R   0.281367 0.138596 0.669897 -0.178362
C16   C     C_R   0.386674 0.070458 0.589415 0.101372
C17   C     C_R   0.386689 0.939175 0.589566 0.100800
C18   C     C_R   0.495497 0.871632 0.510987 -0.110260
C19   C     C_R   0.605339 0.932654 0.437395 -0.183175
C20   C     C_R   0.605328 0.060645 0.437227 -0.192472
C21   C     C_R   0.495502 0.129546 0.510675 -0.102993
C22   C     C_R   0.914673 0.337292 0.359500 -0.267188
C23   C     C_R   0.498591 0.262916 0.503269 0.766841
C24   C     C_R   0.015560 0.257729 0.290280 0.585993
C25   C     C_R   0.158847 0.256497 0.290824 -0.273298
C26   C     C_R   0.202138 0.334917 0.360370 -0.249109
C27   C     C_R   0.103563 0.419203 0.431264 0.215033
C28   C     C_R   0.954130 0.419783 0.431025 0.135839
C29   C     C_R   0.898381 0.576261 0.565801 -0.040226
C30   C     C_R   0.046283 0.576314 0.565714 -0.059996
C31   C     C_R   0.578465 0.497438 0.299985 0.791418
C32   C     C_R   0.788047 0.394113 0.024245 -0.180635
C33   C     C_R   0.622334 0.479588 0.185975 -0.061603
C34   C     C_R   0.231600 0.525312 0.870411 -0.202331
C35   C     C_R   0.187848 0.535592 0.978783 -0.140664
C36   C     C_R   0.287281 0.513223 0.032932 -0.164562
Cu1   Cu    Cu3+1 0.359340 0.500010 0.500010 0.929658
Cu2   Cu    Cu3+1 0.640660 0.499990 0.499990 0.935522
H1    H     H_    0.842154 0.413920 0.167464 0.172906
H2    H     H_    0.280107 0.779847 0.675696 0.139191
H3    H     H_    0.097363 0.901946 0.808834 0.139167
H4    H     H_    0.097252 0.131200 0.808572 0.139459
H5    H     H_    0.279781 0.238923 0.675173 0.150602
H6    H     H_    0.689626 0.106209 0.377856 0.182778
H7    H     H_    0.820527 0.638837 0.619759 0.140786
H8    H     H_    0.807366 0.330104 0.353549 0.213519
H9    H     H_    0.237404 0.193882 0.237234 0.184586
H10   H     H_    0.314118 0.324739 0.354822 0.226424
H11   H     H_    0.810152 0.320783 0.828574 0.146553
H12   H     H_    0.078772 0.638899 0.619588 0.128316
H13   H     H_    0.893978 0.353895 0.981967 0.147619
H14   H     H_    0.416716 0.544956 0.179989 0.156437
H15   H     H_    0.154302 0.551180 0.830270 0.151013
H16   H     H_    0.245672 0.523901 0.116911 0.132048
H17   H     H_    0.077180 0.565008 0.021099 0.147511
H18   H     H_    0.629410 0.346262 0.740450 0.180217
H19   H     H_    0.689676 0.880672 0.378166 0.165085
N1    N     N_R   0.852480 0.498790 0.499000 -0.184395
N2    N     N_R   0.148360 0.498710 0.498970 -0.186280
O1    O     O_R   0.381190 0.680360 0.500010 -0.574489
O2    O     O_R   0.618760 0.680340 0.500000 -0.570083
O3    O     O_R   0.323240 0.499990 0.650990 -0.592928
O4    O     O_R   0.560820 0.499960 0.650980 -0.581057
O5    O     O_R   0.381240 0.319660 0.500000 -0.596814
O6    O     O_R   0.618810 0.319640 0.499990 -0.594682
O7    O     O_R   0.439180 0.500040 0.349020 -0.593587
O8    O     O_R   0.676760 0.500010 0.349010 -0.596248
F1    F     F_    0.973290 0.180672 0.222535 -0.681298

loop_
_geom_bond_atom_site_label_1
_geom_bond_atom_site_label_2
_ccdc_geom_bond_type
C31   O7    A    
C2    C4    A    
C24   C25   A    
C31   C33   S    
C32   H13   S    
C29   C30   A    
C28   N1    A    
C12   O3    A    
C25   H9    S    
C19   C20   A    
Cu2   O6    S    
C26   H10   S    
C14   H4    S    
Cu2   O2    S    
C30   N2    A    
C23   O6    A    
C13   H3    S    
C2    C3    A    
C30   H12   S    
C15   H5    S    
C10   C34   A    
C3    C10   A    
C27   N2    A    
C13   C14   A    
C29   N1    A    
C31   O8    A    
C11   C13   A    
C1    C18   S    
Cu1   N2    S    
C10   C12   S    
C7    H18   S    
C9    C33   A    
C5    C6    A    
C23   O5    A    
C22   H8    S    
Cu1   Cu2   S    
C17   C18   A    
C6    C7    A    
C3    C7    A    
C8    C33   A    
C21   C23   S    
C6    H11   S    
C26   C27   A    
C11   H2    S    
C22   C24   A    
Cu1   O1    S    
C36   H16   S    
C24   F1    S    
Cu1   O7    S    
C35   H17   S    
C15   C16   A    
Cu2   O8    S    
C8    H14   S    
C9    H1    S    
Cu1   O5    S    
C20   C21   A    
C34   H15   S    
C34   C35   A    
C1    O1    A    
C2    C36   A    
C4    C8    A    
C12   O4    A    
Cu1   O3    S    
C14   C15   A    
C18   C19   A    
C22   C28   A    
C9    C32   A    
C20   H6    S    
C25   C26   A    
Cu2   O4    S    
C16   C21   A    
Cu2   N1    S    
C19   H19   S    
C5    C32   A    
C11   C17   A    
C35   C36   A    
C16   C17   A    
C29   H7    S    
C4    C5    A    
C27   C28   A    
C1    O2    A    
