data_mof_unit_24333.cif
_audit_creation_date              2012-12-10T17:29:23-0500
_audit_creation_method            fapswitch 2.2
_symmetry_space_group_name_H-M    P1
_symmetry_Int_Tables_number       1
_space_group_crystal_system       triclinic
_cell_length_a                    11.986815
_cell_length_b                    12.846113
_cell_length_c                    13.142849
_cell_angle_alpha                 87.491591
_cell_angle_beta                  113.498668
_cell_angle_gamma                 94.134207
_cell_volume                      1850.87516061

loop_
_atom_site_label
_atom_site_type_symbol
_atom_type_description
_atom_site_fract_x
_atom_site_fract_y
_atom_site_fract_z
_atom_type_partial_charge
C1    C     C_R   0.473871 0.298853 0.492335 0.897597
C2    C     C_R   0.609150 0.481177 0.828831 -0.156976
C3    C     C_R   0.532735 0.812455 0.486831 -0.050432
C4    C     C_R   0.566001 0.490710 0.708460 0.882311
C5    C     C_R   0.450064 0.187383 0.469006 -0.144534
C6    C     C_R   0.321270 0.029237 0.392325 0.112059
C7    C     C_R   0.330919 0.136834 0.417916 0.126787
C8    C     C_R   0.553772 0.132649 0.491316 -0.320091
C9    C     C_R   0.545070 0.027144 0.477440 0.160065
C10   C     C_R   0.429262 0.973621 0.435157 0.093445
C11   C     C_R   0.425557 0.865540 0.445292 -0.267158
C12   C     C_R   0.556527 0.475963 0.988542 0.043603
C13   C     C_R   0.646191 0.866031 0.515786 -0.211817
C14   C     C_R   0.652489 0.973856 0.512369 -0.191330
C15   C     C_R   0.014726 0.608688 0.408295 -0.331157
C16   C     C_R   0.522454 0.700849 0.499249 0.887059
C17   C     C_R   0.133946 0.597514 0.416581 0.011645
C18   C     C_R   0.154285 0.451019 0.537209 -0.047798
C19   C     C_R   0.035080 0.459771 0.532222 0.100195
C20   C     C_R   0.964337 0.539653 0.466651 0.088265
C21   C     C_R   0.844934 0.548163 0.461423 -0.057013
C22   C     C_R   0.866431 0.402976 0.584024 0.020860
C23   C     C_R   0.527447 0.448543 0.878166 0.091496
C24   C     C_R   0.985084 0.391132 0.591199 -0.337884
C25   C     C_R   0.433338 0.504475 0.291319 0.865974
C26   C     C_R   0.254059 0.410249 0.003275 -0.195882
C27   C     C_R   0.391233 0.493451 0.172280 -0.056525
C28   C     C_R   0.728593 0.517400 0.894715 -0.248473
C29   C     C_R   0.765145 0.527743 0.008859 0.240931
C30   C     C_R   0.678472 0.509887 0.055029 -0.223604
C31   C     C_3   0.199025 0.975470 0.316693 -0.409741
C32   C     C_3   0.144642 0.026625 0.200910 -0.834958
C33   C     C_3   0.216230 0.194966 0.395182 -0.350929
C34   C     C_R   0.462125 0.468543 0.027611 0.094591
C35   C     C_3   0.190761 0.275717 0.300249 -0.782861
C36   C     C_3   0.894568 0.563411 0.080591 -0.423624
C37   C     C_3   0.962206 0.474779 0.155793 -0.871500
C38   C     C_R   0.347001 0.418655 0.963417 0.183414
C39   C     C_R   0.327267 0.376668 0.861399 -0.256683
C40   C     C_R   0.416690 0.391018 0.819319 -0.192037
C41   C     C_R   0.478402 0.511686 0.128000 -0.248814
C42   C     C_R   0.276678 0.446596 0.108447 -0.222035
H1    H     H_    0.207434 0.433540 0.141550 0.158929
H2    H     H_    0.709546 0.520618 0.143263 0.139665
H3    H     H_    0.398885 0.355836 0.740678 0.151767
H4    H     H_    0.340354 0.821586 0.428943 0.149347
H5    H     H_    0.066630 0.072380 0.193112 0.244884
H6    H     H_    0.213752 0.077507 0.182847 0.271622
H7    H     H_    0.108351 0.965939 0.136126 0.236421
H8    H     H_    0.206982 0.893448 0.300254 0.197123
H9    H     H_    0.133226 0.972401 0.357059 0.184637
H10   H     H_    0.741251 0.015489 0.541560 0.131418
H11   H     H_    0.274526 0.300803 0.287071 0.254423
H12   H     H_    0.729559 0.825100 0.546290 0.155576
H13   H     H_    0.122714 0.244010 0.221138 0.225742
H14   H     H_    0.153338 0.345171 0.319652 0.252726
H15   H     H_    0.133660 0.142277 0.376270 0.194133
H16   H     H_    0.224541 0.232442 0.472537 0.193298
H17   H     H_    0.962624 0.670871 0.356841 0.140544
H18   H     H_    0.172151 0.651145 0.371526 0.124956
H19   H     H_    0.241973 0.334472 0.813203 0.134795
H20   H     H_    0.560840 0.556871 0.176103 0.141692
H21   H     H_    0.919226 0.448836 0.214189 0.266166
H22   H     H_    0.962230 0.407589 0.105371 0.257690
H23   H     H_    0.644238 0.171196 0.526942 0.172256
H24   H     H_    0.057975 0.502453 0.204725 0.250411
H25   H     H_    0.944978 0.591431 0.028663 0.203638
H26   H     H_    0.894588 0.629875 0.131989 0.198004
H27   H     H_    0.789110 0.608733 0.410615 0.120775
H28   H     H_    0.828520 0.349729 0.629626 0.124841
H29   H     H_    0.037106 0.328799 0.642383 0.132440
H30   H     H_    0.209239 0.389609 0.586787 0.110954
H31   H     H_    0.165923 0.372290 0.955012 0.135097
H32   H     H_    0.792474 0.539750 0.856918 0.156538
N1    N     N_R   0.798200 0.480260 0.519790 -0.094590
N2    N     N_R   0.201820 0.519740 0.480210 -0.097740
O1    O     O_R   0.579910 0.341070 0.505280 -0.622060
O2    O     O_R   0.388440 0.353740 0.492580 -0.622773
O3    O     O_R   0.643280 0.490550 0.663120 -0.615873
O4    O     O_R   0.451810 0.503220 0.650420 -0.603294
O5    O     O_R   0.611560 0.646260 0.507420 -0.624134
O6    O     O_R   0.420090 0.658930 0.494720 -0.621278
O7    O     O_R   0.548190 0.496780 0.349580 -0.610956
O8    O     O_R   0.356720 0.509450 0.336880 -0.627951
Zn1   Zn    Zn3+2 0.627850 0.491540 0.508480 0.937018
Zn2   Zn    Zn3+2 0.372150 0.508460 0.491520 0.924681

loop_
_geom_bond_atom_site_label_1
_geom_bond_atom_site_label_2
_ccdc_geom_bond_type
C33   H16   S    
C35   H11   S    
C1    O1    A    
C19   C20   A    
C28   H32   S    
C36   H25   S    
C29   C36   S    
C1    C5    S    
C41   H20   S    
C36   C37   S    
O8    Zn2   S    
C4    O4    A    
C38   C39   A    
C23   C40   A    
C26   H31   S    
C18   C19   A    
O4    Zn2   S    
N1    Zn1   S    
C14   H10   S    
C8    C9    A    
C17   N2    A    
C33   H15   S    
C9    C10   A    
C3    C13   A    
O2    Zn2   S    
C6    C31   S    
O1    Zn1   S    
C8    H23   S    
C13   C14   A    
C1    O2    A    
C32   H6    S    
C30   H2    S    
C40   H3    S    
C34   C41   A    
C22   N1    A    
C37   H21   S    
C18   H30   S    
C15   C20   A    
C39   H19   S    
C7    C33   S    
C35   H13   S    
C4    O3    A    
C39   C40   A    
C5    C7    A    
C26   C38   A    
O6    Zn2   S    
C21   H27   S    
C2    C4    S    
C9    C14   A    
C29   C30   A    
C25   O8    A    
C27   C41   A    
C31   C32   S    
C12   C23   A    
C37   H24   S    
C16   O6    A    
O7    Zn1   S    
C32   H5    S    
C22   C24   A    
C42   H1    S    
C31   H8    S    
C12   C34   A    
N2    Zn2   S    
O3    Zn1   S    
C37   H22   S    
C26   C42   A    
C13   H12   S    
C15   C17   A    
C28   C29   A    
C18   N2    A    
C12   C30   A    
C35   H14   S    
C34   C38   A    
C15   H17   S    
C31   H9    S    
C6    C10   A    
C5    C8    A    
C36   H26   S    
C6    C7    A    
C25   C27   S    
C21   N1    A    
C19   C24   A    
C27   C42   A    
C16   O5    A    
C33   C35   S    
C32   H7    S    
C3    C11   A    
C10   C11   A    
C17   H18   S    
C20   C21   A    
C2    C23   A    
C25   O7    A    
C11   H4    S    
C2    C28   A    
C22   H28   S    
O5    Zn1   S    
C3    C16   S    
C24   H29   S    
