data_mof_unit_31340.cif
_audit_creation_date              2012-10-26T19:21:07-0400
_audit_creation_method            fapswitch 2.2
_symmetry_space_group_name_H-M    P1
_symmetry_Int_Tables_number       1
_space_group_crystal_system       triclinic
_cell_length_a                    9.832601
_cell_length_b                    11.025075
_cell_length_c                    13.453832
_cell_angle_alpha                 94.221235
_cell_angle_beta                  81.904498
_cell_angle_gamma                 111.173874
_cell_volume                      1346.0404345

loop_
_atom_site_label
_atom_site_type_symbol
_atom_type_description
_atom_site_fract_x
_atom_site_fract_y
_atom_site_fract_z
_atom_type_partial_charge
Br1   Br    Br    0.991683 0.786955 0.031951 -0.490632
Br2   Br    Br    0.621842 0.159930 0.639120 -0.464201
C1    C     C_R   0.555239 0.745364 0.509547 0.547719
C2    C     C_R   0.373706 0.475826 0.799272 0.011850
C3    C     C_2   0.580692 0.883365 0.525277 -0.099716
C4    C     C_R   0.422879 0.490595 0.690603 0.536141
C5    C     C_2   0.471579 0.927545 0.521539 -0.116320
C6    C     C_2   0.412094 0.115101 0.495826 -0.080511
C7    C     C_2   0.491112 0.064143 0.541965 0.139234
C8    C     C_2   0.919458 0.482357 0.498291 0.077915
C9    C     C_2   0.072339 0.496039 0.517262 0.047727
C10   C     C_R   0.442267 0.254425 0.496967 0.570762
C11   C     C_R   0.577509 0.513018 0.309841 0.535166
C12   C     C_R   0.435734 0.486769 0.971014 0.045466
C13   C     C_R   0.796609 0.666269 0.070783 0.160186
C14   C     C_R   0.624308 0.536405 0.202676 -0.030491
C15   C     C_R   0.231440 0.390163 0.830304 -0.092688
C16   C     C_R   0.189895 0.354336 0.929909 -0.101698
C17   C     C_R   0.290917 0.399110 0.999213 -0.092402
C18   C     C_R   0.472249 0.532322 0.871435 0.027830
C19   C     C_R   0.545356 0.531424 0.037972 0.009199
C20   C     C_R   0.686192 0.624933 0.005803 0.056881
C21   C     C_R   0.711758 0.678450 0.911010 -0.064840
C22   C     C_R   0.605202 0.635034 0.846352 -0.086362
C23   C     C_R   0.518863 0.487009 0.136426 -0.127709
C24   C     C_R   0.764560 0.622064 0.168805 -0.098720
Cu1   Cu    Cu3+1 0.362000 0.479240 0.482530 0.977939
Cu2   Cu    Cu3+1 0.638000 0.520760 0.517470 1.112856
H1    H     H_    0.846911 0.660052 0.219935 0.163334
H2    H     H_    0.153634 0.346894 0.776716 0.154591
H3    H     H_    0.250805 0.364158 0.074219 0.111466
H4    H     H_    0.079861 0.287553 0.952957 0.144222
H5    H     H_    0.626019 0.684876 0.776895 0.184952
H6    H     H_    0.896048 0.848834 0.696516 0.353880
H7    H     H_    0.367021 0.863022 0.499125 0.181550
H8    H     H_    0.329073 0.053252 0.450340 0.096955
H9    H     H_    0.687924 0.948017 0.542989 0.171185
H10   H     H_    0.117131 0.547423 0.583645 0.224012
H11   H     H_    0.867746 0.408773 0.443632 0.098449
H12   H     H_    0.112754 0.400458 0.392293 0.206368
H13   H     H_    0.813482 0.755570 0.886080 0.190216
H14   H     H_    0.415020 0.416552 0.165382 0.128195
N1    N     N_2   0.845330 0.551960 0.543750 -0.038491
N2    N     N_2   0.154690 0.448120 0.456210 -0.375279
O1    O     O_R   0.426290 0.668220 0.490680 -0.496971
O2    O     O_2   0.080524 0.760692 0.571565 -0.323534
O3    O     O_3   0.835785 0.778987 0.653440 -0.508765
O4    O     O_R   0.659360 0.703290 0.520190 -0.432593
O5    O     O_R   0.326580 0.473880 0.629020 -0.510359
O6    O     O_R   0.559660 0.508940 0.658530 -0.454122
O7    O     O_R   0.340640 0.296710 0.479810 -0.491922
O8    O     O_R   0.573710 0.331780 0.509320 -0.475917
O9    O     O_R   0.440340 0.491060 0.341470 -0.499103
O10   O     O_R   0.673420 0.526120 0.370980 -0.526819
O11   O     O_2   0.950961 0.626927 0.717433 -0.279860
S1    S     S_3+6 0.932087 0.680522 0.622815 0.093777

loop_
_geom_bond_atom_site_label_1
_geom_bond_atom_site_label_2
_ccdc_geom_bond_type
C23   H14   S    
C9    H10   S    
O11   S1    D    
Cu1   O9    S    
Br1   C13   S    
C3    H9    S    
C1    O4    A    
Cu2   N1    S    
C22   H5    S    
C21   H13   S    
C6    C10   S    
C17   H3    S    
C5    C7    S    
Cu1   O1    S    
C15   C16   A    
C9    N2    D    
C19   C20   A    
C4    O6    A    
C15   H2    S    
Cu2   O8    S    
C5    H7    S    
C2    C15   A    
C12   C17   A    
C12   C19   A    
C10   O8    A    
O3    S1    S    
Cu1   O7    S    
C16   C17   A    
C11   O9    A    
C4    O5    A    
C14   C24   A    
C16   H4    S    
C8    C9    S    
C21   C22   A    
Cu1   O5    S    
C2    C18   A    
C12   C18   A    
N1    S1    S    
H12   N2    S    
C10   O7    A    
C24   H1    S    
C2    C4    S    
C11   O10   A    
C6    H8    S    
C11   C14   S    
O2    S1    D    
C14   C23   A    
C3    C5    D    
Cu2   O10   S    
C20   C21   A    
C8    H11   S    
C13   C24   A    
C19   C23   A    
H6    O3    S    
C1    C3    S    
C8    N1    D    
Br2   C7    S    
Cu2   O6    S    
Cu1   N2    S    
C1    O1    A    
C13   C20   A    
Cu2   O4    S    
C18   C22   A    
C6    C7    D    
Cu1   Cu2   S    
