data_mof_unit_42499.cif
_audit_creation_date              2012-12-11T15:45:02-0500
_audit_creation_method            fapswitch 2.2
_symmetry_space_group_name_H-M    P1
_symmetry_Int_Tables_number       1
_space_group_crystal_system       triclinic
_cell_length_a                    19.040581
_cell_length_b                    10.934334
_cell_length_c                    18.728455
_cell_angle_alpha                 89.619126
_cell_angle_beta                  90.002125
_cell_angle_gamma                 90.181149
_cell_volume                      3899.08513031

loop_
_atom_site_label
_atom_site_type_symbol
_atom_type_description
_atom_site_fract_x
_atom_site_fract_y
_atom_site_fract_z
_atom_type_partial_charge
C1    C     C_R   0.760847 0.535016 0.646836 0.534877
C2    C     C_R   0.281478 0.009412 0.520231 -0.126185
C3    C     C_R   0.481500 0.950095 0.967820 0.023270
C4    C     C_R   0.986972 0.230392 0.964241 -0.169483
C5    C     C_R   0.991739 0.236265 0.038334 -0.183053
C6    C     C_R   0.471874 0.731319 0.971275 -0.160052
C7    C     C_R   0.477191 0.733860 0.045851 -0.165509
C8    C     C_3   0.031958 0.573441 0.028472 0.008630
C9    C     C_3   0.020472 0.567676 0.948397 0.000874
C10   C     C_3   0.533318 0.064923 0.036523 -0.002148
C11   C     C_3   0.527295 0.059325 0.955871 -0.011263
C12   C     C_R   0.759948 0.534452 0.851401 0.548499
C13   C     C_R   0.325981 0.588357 0.447644 -0.161499
C14   C     C_R   0.239799 0.531967 0.147657 0.544717
C15   C     C_R   0.262562 0.025600 0.854905 0.545322
C16   C     C_R   0.740844 0.035373 0.148982 0.543337
C17   C     C_R   0.776034 0.135267 0.856702 0.561472
C18   C     C_R   0.228234 0.123072 0.148031 0.551451
C19   C     C_R   0.272503 0.627028 0.853311 0.558563
C20   C     C_R   0.725433 0.630920 0.144693 0.551600
C21   C     C_R   0.970520 0.346045 0.853100 0.549689
C22   C     C_R   0.032017 0.347541 0.145147 0.545979
C23   C     C_R   0.466285 0.846578 0.855903 0.544877
C24   C     C_R   0.781485 0.509424 0.520232 -0.125812
C25   C     C_R   0.528362 0.847538 0.147550 0.542698
C26   C     C_R   0.759302 0.106988 0.416486 0.004051
C27   C     C_R   0.252500 0.079364 0.575427 0.033748
C28   C     C_R   0.259301 0.606986 0.416488 0.004019
C29   C     C_R   0.752500 0.579366 0.575428 0.034459
C30   C     C_R   0.710709 0.176266 0.454710 0.012377
C31   C     C_R   0.202889 0.168506 0.559632 0.010099
C32   C     C_R   0.210710 0.676268 0.454712 0.012293
C33   C     C_R   0.702884 0.668499 0.559633 0.009966
C34   C     C_R   0.722232 0.202010 0.526205 0.025940
C35   C     C_3   0.633783 0.159007 0.465808 -0.256352
C36   C     C_R   0.189197 0.198753 0.489182 0.013640
C37   C     C_R   0.222235 0.702014 0.526207 0.026086
C38   C     C_R   0.689193 0.698747 0.489183 0.013584
C39   C     C_3   0.202202 0.299304 0.582015 -0.279499
C40   C     C_3   0.133784 0.659012 0.465813 -0.256260
C41   C     C_3   0.702191 0.799295 0.582018 -0.279880
C42   C     C_3   0.646718 0.183807 0.544430 -0.262585
C43   C     C_3   0.187450 0.332030 0.504743 -0.281311
C44   C     C_3   0.146722 0.683813 0.544435 -0.262740
C45   C     C_R   0.239939 0.535492 0.353390 0.529912
C46   C     C_3   0.687439 0.832024 0.504746 -0.281092
C47   C     C_R   0.782789 0.161213 0.561488 -0.000453
C48   C     C_R   0.223225 0.138247 0.433903 0.033601
C49   C     C_R   0.282790 0.661214 0.561490 -0.000120
C50   C     C_R   0.723225 0.638250 0.433904 0.033030
C51   C     C_R   0.989546 0.329348 0.420912 -0.041951
C52   C     C_R   0.996359 0.347170 0.570906 -0.045607
C53   C     C_R   0.489535 0.829341 0.420904 -0.041777
C54   C     C_R   0.496342 0.847171 0.570897 -0.046029
C55   C     C_R   0.006914 0.105192 0.432445 -0.083613
C56   C     C_R   0.260846 0.035017 0.646837 0.537341
C57   C     C_R   0.031967 0.130854 0.577904 -0.085872
C58   C     C_R   0.506909 0.605189 0.432440 -0.083654
C59   C     C_R   0.531961 0.630859 0.577897 -0.085844
C60   C     C_R   0.025157 0.003659 0.473693 -0.131136
C61   C     C_R   0.039066 0.017057 0.546009 -0.120242
C62   C     C_R   0.525155 0.503659 0.473688 -0.131204
C63   C     C_R   0.539065 0.517062 0.546003 -0.120172
C64   C     C_R   0.009882 0.233870 0.537858 -0.008186
C65   C     C_R   0.002172 0.222962 0.463000 0.007488
C66   C     C_R   0.509871 0.733870 0.537851 -0.008251
C67   C     C_R   0.739939 0.035493 0.353389 0.530424
C68   C     C_R   0.502161 0.722958 0.462994 0.007655
C69   C     C_R   0.983216 0.453131 0.527205 0.004545
C70   C     C_R   0.968595 0.437661 0.454344 -0.000152
C71   C     C_R   0.483190 0.953127 0.527193 0.004288
C72   C     C_R   0.468573 0.937649 0.454331 0.000036
C73   C     C_R   0.791773 0.172592 0.638846 0.564519
C74   C     C_R   0.208411 0.170757 0.361197 0.562855
C75   C     C_R   0.291773 0.672592 0.638847 0.564279
C76   C     C_R   0.708410 0.670759 0.361197 0.563701
C77   C     C_R   0.983623 0.575158 0.553194 -0.075442
C78   C     C_R   0.837304 0.114190 0.519697 -0.167073
C79   C     C_R   0.938834 0.535110 0.414617 -0.083610
C80   C     C_R   0.483590 0.075157 0.553176 -0.075646
C81   C     C_R   0.438813 0.035090 0.414597 -0.083532
C82   C     C_R   0.956985 0.671852 0.512628 -0.131804
C83   C     C_R   0.932197 0.650908 0.444147 -0.117913
C84   C     C_R   0.456954 0.171845 0.512603 -0.131828
C85   C     C_R   0.432172 0.150891 0.444121 -0.117893
C86   C     C_R   0.758801 0.097675 0.082294 0.012551
C87   C     C_R   0.258463 0.050015 0.930986 0.015663
C88   C     C_R   0.248455 0.563792 0.073337 0.019755
C89   C     C_R   0.266238 0.037996 0.449425 -0.128033
C90   C     C_R   0.747008 0.594327 0.919331 0.013155
C91   C     C_R   0.820042 0.063887 0.045572 0.015755
C92   C     C_R   0.202471 0.998966 0.968148 0.017513
C93   C     C_R   0.278961 0.475416 0.029661 0.041912
C94   C     C_R   0.681169 0.589041 0.952404 0.015040
C95   C     C_R   0.823137 0.073702 0.972508 0.021433
C96   C     C_R   0.197827 0.005879 0.040802 0.017042
C97   C     C_R   0.279530 0.486286 0.956617 0.012458
C98   C     C_R   0.676371 0.594890 0.025578 0.044286
C99   C     C_R   0.713651 0.180939 0.971239 -0.130701
C100  C     C_R   0.337303 0.614185 0.519699 -0.167037
C101  C     C_R   0.312179 0.098701 0.045906 -0.161019
C102  C     C_R   0.215666 0.675741 0.967473 -0.119201
C103  C     C_R   0.798635 0.641751 0.034871 -0.184212
C104  C     C_R   0.709421 0.169611 0.045802 -0.166767
C105  C     C_R   0.317041 0.089800 0.971063 -0.151538
C106  C     C_R   0.213508 0.661892 0.041610 -0.174741
C107  C     C_R   0.804553 0.633957 0.960529 -0.161981
C108  C     C_3   0.859106 0.945054 0.043824 -0.258126
C109  C     C_3   0.125616 0.011595 0.956480 -0.278193
C110  C     C_3   0.351561 0.424642 0.031797 -0.256627
C111  C     C_R   0.766246 0.538008 0.449426 -0.128154
C112  C     C_3   0.621260 0.500398 0.948214 -0.272026
C113  C     C_3   0.860523 0.955363 0.963454 -0.271579
C114  C     C_3   0.119566 0.018678 0.036860 -0.263151
C115  C     C_3   0.350791 0.429620 0.951143 -0.273348
C116  C     C_3   0.618850 0.502391 0.029115 -0.266338
C117  C     C_R   0.767397 0.121515 0.933469 0.026101
C118  C     C_R   0.248613 0.069637 0.080033 0.011904
C119  C     C_R   0.251796 0.590650 0.924541 0.036533
C120  C     C_R   0.735532 0.611607 0.068659 0.013866
C121  C     C_R   0.970923 0.347907 0.645863 0.521508
C122  C     C_R   0.825982 0.088364 0.447641 -0.161378
C123  C     C_R   0.026164 0.343968 0.351610 0.523526
C124  C     C_R   0.470918 0.847908 0.645859 0.522122
C125  C     C_R   0.526163 0.843967 0.351608 0.522531
C126  C     C_R   0.016525 0.343230 0.070198 0.004120
C127  C     C_R   0.003106 0.333695 0.922045 -0.005421
C128  C     C_R   0.492089 0.844745 0.079857 0.001158
C129  C     C_R   0.479955 0.840075 0.931515 0.008011
C130  C     C_R   0.043454 0.437188 0.026729 0.035293
C131  C     C_R   0.035410 0.433597 0.953963 0.038242
C132  C     C_R   0.486246 0.953877 0.040535 0.048429
Cr1   Cr    Cr6+3 0.885860 0.491680 0.749630 0.994604
Cr2   Cr    Cr6+3 0.112430 0.179310 0.249850 0.998037
Cr3   Cr    Cr6+3 0.387570 0.679310 0.750150 0.995276
Cr4   Cr    Cr6+3 0.612430 0.679310 0.249850 1.000776
Cr5   Cr    Cr6+3 0.114140 0.491680 0.250370 1.000366
Cr6   Cr    Cr6+3 0.385860 0.991680 0.749630 0.999568
Cr7   Cr    Cr6+3 0.614140 0.991680 0.250370 0.994932
Cr8   Cr    Cr6+3 0.730490 0.332970 0.748720 1.001982
Cr9   Cr    Cr6+3 0.269510 0.332970 0.251280 0.998197
Cr10  Cr    Cr6+3 0.230490 0.832970 0.748720 0.999489
Cr11  Cr    Cr6+3 0.769510 0.832970 0.251280 0.994940
Cr12  Cr    Cr6+3 0.887570 0.179310 0.750150 0.997647
H1    H     H_    0.886498 0.087727 0.543935 0.157693
H2    H     H_    0.355772 0.134598 0.076231 0.150857
H3    H     H_    0.192950 0.757086 0.944242 0.160315
H4    H     H_    0.843168 0.668596 0.066383 0.151227
H5    H     H_    0.664243 0.205688 0.073430 0.114645
H6    H     H_    0.365342 0.116666 0.944844 0.138336
H7    H     H_    0.186515 0.728789 0.073904 0.117059
H8    H     H_    0.855245 0.649118 0.936359 0.135872
H9    H     H_    0.826458 0.868147 0.062653 0.176075
H10   H     H_    0.101582 0.927701 0.934003 0.132692
H11   H     H_    0.353208 0.331404 0.054057 0.162286
H12   H     H_    0.289081 0.984272 0.407001 0.128820
H13   H     H_    0.635205 0.410307 0.926625 0.157673
H14   H     H_    0.911973 0.951771 0.068709 0.132087
H15   H     H_    0.111892 0.098266 0.928516 0.146963
H16   H     H_    0.389893 0.488977 0.056003 0.130373
H17   H     H_    0.574338 0.542188 0.922848 0.129573
H18   H     H_    0.914321 0.964981 0.941445 0.132108
H19   H     H_    0.102397 0.109413 0.055440 0.178521
H20   H     H_    0.391882 0.490420 0.929004 0.153202
H21   H     H_    0.569519 0.539571 0.050706 0.142610
H22   H     H_    0.827359 0.885952 0.936349 0.145911
H23   H     H_    0.386497 0.587717 0.543938 0.157779
H24   H     H_    0.091597 0.939139 0.061017 0.131979
H25   H     H_    0.348480 0.337997 0.926063 0.137275
H26   H     H_    0.636173 0.415407 0.054288 0.129663
H27   H     H_    0.964487 0.149722 0.940658 0.145779
H28   H     H_    0.975617 0.158446 0.070508 0.127185
H29   H     H_    0.464326 0.645119 0.944864 0.121621
H30   H     H_    0.475334 0.649478 0.076123 0.114284
H31   H     H_    0.078843 0.626059 0.044900 0.172013
H32   H     H_    0.966423 0.590501 0.931139 0.168459
H33   H     H_    0.586816 0.048481 0.057798 0.177010
H34   H     H_    0.789094 0.484292 0.407002 0.129215
H35   H     H_    0.499635 0.137903 0.930515 0.166410
H36   H     H_    0.866729 0.040248 0.419174 0.140643
H37   H     H_    0.315634 0.932773 0.532043 0.122590
H38   H     H_    0.366727 0.540238 0.419178 0.140571
H39   H     H_    0.815646 0.432792 0.532044 0.122762
H40   H     H_    0.115481 0.564700 0.454822 0.159539
H41   H     H_    0.754307 0.831973 0.600966 0.155067
H42   H     H_    0.615481 0.064694 0.454815 0.159643
H43   H     H_    0.254319 0.331977 0.600962 0.155247
H44   H     H_    0.602780 0.231807 0.438928 0.142621
H45   H     H_    0.955957 0.763279 0.534383 0.106856
H46   H     H_    0.157513 0.319710 0.618180 0.134789
H47   H     H_    0.102782 0.731813 0.438934 0.142587
H48   H     H_    0.657501 0.819693 0.618183 0.134521
H49   H     H_    0.621968 0.269168 0.563352 0.138462
H50   H     H_    0.134454 0.370959 0.496283 0.135134
H51   H     H_    0.121974 0.769175 0.563359 0.138258
H52   H     H_    0.634442 0.870948 0.496286 0.135234
H53   H     H_    0.638053 0.102156 0.579096 0.140219
H54   H     H_    0.231269 0.382430 0.478867 0.148719
H55   H     H_    0.138059 0.602162 0.579103 0.139912
H56   H     H_    0.910377 0.725303 0.412927 0.123395
H57   H     H_    0.731257 0.882431 0.478872 0.148674
H58   H     H_    0.028408 0.914424 0.449374 0.103911
H59   H     H_    0.054242 0.939020 0.578014 0.106155
H60   H     H_    0.528410 0.414423 0.449370 0.103854
H61   H     H_    0.554246 0.439027 0.578008 0.106479
H62   H     H_    0.993409 0.089139 0.377238 0.130904
H63   H     H_    0.045376 0.137826 0.633852 0.130220
H64   H     H_    0.493404 0.589134 0.377231 0.130530
H65   H     H_    0.545373 0.637833 0.633845 0.130353
H66   H     H_    0.921747 0.521904 0.360016 0.126015
H67   H     H_    0.455923 0.263275 0.534353 0.107046
H68   H     H_    0.007054 0.599200 0.603702 0.137103
H69   H     H_    0.421732 0.021876 0.359994 0.125810
H70   H     H_    0.507018 0.099210 0.603683 0.137853
H71   H     H_    0.933639 0.537124 0.071483 0.238711
H72   H     H_    0.982332 0.638469 0.117634 0.248895
H73   H     H_    0.069837 0.605838 0.854318 0.249254
H74   H     H_    0.062274 0.725077 0.909194 0.212511
H75   H     H_    0.499689 0.166056 0.121084 0.249346
H76   H     H_    0.530437 0.248999 0.052350 0.217809
H77   H     H_    0.614538 0.947809 0.941636 0.234267
H78   H     H_    0.410354 0.225281 0.412895 0.123310
H79   H     H_    0.585057 0.017546 0.866724 0.250968
H80   H     H_    0.672321 0.227233 0.942917 0.154648
N1    N     N_3   0.968418 0.610851 0.066227 -0.680574
N2    N     N_3   0.074405 0.632032 0.907706 -0.646272
N3    N     N_3   0.499204 0.173291 0.065424 -0.673887
N4    N     N_3   0.594094 0.029697 0.921237 -0.668152
O1    O     O_R   0.957020 0.451640 0.669920 -0.527150
O2    O     O_R   0.168040 0.093290 0.169870 -0.521353
O3    O     O_R   0.331960 0.593290 0.830130 -0.523972
O4    O     O_R   0.668040 0.593290 0.169870 -0.514021
O5    O     O_R   0.945600 0.250580 0.824860 -0.508865
O6    O     O_R   0.054400 0.250580 0.175140 -0.510851
O7    O     O_R   0.445600 0.750580 0.824860 -0.508138
O8    O     O_R   0.554400 0.750580 0.175140 -0.505115
O9    O     O_3   0.834640 0.334650 0.749500 -0.263215
O10   O     O_3   0.165360 0.334650 0.250500 -0.259171
O11   O     O_3   0.334640 0.834650 0.749500 -0.264573
O12   O     O_R   0.042980 0.451640 0.330080 -0.518608
O13   O     O_3   0.665360 0.834650 0.250500 -0.258730
O14   O     O_R   0.821450 0.543440 0.674610 -0.500217
O15   O     O_R   0.178550 0.543440 0.325390 -0.497654
O16   O     O_R   0.321450 0.043440 0.674610 -0.498841
O17   O     O_R   0.678550 0.043440 0.325390 -0.496937
O18   O     O_R   0.715320 0.458650 0.668100 -0.527462
O19   O     O_R   0.284680 0.458650 0.331900 -0.537345
O20   O     O_R   0.215320 0.958650 0.668100 -0.526625
O21   O     O_R   0.784680 0.958650 0.331900 -0.536771
O22   O     O_R   0.737170 0.209590 0.674530 -0.499276
O23   O     O_R   0.457020 0.951640 0.669920 -0.526167
O24   O     O_R   0.262830 0.209590 0.325470 -0.510597
O25   O     O_R   0.237170 0.709590 0.674530 -0.501151
O26   O     O_R   0.762830 0.709590 0.325470 -0.508373
O27   O     O_R   0.832710 0.092740 0.669580 -0.519729
O28   O     O_R   0.167290 0.092740 0.330420 -0.512315
O29   O     O_R   0.332710 0.592740 0.669580 -0.520144
O30   O     O_R   0.667290 0.592740 0.330420 -0.511321
O31   O     O_R   0.946290 0.250060 0.676040 -0.518980
O32   O     O_R   0.053710 0.250060 0.323960 -0.520369
O33   O     O_R   0.446290 0.750060 0.676040 -0.517810
O34   O     O_R   0.542980 0.951640 0.330080 -0.518315
O35   O     O_R   0.553710 0.750060 0.323960 -0.521738
O36   O     O_R   0.956270 0.452200 0.830470 -0.534398
O37   O     O_R   0.043730 0.452200 0.169530 -0.524925
O38   O     O_R   0.456270 0.952200 0.830470 -0.528191
O39   O     O_R   0.543730 0.952200 0.169530 -0.533402
O40   O     O_R   0.820760 0.543950 0.823440 -0.508452
O41   O     O_R   0.179240 0.543950 0.176560 -0.503346
O42   O     O_R   0.320760 0.043950 0.823440 -0.508819
O43   O     O_R   0.679240 0.043950 0.176560 -0.508931
O44   O     O_R   0.714570 0.459210 0.828640 -0.526269
O45   O     O_R   0.736470 0.210100 0.823360 -0.499386
O46   O     O_R   0.285430 0.459210 0.171360 -0.518916
O47   O     O_R   0.214570 0.959210 0.828640 -0.521530
O48   O     O_R   0.785430 0.959210 0.171360 -0.524262
O49   O     O_R   0.263530 0.210100 0.176640 -0.500202
O50   O     O_R   0.236470 0.710100 0.823360 -0.501412
O51   O     O_R   0.763530 0.710100 0.176640 -0.506032
O52   O     O_R   0.831960 0.093290 0.830130 -0.517925

loop_
_geom_bond_atom_site_label_1
_geom_bond_atom_site_label_2
_ccdc_geom_bond_type
C58   C62   A    
C79   H66   S    
C66   C68   A    
Cr9   O10   S    
C20   O4    A    
C4    H27   S    
Cr1   O36   S    
C51   C123  S    
Cr4   O30   S    
C69   C77   A    
C103  C120  A    
C34   C42   S    
C20   O51   A    
C20   C120  S    
C80   C84   A    
C86   C104  A    
Cr10  O50   S    
C3    C129  A    
C8    H31   S    
C110  H16   S    
C95   C117  A    
C122  H36   S    
C112  H17   S    
Cr4   O4    S    
H77   N4    S    
C110  C115  S    
Cr10  O25   S    
Cr4   O13   S    
C57   C64   A    
C43   H50   S    
Cr8   O18   S    
C26   C67   S    
C124  O33   A    
C96   C118  A    
C63   H61   S    
C25   C128  S    
C95   C113  S    
C90   C107  A    
C73   O22   A    
C124  O23   A    
C86   C91   A    
C59   C66   A    
Cr1   O14   S    
C92   C109  S    
C22   C126  S    
C108  H14   S    
C94   C98   A    
C7    H30   S    
C29   C33   A    
Cr5   O10   S    
C88   C106  A    
C23   C129  S    
C9    H32   S    
C51   C65   A    
C115  H20   S    
Cr12  O31   S    
C35   C42   S    
C24   C29   A    
Cr8   O9    S    
Cr7   O39   S    
C110  H11   S    
C40   H40   S    
C78   H1    S    
C55   C65   A    
C113  H18   S    
C73   O27   A    
Cr5   O37   S    
C46   H57   S    
C21   O5    A    
C108  H9    S    
C75   O29   A    
C25   O8    A    
C31   C39   S    
C11   N4    S    
Cr11  O26   S    
C5    C126  A    
C111  H34   S    
C41   C46   S    
Cr11  O13   S    
C13   C28   A    
C102  C106  A    
C2    C27   A    
C52   C69   A    
C51   C70   A    
C7    C128  A    
C97   C115  S    
C15   O42   A    
C76   O26   A    
C85   H78   S    
C18   C118  S    
C40   C44   S    
C72   C81   A    
C77   H68   S    
C16   O48   A    
C93   C110  S    
C39   H43   S    
C116  H26   S    
C44   H55   S    
C32   C40   S    
C99   C104  A    
C56   O16   A    
C10   C11   S    
C19   C119  S    
C98   C120  A    
Cr3   O3    S    
C87   C92   A    
C88   C93   A    
Cr4   O35   S    
C16   C86   S    
Cr2   O10   S    
C96   C114  S    
C24   C111  A    
Cr1   O9    S    
Cr9   O46   S    
C74   O28   A    
C6    C129  A    
C78   C122  A    
C128  C132  A    
C1    C29   S    
C71   C80   A    
C25   O39   A    
C103  H4    S    
C90   C94   A    
C10   C132  S    
C9    C131  S    
C92   C96   A    
C101  C105  A    
Cr10  O11   S    
C101  H2    S    
Cr12  O27   S    
C81   H69   S    
C28   C45   S    
Cr3   O29   S    
C121  O1    A    
C112  H13   S    
C54   C71   A    
C84   H67   S    
C3    C132  A    
C48   C74   S    
C28   C32   A    
C42   H49   S    
Cr8   O22   S    
C84   C85   A    
C47   C73   S    
Cr6   O23   S    
C18   O2    A    
C113  H22   S    
C39   H46   S    
C30   C34   A    
H79   N4    S    
C8    C9    S    
C89   H12   S    
C80   H70   S    
C17   O45   A    
Cr6   O38   S    
C104  H5    S    
C39   C43   S    
C27   C31   A    
C82   C83   A    
Cr8   O44   S    
H76   N3    S    
C60   C61   A    
H71   N1    S    
C2    H37   S    
Cr8   O45   S    
C97   C119  A    
C2    C89   A    
C15   O47   A    
C12   O40   A    
C62   C63   A    
C105  H6    S    
C50   C76   S    
C102  H3    S    
C99   C117  A    
C18   O49   A    
C37   C49   A    
C52   C121  S    
C14   O46   A    
C21   O36   A    
C14   O41   A    
C87   C105  A    
C67   O21   A    
C58   H64   S    
C53   C68   A    
C45   O15   A    
C125  O35   A    
Cr11  O51   S    
Cr2   O6    S    
C41   H41   S    
Cr6   O11   S    
Cr12  O52   S    
C32   C37   A    
C57   C61   A    
C109  H10   S    
C62   H60   S    
C49   C75   S    
C9    N2    S    
C53   C125  S    
C109  C114  S    
C121  O31   A    
C98   C116  S    
C107  H8    S    
Cr12  O5    S    
C60   H58   S    
C57   H63   S    
Cr3   O33   S    
C8    C130  S    
Cr10  O20   S    
C23   O7    A    
C100  H23   S    
C82   H45   S    
C52   C64   A    
Cr11  O48   S    
C125  O34   A    
Cr3   O7    S    
C116  H21   S    
C56   O20   A    
C21   C127  S    
C101  C118  A    
H72   N1    S    
C109  H15   S    
C93   C97   A    
C112  C116  S    
C16   O43   A    
Cr6   O16   S    
Cr1   O40   S    
C15   C87   S    
C123  O12   A    
Cr6   O42   S    
C58   C68   A    
C55   H62   S    
C54   C124  S    
C99   H80   S    
C44   H51   S    
Cr5   O41   S    
C106  H7    S    
Cr11  O21   S    
C4    C127  A    
C70   C79   A    
C27   C56   S    
C10   H33   S    
C91   C108  S    
C42   H53   S    
C12   O44   A    
C4    C5    A    
C75   O25   A    
Cr1   O1    S    
C12   C90   S    
C74   O24   A    
C8    N1    S    
C114  H24   S    
C6    C7    A    
C54   C66   A    
C6    H29   S    
C17   C117  S    
C123  O32   A    
C108  C113  S    
C30   C35   S    
H73   N2    S    
C23   O38   A    
C59   C63   A    
C33   C38   A    
C38   C50   A    
C48   C89   A    
C33   C41   S    
C64   C65   A    
C13   C100  A    
C130  C131  A    
C83   H56   S    
Cr2   O28   S    
C71   C72   A    
C61   H59   S    
C49   C100  A    
C79   C83   A    
C67   O17   A    
C22   O37   A    
C114  H19   S    
C10   N3    S    
C40   H47   S    
C76   O30   A    
C77   C82   A    
Cr5   O12   S    
C35   H42   S    
Cr7   O43   S    
Cr4   O8    S    
C94   C112  S    
C50   C111  A    
Cr9   O19   S    
C5    H28   S    
Cr3   O11   S    
Cr12  O9    S    
C36   C48   A    
C43   H54   S    
Cr2   O2    S    
C22   O6    A    
C69   C70   A    
Cr7   O13   S    
C127  C131  A    
C38   C46   S    
C17   O52   A    
C3    C11   S    
C1    O14   A    
C14   C88   S    
Cr5   O15   S    
C37   C44   S    
Cr9   O49   S    
C19   O50   A    
C11   H35   S    
C45   O19   A    
C41   H48   S    
C91   C95   A    
Cr2   O32   S    
C13   H38   S    
C35   H44   S    
Cr7   O34   S    
C46   H52   S    
Cr9   O24   S    
C126  C130  A    
C31   C36   A    
C36   C43   S    
C103  C107  A    
C34   C47   A    
C26   C122  A    
C47   C78   A    
H75   N3    S    
C1    O18   A    
C55   C60   A    
C53   C72   A    
C19   O3    A    
Cr10  O47   S    
H74   N2    S    
C81   C85   A    
C102  C119  A    
C59   H65   S    
C115  H25   S    
C24   H39   S    
C26   C30   A    
Cr7   O17   S    
