data_mof_unit_48585.cif
_audit_creation_date              2012-12-10T18:22:27-0500
_audit_creation_method            fapswitch 2.2
_symmetry_space_group_name_H-M    P1
_symmetry_Int_Tables_number       1
_space_group_crystal_system       triclinic
_cell_length_a                    23.476614
_cell_length_b                    10.636766
_cell_length_c                    9.497729
_cell_angle_alpha                 89.726325
_cell_angle_beta                  90.12962
_cell_angle_gamma                 89.830054
_cell_volume                      2371.68413355

loop_
_atom_site_label
_atom_site_type_symbol
_atom_type_description
_atom_site_fract_x
_atom_site_fract_y
_atom_site_fract_z
_atom_type_partial_charge
C1    C     C_R   0.499510 0.260066 0.499948 0.880910
C2    C     C_R   0.500176 0.739999 0.499932 0.880339
C3    C     C_R   0.241266 0.583405 0.590148 0.221189
C4    C     C_R   0.760440 0.424756 0.417580 0.224728
C5    C     C_R   0.300340 0.578321 0.587823 -0.220396
C6    C     C_R   0.701236 0.426380 0.416534 -0.217779
C7    C     C_R   0.328849 0.494642 0.499223 -0.105442
C8    C     C_R   0.671005 0.510091 0.501677 -0.111332
C9    C     C_R   0.297515 0.411879 0.412488 0.097439
C10   C     C_R   0.700587 0.596815 0.587251 0.100767
C11   C     C_R   0.237308 0.416481 0.414790 -0.054841
C12   C     C_R   0.760695 0.596576 0.587174 -0.064143
C13   C     C_R   0.209460 0.503773 0.503064 0.183947
C14   C     C_R   0.790422 0.508812 0.503452 0.184812
C15   C     C_3   0.542530 0.042139 0.577855 -0.049633
C16   C     C_3   0.456545 0.958039 0.421212 -0.084351
C17   C     C_3   0.548872 0.960107 0.446171 -0.059381
C18   C     C_3   0.450116 0.040231 0.552931 -0.171608
C19   C     C_3   0.500318 0.876590 0.500039 -0.130227
C20   C     C_3   0.498813 0.123570 0.499265 -0.105114
C21   C     C_3   0.493866 0.957836 0.633701 -0.193712
C22   C     C_3   0.505182 0.042508 0.365661 -0.146802
C23   C     C_R   0.391305 0.496631 0.499700 0.885033
C24   C     C_R   0.608651 0.503982 0.500361 0.890994
C25   C     C_3   0.519747 0.603561 0.048221 0.008919
C26   C     C_3   0.480314 0.396321 0.951813 0.006358
C27   C     C_3   0.469020 0.590307 0.949181 0.216501
C28   C     C_3   0.531043 0.409582 0.051009 0.214726
C29   C     C_3   0.551035 0.513640 0.949106 -0.122065
C30   C     C_3   0.449014 0.486237 0.050915 -0.119404
C31   C     C_R   0.879811 0.594703 0.422447 0.592219
C32   C     C_R   0.120209 0.419960 0.588153 0.587547
C33   C     C_R   0.879926 0.423769 0.586167 0.638603
C34   C     C_R   0.119914 0.598056 0.434188 0.650274
C35   C     C_R   0.939533 0.423676 0.590862 -0.028319
C36   C     C_R   0.060307 0.601758 0.434765 -0.032037
C37   C     C_R   0.969801 0.513979 0.512346 -0.003766
C38   C     C_R   0.030071 0.512916 0.515443 -0.007284
C39   C     C_R   0.939853 0.604522 0.430222 -0.080603
C40   C     C_R   0.060030 0.422547 0.597848 -0.082910
C41   C     C_R   0.969029 0.336725 0.674945 -0.172006
C42   C     C_R   0.030742 0.693608 0.357547 -0.162805
C43   C     C_R   0.028517 0.336603 0.682309 -0.037565
C44   C     C_R   0.971212 0.698574 0.357187 -0.035269
Cu1   Cu    Cu3+1 0.500010 0.499990 0.643150 1.028720
Cu2   Cu    Cu3+1 0.499990 0.500010 0.356850 1.033120
H1    H     H_    0.945592 0.269845 0.738802 0.210499
H2    H     H_    0.054133 0.764897 0.299899 0.212538
H3    H     H_    0.594264 0.523845 0.903729 0.197688
H4    H     H_    0.405776 0.476232 0.096231 0.197843
H5    H     H_    0.324189 0.641699 0.654203 0.197243
H6    H     H_    0.678667 0.359952 0.351076 0.212612
H7    H     H_    0.490266 0.923689 0.743746 0.224225
H8    H     H_    0.508823 0.076792 0.255662 0.220286
N1    N     N_R   0.851588 0.508080 0.502767 -0.459046
N2    N     N_R   0.148342 0.507804 0.509203 -0.458558
N3    N     N_3   0.500040 0.499970 0.858290 -0.229974
N4    N     N_3   0.499960 0.500030 0.141710 -0.233134
O1    O     O_R   0.500030 0.316850 0.620870 -0.558428
O2    O     O_R   0.499970 0.683150 0.379130 -0.554277
O3    O     O_R   0.500000 0.316860 0.379090 -0.575476
O4    O     O_R   0.500000 0.683140 0.620910 -0.576813
O5    O     O_R   0.417890 0.499960 0.620920 -0.555087
O6    O     O_R   0.582110 0.500040 0.379080 -0.553506
O7    O     O_R   0.417870 0.499970 0.379140 -0.579203
O8    O     O_R   0.582130 0.500030 0.620860 -0.579047
O9    O     O_2   0.849558 0.668147 0.333450 -0.472447
O10   O     O_2   0.150716 0.329074 0.653123 -0.467772
O11   O     O_2   0.850283 0.340321 0.664298 -0.491371
O12   O     O_2   0.149463 0.682908 0.357749 -0.480054
I1    I     I_    0.410982 0.731993 0.879362 -0.252340
I2    I     I_    0.589161 0.268367 0.123383 -0.198332
C45   C     C_2   0.545414 0.725123 0.094571 0.930822
O13   O     O_2   0.514788 0.810731 0.134499 -0.570355
O14   O     O_R   0.604043 0.743208 0.080650 -0.716350
H9    H     H_    0.615937 0.832643 0.101858 0.364944
C46   C     C_2   0.454608 0.274863 0.905281 0.923597
O15   O     O_2   0.485231 0.189030 0.865942 -0.569701
O16   O     O_R   0.395913 0.257191 0.918143 -0.707712
H10   H     H_    0.383944 0.167904 0.896417 0.378444
C47   C     C_2   0.054926 0.249378 0.785630 0.956987
O17   O     O_2   0.042306 0.137910 0.784727 -0.542085
O18   O     O_R   0.091956 0.295684 0.888436 -0.691388
H11   H     H_    0.106797 0.227060 0.953360 0.351733
C48   C     C_2   0.944479 0.808887 0.287451 0.952191
O19   O     O_2   0.958429 0.838034 0.167705 -0.541883
O20   O     O_R   0.905592 0.883286 0.361359 -0.689913
H12   H     H_    0.890966 0.956920 0.303378 0.361875
I3    I     I_    0.201794 0.711488 0.729983 -0.108782
I4    I     I_    0.802946 0.294436 0.286058 -0.181375
I5    I     I_    0.340561 0.279311 0.279896 -0.163516
I6    I     I_    0.655300 0.728102 0.716888 -0.197488
C49   C     C_2   0.202724 0.330374 0.327188 0.927143
O21   O     O_2   0.211451 0.217045 0.331356 -0.504099
O22   O     O_R   0.158788 0.378734 0.243233 -0.731654
H13   H     H_    0.137259 0.310645 0.191392 0.349826
C50   C     C_2   0.792982 0.688454 0.672544 0.930674
O23   O     O_2   0.829571 0.651821 0.755000 -0.550382
O24   O     O_R   0.782579 0.817147 0.655994 -0.685537
H14   H     H_    0.807630 0.870361 0.718988 0.365144
C51   C     C_2   0.605110 0.918864 0.387780 0.887536
O25   O     O_2   0.617311 0.807266 0.383465 -0.586742
O26   O     O_R   0.643548 0.009102 0.339331 -0.699795
H15   H     H_    0.680131 0.970418 0.302834 0.364865
C52   C     C_2   0.393745 0.084376 0.609758 0.927292
O27   O     O_2   0.382933 0.196492 0.613527 -0.541800
O28   O     O_R   0.353054 0.998770 0.657235 -0.665527
H16   H     H_    0.366125 0.908483 0.647954 0.329114
C53   C     C_2   0.591064 0.091905 0.663874 0.935666
O29   O     O_2   0.596340 0.060207 0.787057 -0.518488
O30   O     O_R   0.629919 0.174674 0.602280 -0.748741
H17   H     H_    0.660516 0.202788 0.670617 0.351962
C54   C     C_2   0.408616 0.908445 0.332861 0.933368
O31   O     O_2   0.402943 0.944475 0.211258 -0.508248
O32   O     O_R   0.371005 0.820448 0.389865 -0.788583
H18   H     H_    0.340853 0.792995 0.319999 0.360543

loop_
_geom_bond_atom_site_label_1
_geom_bond_atom_site_label_2
_ccdc_geom_bond_type
C33   N1    A    
C38   C40   A    
O20   H12   S    
C34   N2    A    
C49   O21   D    
C18   C21   S    
C45   O14   S    
C45   O13   D    
C15   C53   S    
C36   C42   A    
O22   H13   S    
C16   C54   S    
C9    I5    S    
C47   O17   D    
C22   H8    S    
C29   H3    S    
Cu1   Cu2   S    
C31   O9    S    
C52   O28   S    
Cu1   N3    S    
C51   O25   D    
O18   H11   S    
C28   C29   S    
C19   C21   S    
C53   O30   S    
C48   O19   D    
C33   C35   A    
C2    O2    A    
O32   H18   S    
Cu1   O4    S    
C18   C20   S    
C15   C17   S    
C17   C51   S    
C17   C19   S    
C40   C43   A    
O30   H17   S    
O28   H16   S    
C34   O12   S    
C25   C45   S    
C3    C13   A    
C33   O11   S    
C32   O10   S    
C13   N2    S    
Cu2   O2    S    
C11   C49   S    
C23   O5    A    
C14   N1    S    
C30   H4    S    
C10   I6    S    
C49   O22   S    
Cu2   N4    S    
C27   C30   S    
C41   C43   A    
C28   I2    S    
C42   C44   A    
C50   O24   S    
C50   O23   D    
C4    I4    S    
C48   O20   S    
C25   C29   S    
C15   C20   S    
C26   C46   S    
Cu2   O3    S    
Cu2   O7    S    
C4    C6    A    
C27   N3    S    
C5    C7    A    
C6    C8    A    
C46   O15   D    
Cu1   O5    S    
Cu2   O6    S    
O14   H9    S    
C37   C38   A    
O24   H14   S    
C41   H1    S    
C46   O16   S    
C42   H2    S    
C9    C11   A    
C12   C50   S    
C10   C12   A    
C16   C18   S    
C29   N3    S    
C26   C30   S    
C28   N4    S    
C43   C47   S    
C25   N4    S    
C44   C48   S    
O26   H15   S    
C27   I1    S    
C54   O31   D    
C51   O26   S    
C7    C9    A    
Cu1   O1    S    
C1    C20   S    
C16   C22   S    
C35   C37   A    
C2    C19   S    
C20   C22   S    
C3    C5    A    
C1    O3    A    
C47   O18   S    
C39   C44   A    
C24   O8    A    
C25   C27   S    
C52   O27   D    
C26   C28   S    
C17   C22   S    
C3    I3    S    
C6    H6    S    
C23   O7    A    
C1    O1    A    
C12   C14   A    
C18   C52   S    
C37   C39   A    
C53   O29   D    
C21   H7    S    
C11   C13   A    
C16   C19   S    
C7    C23   S    
C30   N4    S    
C36   C38   A    
C8    C24   S    
C31   C39   A    
C24   O6    A    
C34   C36   A    
C32   C40   A    
C4    C14   A    
C35   C41   A    
C26   N3    S    
O16   H10   S    
C15   C21   S    
C8    C10   A    
Cu1   O8    S    
C5    H5    S    
C31   N1    A    
C32   N2    A    
C2    O4    A    
C54   O32   S    
