data_mof_unit_47811.cif
_audit_creation_date              2012-12-11T17:28:29-0500
_audit_creation_method            fapswitch 2.2
_symmetry_space_group_name_H-M    P1
_symmetry_Int_Tables_number       1
_space_group_crystal_system       triclinic
_cell_length_a                    24.207817
_cell_length_b                    24.184973
_cell_length_c                    25.587988
_cell_angle_alpha                 89.910268
_cell_angle_beta                  90.031401
_cell_angle_gamma                 90.089704
_cell_volume                      14980.842681

loop_
_atom_site_label
_atom_site_type_symbol
_atom_type_description
_atom_site_fract_x
_atom_site_fract_y
_atom_site_fract_z
_atom_type_partial_charge
C1    C     C_R   0.639075 0.426302 0.428361 -0.155794
C2    C     C_R   0.375732 0.558567 0.594274 -0.135037
C3    C     C_R   0.442166 0.376541 0.405097 -0.139167
C4    C     C_R   0.573464 0.638834 0.572717 -0.154949
C5    C     C_R   0.361321 0.573252 0.426957 -0.157138
C6    C     C_R   0.624189 0.441443 0.594376 -0.134994
C7    C     C_R   0.557543 0.623169 0.404745 -0.138533
C8    C     C_R   0.426505 0.361103 0.572703 -0.155435
C9    C     C_R   0.638743 0.574585 0.572343 -0.142319
C10   C     C_R   0.376808 0.441695 0.404699 -0.140269
C11   C     C_R   0.441037 0.624013 0.594575 -0.141933
C12   C     C_R   0.574694 0.361075 0.428328 -0.150647
C13   C     C_R   0.361257 0.425378 0.572310 -0.142013
C14   C     C_R   0.622792 0.557948 0.404426 -0.139752
C15   C     C_R   0.558891 0.376004 0.594702 -0.139944
C16   C     C_R   0.425493 0.638748 0.427480 -0.154098
C17   C     C_R   0.139040 0.926334 0.928249 -0.156036
C18   C     C_R   0.875665 0.058668 0.094223 -0.135125
C19   C     C_R   0.942104 0.876522 0.905113 -0.139193
C20   C     C_R   0.073477 0.138821 0.072676 -0.155430
C21   C     C_R   0.860931 0.073701 0.928247 -0.155604
C22   C     C_R   0.124210 0.941430 0.094413 -0.135353
C23   C     C_R   0.057805 0.123530 0.905041 -0.139383
C24   C     C_R   0.926618 0.861189 0.072967 -0.156539
C25   C     C_R   0.138754 0.074553 0.072323 -0.142014
C26   C     C_R   0.876857 0.941805 0.904643 -0.140602
C27   C     C_R   0.940993 0.124096 0.094506 -0.140148
C28   C     C_R   0.074649 0.861101 0.928241 -0.150475
C29   C     C_R   0.861326 0.925430 0.072530 -0.142257
C30   C     C_R   0.123038 0.058241 0.904602 -0.140495
C31   C     C_R   0.058758 0.876166 0.094861 -0.141322
C32   C     C_R   0.925292 0.138954 0.928235 -0.150534
C33   C     C_R   0.255564 0.247858 0.632083 -0.195370
C34   C     C_R   0.657135 0.658994 0.227308 -0.190983
C35   C     C_R   0.337208 0.660622 0.769680 -0.183218
C36   C     C_R   0.752396 0.254734 0.369892 -0.185433
C37   C     C_R   0.744156 0.752043 0.632465 -0.195419
C38   C     C_R   0.342014 0.339691 0.228424 -0.192912
C39   C     C_R   0.662200 0.339757 0.770411 -0.182865
C40   C     C_R   0.246851 0.742024 0.366670 -0.182742
C41   C     C_R   0.756358 0.747619 0.132981 -0.194825
C42   C     C_R   0.157049 0.160636 0.728057 -0.190868
C43   C     C_R   0.837137 0.160945 0.269510 -0.183580
C44   C     C_R   0.252258 0.754749 0.869644 -0.185882
C45   C     C_R   0.243852 0.252180 0.132428 -0.194492
C46   C     C_R   0.842449 0.839427 0.728370 -0.191156
C47   C     C_R   0.161051 0.840587 0.271125 -0.175547
C48   C     C_R   0.747259 0.245447 0.870426 -0.185316
C49   C     C_1   0.217168 0.212995 0.658881 0.105971
C50   C     C_1   0.688504 0.685698 0.187240 0.102603
C51   C     C_1   0.312632 0.689330 0.812337 0.107884
C52   C     C_1   0.787379 0.217477 0.342350 0.102289
C53   C     C_1   0.782444 0.786971 0.659261 0.105832
C54   C     C_1   0.311106 0.313407 0.187866 0.101994
C55   C     C_1   0.686752 0.311036 0.813184 0.108070
C56   C     C_1   0.211256 0.780737 0.341481 0.104486
C57   C     C_1   0.717928 0.712322 0.159265 0.103223
C58   C     C_1   0.187930 0.186806 0.687370 0.106590
C59   C     C_1   0.812688 0.189533 0.312301 0.107856
C60   C     C_1   0.287263 0.717385 0.842251 0.101833
C61   C     C_1   0.281985 0.287156 0.159365 0.103576
C62   C     C_1   0.811603 0.813218 0.687728 0.106061
C63   C     C_1   0.185468 0.810196 0.312979 0.104465
C64   C     C_1   0.712164 0.282922 0.843124 0.101981
C65   C     C_R   0.331815 0.328094 0.600529 0.045617
C66   C     C_R   0.617779 0.619792 0.323080 0.049229
C67   C     C_R   0.376894 0.621501 0.674073 0.048412
C68   C     C_R   0.672152 0.331104 0.401010 0.047652
C69   C     C_R   0.668091 0.671775 0.600746 0.045488
C70   C     C_R   0.381244 0.379217 0.324030 0.047758
C71   C     C_R   0.622805 0.378651 0.674450 0.048783
C72   C     C_R   0.328676 0.667342 0.397620 0.047214
C73   C     C_R   0.832182 0.828261 0.101396 0.045047
C74   C     C_R   0.118518 0.120986 0.823914 0.049512
C75   C     C_R   0.876770 0.121783 0.173907 0.048385
C76   C     C_R   0.172042 0.831150 0.900761 0.047294
C77   C     C_R   0.168056 0.171720 0.100675 0.044759
C78   C     C_R   0.881155 0.879088 0.824087 0.049252
C79   C     C_R   0.122374 0.879207 0.174724 0.050942
C80   C     C_R   0.827770 0.168971 0.901000 0.047573
C81   C     C_R   0.629394 0.371714 0.415206 0.131262
C82   C     C_R   0.396617 0.602760 0.622771 0.126055
C83   C     C_R   0.398586 0.397877 0.376163 0.126980
C84   C     C_R   0.627807 0.628937 0.586232 0.134487
C85   C     C_R   0.371350 0.627524 0.413142 0.130523
C86   C     C_R   0.603248 0.397273 0.622967 0.125679
C87   C     C_R   0.600828 0.601580 0.375605 0.125954
C88   C     C_R   0.372161 0.370968 0.586165 0.134377
C89   C     C_R   0.129323 0.871760 0.915043 0.131093
C90   C     C_R   0.896529 0.102916 0.122668 0.125855
C91   C     C_R   0.898538 0.897896 0.876166 0.126702
C92   C     C_R   0.127819 0.128895 0.086167 0.134738
C93   C     C_R   0.870593 0.128324 0.915070 0.131039
C94   C     C_R   0.103139 0.897409 0.123054 0.123502
C95   C     C_R   0.101289 0.102178 0.876074 0.126607
C96   C     C_R   0.872355 0.871116 0.086637 0.134369
C97   C     C_R   0.236631 0.295314 0.605959 0.559632
C98   C     C_R   0.671096 0.605153 0.243193 0.562357
C99   C     C_R   0.390928 0.674517 0.753878 0.529805
C100  C     C_R   0.701115 0.235785 0.388126 0.528281
C101  C     C_R   0.763213 0.704674 0.606435 0.559651
C102  C     C_R   0.328466 0.393714 0.243910 0.560344
C103  C     C_R   0.608606 0.325638 0.754378 0.529697
C104  C     C_R   0.292602 0.761221 0.395079 0.529926
C105  C     C_R   0.242196 0.686057 0.352732 0.541414
C106  C     C_R   0.696596 0.372315 0.738630 0.548139
C107  C     C_R   0.377502 0.306796 0.258630 0.536604
C108  C     C_R   0.687538 0.760548 0.640967 0.543264
C109  C     C_R   0.763941 0.311518 0.366684 0.546250
C110  C     C_R   0.302826 0.628194 0.737828 0.548467
C111  C     C_R   0.620726 0.691482 0.256763 0.534911
C112  C     C_R   0.312156 0.239225 0.640720 0.543005
C113  C     C_R   0.737307 0.794509 0.106020 0.558497
C114  C     C_R   0.169530 0.106057 0.742804 0.561253
C115  C     C_R   0.890952 0.174601 0.253803 0.529731
C116  C     C_R   0.201077 0.735816 0.888141 0.528262
C117  C     C_R   0.263091 0.204792 0.106541 0.560031
C118  C     C_R   0.829805 0.893932 0.743065 0.561211
C119  C     C_R   0.106355 0.829615 0.256295 0.532088
C120  C     C_R   0.798439 0.264346 0.888957 0.528064
C121  C     C_R   0.735959 0.188662 0.866637 0.546295
C122  C     C_R   0.196571 0.870252 0.238046 0.525032
C123  C     C_R   0.876880 0.806160 0.759286 0.535960
C124  C     C_R   0.187177 0.260616 0.140650 0.541949
C125  C     C_R   0.263693 0.811539 0.866131 0.546408
C126  C     C_R   0.802610 0.128820 0.237519 0.548403
C127  C     C_R   0.122827 0.193982 0.758976 0.535842
C128  C     C_R   0.812900 0.739829 0.142594 0.544051
C129  C     C_R   0.275649 0.334292 0.588331 -0.369039
C130  C     C_R   0.649356 0.585169 0.290776 -0.375879
C131  C     C_R   0.410932 0.653703 0.706370 -0.353083
C132  C     C_R   0.661570 0.274188 0.404512 -0.352030
C133  C     C_R   0.724290 0.665683 0.588720 -0.368812
C134  C     C_R   0.350308 0.413929 0.291210 -0.370485
C135  C     C_R   0.588740 0.346354 0.706695 -0.353118
C136  C     C_R   0.333055 0.723323 0.411188 -0.358355
C137  C     C_R   0.282333 0.648724 0.369942 -0.356347
C138  C     C_R   0.675858 0.393175 0.691578 -0.348173
C139  C     C_R   0.395422 0.326125 0.307027 -0.340563
C140  C     C_R   0.649991 0.719501 0.626455 -0.348316
C141  C     C_R   0.724180 0.349331 0.383846 -0.359347
C142  C     C_R   0.323698 0.607216 0.690963 -0.348387
C143  C     C_R   0.602613 0.672347 0.305164 -0.336616
C144  C     C_R   0.349802 0.280251 0.626278 -0.348479
C145  C     C_R   0.776129 0.833716 0.088467 -0.366728
C146  C     C_R   0.148175 0.085917 0.790478 -0.374800
C147  C     C_R   0.910918 0.153776 0.206292 -0.352569
C148  C     C_R   0.161544 0.774234 0.904508 -0.351787
C149  C     C_R   0.224298 0.165673 0.088811 -0.368758
C150  C     C_R   0.851253 0.914091 0.790653 -0.374344
C151  C     C_R   0.086855 0.850340 0.208456 -0.351203
C152  C     C_R   0.838125 0.225877 0.905057 -0.351808
C153  C     C_R   0.775851 0.150773 0.883529 -0.359636
C154  C     C_R   0.176690 0.890406 0.190414 -0.353252
C155  C     C_R   0.894550 0.825601 0.807691 -0.339391
C156  C     C_R   0.149794 0.219463 0.126190 -0.346907
C157  C     C_R   0.223957 0.849375 0.883304 -0.359638
C158  C     C_R   0.823449 0.107805 0.190656 -0.348274
C159  C     C_R   0.105242 0.174533 0.807450 -0.339453
C160  C     C_R   0.850304 0.781056 0.128083 -0.349794
N1    N     N_R   0.592620 0.447430 0.448130 -0.039078
N2    N     N_R   0.407380 0.552570 0.551870 -0.041588
N3    N     N_R   0.447430 0.407380 0.448130 -0.041391
N4    N     N_R   0.552570 0.592620 0.551870 -0.038149
N5    N     N_R   0.407380 0.552570 0.448130 -0.038820
N6    N     N_R   0.592620 0.447430 0.551870 -0.041634
N7    N     N_R   0.552570 0.592620 0.448130 -0.041327
N8    N     N_R   0.447430 0.407380 0.551870 -0.038259
N9    N     N_R   0.592620 0.552570 0.551870 -0.039693
N10   N     N_R   0.407380 0.447430 0.448130 -0.041603
N11   N     N_R   0.447430 0.592620 0.551870 -0.040481
N12   N     N_R   0.552570 0.407380 0.448130 -0.038942
N13   N     N_R   0.407380 0.447430 0.551870 -0.039695
N14   N     N_R   0.592620 0.552570 0.448130 -0.041798
N15   N     N_R   0.552570 0.407380 0.551870 -0.040479
N16   N     N_R   0.447430 0.592620 0.448130 -0.038495
N17   N     N_R   0.092620 0.947430 0.948130 -0.039083
N18   N     N_R   0.907380 0.052570 0.051870 -0.041604
N19   N     N_R   0.947430 0.907380 0.948130 -0.041276
N20   N     N_R   0.052570 0.092620 0.051870 -0.038239
N21   N     N_R   0.907380 0.052570 0.948130 -0.039107
N22   N     N_R   0.092620 0.947430 0.051870 -0.041614
N23   N     N_R   0.052570 0.092620 0.948130 -0.041306
N24   N     N_R   0.947430 0.907380 0.051870 -0.038156
N25   N     N_R   0.092620 0.052570 0.051870 -0.039752
N26   N     N_R   0.907380 0.947430 0.948130 -0.041661
N27   N     N_R   0.947430 0.092620 0.051870 -0.040435
N28   N     N_R   0.052570 0.907380 0.948130 -0.038931
N29   N     N_R   0.907380 0.947430 0.051870 -0.039659
N30   N     N_R   0.092620 0.052570 0.948130 -0.041666
N31   N     N_R   0.052570 0.907380 0.051870 -0.040167
N32   N     N_R   0.947430 0.092620 0.948130 -0.038961
Ni1   Ni    Ni4+2 0.591800 0.500000 0.500000 0.213959
Ni2   Ni    Ni4+2 0.408200 0.500000 0.500000 0.214271
Ni3   Ni    Ni4+2 0.500000 0.408200 0.500000 0.214274
Ni4   Ni    Ni4+2 0.500000 0.591800 0.500000 0.213789
Ni5   Ni    Ni4+2 0.091800 0.000000 0.000000 0.213859
Ni6   Ni    Ni4+2 0.908200 0.000000 0.000000 0.213949
Ni7   Ni    Ni4+2 1.000000 0.908200 0.000000 0.214295
Ni8   Ni    Ni4+2 0.000000 0.091800 0.000000 0.214189
H1    H     H_    0.678948 0.446030 0.432174 0.094323
H2    H     H_    0.341748 0.531845 0.604639 0.099151
H3    H     H_    0.469194 0.343014 0.394402 0.096682
H4    H     H_    0.554150 0.678998 0.569625 0.091907
H5    H     H_    0.321163 0.553839 0.429876 0.098779
H6    H     H_    0.658132 0.468187 0.604756 0.099115
H7    H     H_    0.530466 0.656644 0.393938 0.096714
H8    H     H_    0.445788 0.320935 0.569608 0.092132
H9    H     H_    0.678986 0.555455 0.570087 0.088451
H10   H     H_    0.342367 0.467582 0.393923 0.096239
H11   H     H_    0.466725 0.658836 0.604881 0.094922
H12   H     H_    0.555164 0.320980 0.430864 0.088271
H13   H     H_    0.321026 0.444540 0.570015 0.088494
H14   H     H_    0.656985 0.531787 0.393627 0.096882
H15   H     H_    0.533158 0.341211 0.605071 0.094983
H16   H     H_    0.444500 0.679152 0.429715 0.090289
H17   H     H_    0.178926 0.946055 0.931991 0.094561
H18   H     H_    0.841633 0.032004 0.104589 0.099222
H19   H     H_    0.969072 0.842944 0.894414 0.096736
H20   H     H_    0.054167 0.178985 0.069553 0.091923
H21   H     H_    0.821058 0.053962 0.932042 0.094531
H22   H     H_    0.158195 0.968080 0.104971 0.101060
H23   H     H_    0.030811 0.157118 0.894295 0.096810
H24   H     H_    0.945888 0.821001 0.070005 0.092619
H25   H     H_    0.178990 0.055407 0.070065 0.088613
H26   H     H_    0.842550 0.967861 0.893784 0.097211
H27   H     H_    0.966669 0.158942 0.104778 0.094889
H28   H     H_    0.055113 0.821006 0.930738 0.088250
H29   H     H_    0.821050 0.944517 0.070304 0.088657
H30   H     H_    0.157304 0.032187 0.893740 0.097336
H31   H     H_    0.032927 0.841529 0.105500 0.095544
H32   H     H_    0.944797 0.179057 0.930749 0.088238
O1    O     O_3   0.180173 0.300891 0.596939 -0.661082
C161  C     C_3   0.159780 0.353827 0.610890 0.174822
H33   H     H_    0.114842 0.353754 0.602053 0.141129
H34   H     H_    0.177549 0.387290 0.586379 0.091635
C162  C     C_3   0.167064 0.366344 0.669435 -0.340639
H35   H     H_    0.151799 0.330846 0.692768 0.254599
H36   H     H_    0.211501 0.372608 0.678599 0.199829
C163  C     C_3   0.135437 0.418189 0.685261 -0.978038
H37   H     H_    0.150267 0.454425 0.662486 0.262035
H38   H     H_    0.142111 0.426450 0.727472 0.279517
H39   H     H_    0.090480 0.412413 0.678393 0.261279
O2    O     O_3   0.703739 0.573439 0.209832 -0.663024
C164  C     C_3   0.744441 0.541579 0.235937 0.177522
H40   H     H_    0.766902 0.518108 0.205313 0.142483
H41   H     H_    0.726213 0.509560 0.261803 0.086350
C165  C     C_3   0.786780 0.577643 0.265062 -0.332761
H42   H     H_    0.802462 0.610392 0.238478 0.243888
H43   H     H_    0.766950 0.597888 0.299158 0.198991
C166  C     C_3   0.835349 0.543129 0.284526 -1.003039
H44   H     H_    0.820616 0.510215 0.311489 0.260503
H45   H     H_    0.864889 0.570092 0.305831 0.279421
H46   H     H_    0.857248 0.523831 0.251068 0.263933
O3    O     O_3   0.423938 0.706198 0.786646 -0.639829
C167  C     C_3   0.443709 0.754393 0.761115 0.180681
H47   H     H_    0.429510 0.790757 0.783925 0.143927
H48   H     H_    0.427826 0.760412 0.720502 0.070615
C168  C     C_3   0.506914 0.753925 0.760868 -0.248881
H49   H     H_    0.522269 0.751669 0.801766 0.218515
H50   H     H_    0.522011 0.716907 0.739603 0.194796
C169  C     C_3   0.530374 0.805661 0.734835 -1.037739
H51   H     H_    0.517643 0.807463 0.693148 0.259275
H52   H     H_    0.576166 0.804564 0.736780 0.301270
H53   H     H_    0.515737 0.843388 0.755260 0.269040
O4    O     O_3   0.690667 0.179466 0.391021 -0.640947
C170  C     C_3   0.647104 0.164257 0.356849 0.187819
H54   H     H_    0.663699 0.133583 0.328736 0.160688
H55   H     H_    0.629804 0.199006 0.333108 0.070495
C171  C     C_3   0.600643 0.136892 0.388057 -0.272553
H56   H     H_    0.617150 0.100218 0.409101 0.217362
H57   H     H_    0.584361 0.166429 0.417436 0.190594
C172  C     C_3   0.553479 0.118642 0.352382 -1.025444
H58   H     H_    0.535492 0.154910 0.331841 0.262894
H59   H     H_    0.520603 0.098657 0.376073 0.277224
H60   H     H_    0.568619 0.088440 0.323045 0.270373
O5    O     O_3   0.819693 0.699205 0.597564 -0.661259
C173  C     C_3   0.840144 0.646289 0.611690 0.174293
H61   H     H_    0.885087 0.646418 0.602924 0.140943
H62   H     H_    0.822427 0.612809 0.587246 0.091665
C174  C     C_3   0.832839 0.633751 0.670257 -0.340144
H63   H     H_    0.848084 0.669244 0.693517 0.254610
H64   H     H_    0.788400 0.627470 0.679374 0.199762
C175  C     C_3   0.864474 0.581908 0.686265 -0.977970
H65   H     H_    0.849660 0.545675 0.663568 0.261974
H66   H     H_    0.857789 0.573633 0.728489 0.279510
H67   H     H_    0.909432 0.587698 0.679440 0.261268
O6    O     O_3   0.295706 0.425636 0.210829 -0.661615
C176  C     C_3   0.252254 0.453158 0.237310 0.174084
H68   H     H_    0.229166 0.477041 0.207305 0.140989
H69   H     H_    0.267723 0.484417 0.265462 0.084363
C177  C     C_3   0.211716 0.412715 0.263587 -0.342130
H70   H     H_    0.200696 0.379396 0.235776 0.253557
H71   H     H_    0.231431 0.393490 0.298357 0.197567
C178  C     C_3   0.159069 0.442002 0.280925 -0.985834
H72   H     H_    0.169099 0.475592 0.308952 0.265739
H73   H     H_    0.131139 0.411888 0.300385 0.278668
H74   H     H_    0.137240 0.459759 0.246595 0.261414
O7    O     O_3   0.575594 0.293803 0.787079 -0.639809
C179  C     C_3   0.555931 0.245643 0.761535 0.181102
H75   H     H_    0.570013 0.209249 0.784490 0.143888
H76   H     H_    0.572026 0.239661 0.721028 0.071226
C180  C     C_3   0.492725 0.246111 0.760953 -0.249543
H77   H     H_    0.477177 0.248201 0.801771 0.218528
H78   H     H_    0.477719 0.283213 0.739638 0.194911
C181  C     C_3   0.469391 0.194481 0.734759 -1.037627
H79   H     H_    0.482330 0.192845 0.693141 0.259481
H80   H     H_    0.423590 0.195576 0.736447 0.301232
H81   H     H_    0.483924 0.156672 0.755242 0.269076
O8    O     O_3   0.295442 0.816527 0.409176 -0.643536
C182  C     C_3   0.344037 0.841912 0.389600 0.187463
H82   H     H_    0.331236 0.876115 0.363222 0.144351
H83   H     H_    0.371205 0.814152 0.366092 0.067594
C183  C     C_3   0.377146 0.866305 0.434968 -0.268900
H84   H     H_    0.351006 0.896281 0.456613 0.216340
H85   H     H_    0.389322 0.832755 0.462333 0.190896
C184  C     C_3   0.429044 0.895749 0.415556 -1.021212
H86   H     H_    0.456398 0.866220 0.394775 0.266970
H87   H     H_    0.451979 0.913177 0.449336 0.273862
H88   H     H_    0.417831 0.930066 0.388680 0.272218
O9    O     O_3   0.196488 0.667995 0.324672 -0.657073
C185  C     C_3   0.212333 0.648288 0.274720 0.188563
H89   H     H_    0.178800 0.620721 0.260515 0.129709
H90   H     H_    0.250493 0.622648 0.275470 0.083040
C186  C     C_3   0.218857 0.696186 0.235849 -0.346246
H91   H     H_    0.179974 0.720497 0.234446 0.198336
H92   H     H_    0.252943 0.723725 0.248807 0.189399
C187  C     C_3   0.232047 0.675254 0.181082 -0.985610
H93   H     H_    0.271357 0.651618 0.181333 0.270244
H94   H     H_    0.236554 0.710964 0.154075 0.268182
H95   H     H_    0.198175 0.648288 0.166588 0.265773
O10   O     O_3   0.749775 0.384874 0.755340 -0.655927
C188  C     C_3   0.789972 0.363466 0.720519 0.184712
H96   H     H_    0.830442 0.381419 0.732056 0.129086
H97   H     H_    0.783071 0.376564 0.679379 0.091129
C189  C     C_3   0.794026 0.300176 0.724121 -0.369354
H98   H     H_    0.798027 0.287476 0.765611 0.193924
H99   H     H_    0.755941 0.281143 0.707827 0.194993
C190  C     C_3   0.843749 0.278470 0.693963 -0.981980
H100  H     H_    0.840783 0.290357 0.652109 0.275583
H101  H     H_    0.845009 0.232666 0.696793 0.273044
H102  H     H_    0.882551 0.295436 0.710743 0.260964
O11   O     O_3   0.387733 0.252565 0.244399 -0.667592
C191  C     C_3   0.443536 0.246629 0.228933 0.152220
H103  H     H_    0.454673 0.202362 0.233790 0.139887
H104  H     H_    0.472899 0.270525 0.253841 0.090759
C192  C     C_3   0.450689 0.262336 0.171250 -0.300276
H105  H     H_    0.421428 0.237911 0.147049 0.232903
H106  H     H_    0.441261 0.306916 0.165756 0.199703
C193  C     C_3   0.509500 0.251384 0.152633 -0.993046
H107  H     H_    0.539319 0.276463 0.175605 0.272161
H108  H     H_    0.513294 0.262961 0.110782 0.282133
H109  H     H_    0.519752 0.206849 0.156911 0.262302
O12   O     O_3   0.669998 0.805438 0.670095 -0.668759
C194  C     C_3   0.641419 0.843311 0.637713 0.138087
H110  H     H_    0.615694 0.869680 0.663539 0.149298
H111  H     H_    0.612358 0.822721 0.610042 0.093774
C195  C     C_3   0.682015 0.880640 0.608017 -0.303245
H112  H     H_    0.711862 0.899206 0.635927 0.235075
H113  H     H_    0.705501 0.855664 0.579205 0.196579
C196  C     C_3   0.651884 0.926877 0.579170 -0.984603
H114  H     H_    0.622071 0.909263 0.550658 0.266062
H115  H     H_    0.682281 0.952746 0.557690 0.278635
H116  H     H_    0.629420 0.953543 0.607342 0.261782
O13   O     O_3   0.815381 0.328849 0.348812 -0.650648
C197  C     C_3   0.810600 0.362431 0.303541 0.200214
H117  H     H_    0.851770 0.381342 0.296401 0.131924
H118  H     H_    0.781580 0.397549 0.308769 0.080350
C198  C     C_3   0.794695 0.328327 0.255244 -0.366194
H119  H     H_    0.824023 0.293417 0.250573 0.197971
H120  H     H_    0.752429 0.311227 0.260318 0.193724
C199  C     C_3   0.795663 0.363643 0.205811 -0.980173
H121  H     H_    0.766209 0.398617 0.209403 0.263732
H122  H     H_    0.783416 0.337970 0.171766 0.275512
H123  H     H_    0.837870 0.380172 0.198864 0.260495
O14   O     O_3   0.249524 0.615850 0.754295 -0.655969
C200  C     C_3   0.209597 0.637551 0.719256 0.184221
H124  H     H_    0.169000 0.619695 0.730535 0.129121
H125  H     H_    0.216682 0.624614 0.678141 0.091047
C201  C     C_3   0.205761 0.700839 0.722899 -0.369285
H126  H     H_    0.201592 0.713369 0.764380 0.193921
H127  H     H_    0.244000 0.719805 0.706841 0.194837
C202  C     C_3   0.156275 0.722860 0.692486 -0.981655
H128  H     H_    0.159417 0.711159 0.650636 0.275350
H129  H     H_    0.155154 0.768656 0.695368 0.273146
H130  H     H_    0.117337 0.705942 0.709030 0.261087
O15   O     O_3   0.609410 0.745290 0.241781 -0.667748
C203  C     C_3   0.554686 0.748841 0.222580 0.150182
H131  H     H_    0.541593 0.792705 0.225952 0.143319
H132  H     H_    0.524596 0.724143 0.246031 0.090834
C204  C     C_3   0.552229 0.732069 0.164825 -0.308944
H133  H     H_    0.583481 0.755942 0.142398 0.237517
H134  H     H_    0.561870 0.687368 0.160938 0.198915
C205  C     C_3   0.495247 0.742834 0.141543 -0.979681
H135  H     H_    0.463313 0.718917 0.163076 0.273262
H136  H     H_    0.494755 0.729781 0.099965 0.279717
H137  H     H_    0.485309 0.787603 0.143440 0.266103
O16   O     O_3   0.329568 0.194238 0.669935 -0.668613
C206  C     C_3   0.358091 0.156364 0.637651 0.138515
H138  H     H_    0.383780 0.129927 0.663553 0.149180
H139  H     H_    0.387182 0.176947 0.609971 0.093611
C207  C     C_3   0.317437 0.119136 0.607978 -0.302112
H140  H     H_    0.287532 0.100614 0.635882 0.234894
H141  H     H_    0.294020 0.144182 0.579071 0.196304
C208  C     C_3   0.347483 0.072849 0.579286 -0.987734
H142  H     H_    0.377351 0.090416 0.550779 0.266397
H143  H     H_    0.317044 0.047059 0.557818 0.277659
H144  H     H_    0.369872 0.046114 0.607555 0.262080
O17   O     O_3   0.680990 0.799267 0.095951 -0.662292
C209  C     C_3   0.659614 0.851836 0.109804 0.173029
H145  H     H_    0.614946 0.851371 0.099812 0.142093
H146  H     H_    0.677762 0.885747 0.086097 0.092104
C210  C     C_3   0.665072 0.863814 0.168617 -0.339889
H147  H     H_    0.649203 0.828053 0.191219 0.254916
H148  H     H_    0.709195 0.870119 0.179038 0.199251
C211  C     C_3   0.632811 0.915419 0.183992 -0.975733
H149  H     H_    0.648247 0.951914 0.161960 0.261867
H150  H     H_    0.638133 0.923282 0.226441 0.278918
H151  H     H_    0.588107 0.909597 0.175808 0.261526
O18   O     O_3   0.200271 0.073831 0.708296 -0.662543
C212  C     C_3   0.240820 0.040636 0.733098 0.177620
H152  H     H_    0.261702 0.016791 0.701741 0.142359
H153  H     H_    0.222474 0.008956 0.759263 0.086844
C213  C     C_3   0.284989 0.075265 0.761340 -0.331613
H154  H     H_    0.300879 0.107724 0.734549 0.242921
H155  H     H_    0.266709 0.095852 0.796025 0.198992
C214  C     C_3   0.333047 0.039219 0.779410 -1.004412
H156  H     H_    0.318124 0.006652 0.806652 0.260043
H157  H     H_    0.363996 0.065188 0.800018 0.279452
H158  H     H_    0.353365 0.019406 0.745333 0.264124
O19   O     O_3   0.924117 0.205995 0.286674 -0.639838
C215  C     C_3   0.943941 0.254296 0.261353 0.180634
H159  H     H_    0.929657 0.290567 0.284249 0.143900
H160  H     H_    0.928196 0.260452 0.220711 0.070751
C216  C     C_3   0.007151 0.253856 0.261257 -0.249362
H161  H     H_    0.022399 0.251168 0.302168 0.218551
H162  H     H_    0.022299 0.217065 0.239672 0.194637
C217  C     C_3   0.030682 0.305878 0.235779 -1.037154
H163  H     H_    0.017992 0.308171 0.194103 0.259712
H164  H     H_    0.076477 0.304751 0.237750 0.301623
H165  H     H_    0.016049 0.343377 0.256580 0.268943
O20   O     O_3   0.190685 0.679509 0.891300 -0.641087
C218  C     C_3   0.147289 0.664079 0.857028 0.187598
H166  H     H_    0.164058 0.633333 0.829080 0.160650
H167  H     H_    0.129995 0.698705 0.833119 0.070643
C219  C     C_3   0.100759 0.636743 0.888163 -0.272773
H168  H     H_    0.117266 0.600219 0.909439 0.217064
H169  H     H_    0.084263 0.666388 0.917338 0.190550
C220  C     C_3   0.053811 0.618187 0.852371 -1.025561
H170  H     H_    0.035827 0.654300 0.831585 0.262862
H171  H     H_    0.020873 0.598239 0.876012 0.277298
H172  H     H_    0.069167 0.587873 0.823238 0.270330
O21   O     O_3   0.319602 0.199459 0.097770 -0.660930
C221  C     C_3   0.340178 0.146659 0.112102 0.175943
H173  H     H_    0.385110 0.146835 0.103284 0.140670
H174  H     H_    0.322496 0.113012 0.087841 0.091467
C222  C     C_3   0.332977 0.134421 0.170731 -0.343777
H175  H     H_    0.348270 0.170036 0.193796 0.255671
H176  H     H_    0.288554 0.128189 0.179947 0.199592
C223  C     C_3   0.364647 0.082664 0.186922 -0.971125
H177  H     H_    0.349790 0.046313 0.164420 0.262934
H178  H     H_    0.358046 0.074609 0.229195 0.278823
H179  H     H_    0.409591 0.088419 0.179990 0.260667
O22   O     O_3   0.798826 0.926116 0.708596 -0.662358
C224  C     C_3   0.757976 0.958765 0.733467 0.177595
H180  H     H_    0.736877 0.982644 0.702170 0.142655
H181  H     H_    0.776038 0.990410 0.759772 0.086635
C225  C     C_3   0.714137 0.923534 0.761565 -0.332552
H182  H     H_    0.698660 0.891012 0.734713 0.243699
H183  H     H_    0.732591 0.903012 0.796284 0.198919
C226  C     C_3   0.665645 0.958962 0.779529 -1.003229
H184  H     H_    0.680162 0.991651 0.806757 0.260256
H185  H     H_    0.634995 0.932579 0.800114 0.279411
H186  H     H_    0.645109 0.978598 0.745398 0.264051
O23   O     O_3   0.072184 0.800072 0.289745 -0.642979
C227  C     C_3   0.052143 0.751219 0.265676 0.183703
H187  H     H_    0.066248 0.715460 0.289500 0.147461
H188  H     H_    0.067766 0.743961 0.225177 0.068985
C228  C     C_3   0.988951 0.752086 0.265398 -0.255325
H189  H     H_    0.973638 0.755829 0.306186 0.218328
H190  H     H_    0.974139 0.788478 0.242881 0.195707
C229  C     C_3   0.965121 0.699666 0.241064 -1.029531
H191  H     H_    0.977840 0.696371 0.199476 0.258239
H192  H     H_    0.919338 0.701138 0.242912 0.302138
H193  H     H_    0.979490 0.662545 0.262743 0.269431
O24   O     O_3   0.808641 0.320658 0.892454 -0.641047
C230  C     C_3   0.852076 0.336573 0.858425 0.187692
H194  H     H_    0.835266 0.367513 0.830579 0.160423
H195  H     H_    0.869573 0.302241 0.834394 0.070746
C231  C     C_3   0.898401 0.363800 0.889883 -0.272728
H196  H     H_    0.881680 0.400046 0.911308 0.217216
H197  H     H_    0.914936 0.333940 0.918948 0.190587
C232  C     C_3   0.945373 0.382902 0.854371 -1.025681
H198  H     H_    0.963564 0.347068 0.833442 0.263049
H199  H     H_    0.978159 0.402753 0.878247 0.277185
H200  H     H_    0.929972 0.413437 0.825361 0.270454
O25   O     O_3   0.684610 0.171376 0.848488 -0.650696
C233  C     C_3   0.689579 0.138400 0.802943 0.200217
H201  H     H_    0.648478 0.119460 0.795529 0.131789
H202  H     H_    0.718693 0.103304 0.807948 0.080509
C234  C     C_3   0.705473 0.173172 0.754984 -0.366088
H203  H     H_    0.676074 0.208074 0.750553 0.198060
H204  H     H_    0.747693 0.190299 0.760302 0.193656
C235  C     C_3   0.704642 0.138506 0.705242 -0.980253
H205  H     H_    0.734140 0.103527 0.708602 0.263840
H206  H     H_    0.716905 0.164642 0.671455 0.275342
H207  H     H_    0.662470 0.122008 0.698044 0.260591
O26   O     O_3   0.251240 0.878071 0.252485 -0.654179
C236  C     C_3   0.286642 0.850061 0.217383 0.179684
H208  H     H_    0.299396 0.879030 0.185810 0.115513
H209  H     H_    0.266924 0.812936 0.199215 0.087262
C237  C     C_3   0.337815 0.830693 0.247125 -0.268349
H210  H     H_    0.359024 0.866948 0.264756 0.201832
H211  H     H_    0.324907 0.802230 0.279005 0.180573
C238  C     C_3   0.378063 0.800458 0.211383 -1.038779
H212  H     H_    0.358169 0.763106 0.194488 0.278235
H213  H     H_    0.414808 0.787349 0.234237 0.267468
H214  H     H_    0.391862 0.828147 0.179258 0.273017
O27   O     O_3   0.886462 0.751668 0.745541 -0.667155
C239  C     C_3   0.942292 0.744880 0.730468 0.151702
H215  H     H_    0.952715 0.700447 0.735394 0.140573
H216  H     H_    0.971785 0.768315 0.755628 0.090988
C240  C     C_3   0.950197 0.760498 0.672841 -0.301428
H217  H     H_    0.920809 0.736521 0.648390 0.232647
H218  H     H_    0.941491 0.805213 0.667271 0.199824
C241  C     C_3   0.009003 0.748697 0.654699 -0.994381
H219  H     H_    0.038943 0.773439 0.677853 0.272249
H220  H     H_    0.013315 0.760128 0.612857 0.281999
H221  H     H_    0.018616 0.704037 0.659146 0.262187
O28   O     O_3   0.169340 0.305530 0.169519 -0.672736
C242  C     C_3   0.140806 0.343198 0.136893 0.139176
H222  H     H_    0.114628 0.369367 0.162495 0.149961
H223  H     H_    0.112188 0.322429 0.108927 0.093705
C243  C     C_3   0.181453 0.380827 0.107626 -0.301620
H224  H     H_    0.210634 0.399831 0.135899 0.235211
H225  H     H_    0.205672 0.355987 0.079256 0.196972
C244  C     C_3   0.151281 0.426599 0.078161 -0.988569
H226  H     H_    0.122190 0.408527 0.049242 0.266645
H227  H     H_    0.181739 0.452758 0.057076 0.278775
H228  H     H_    0.127998 0.453083 0.105886 0.261033
O29   O     O_3   0.315025 0.828872 0.847992 -0.650719
C245  C     C_3   0.309981 0.862156 0.802552 0.199635
H229  H     H_    0.351020 0.881292 0.795270 0.132283
H230  H     H_    0.280727 0.897107 0.807608 0.080514
C246  C     C_3   0.294240 0.827654 0.754464 -0.363945
H231  H     H_    0.323775 0.792895 0.749962 0.197827
H232  H     H_    0.252086 0.810327 0.759677 0.193414
C247  C     C_3   0.294945 0.862670 0.704836 -0.983112
H233  H     H_    0.265287 0.897490 0.708263 0.263938
H234  H     H_    0.282819 0.836715 0.670944 0.275209
H235  H     H_    0.337046 0.879410 0.697757 0.260564
O30   O     O_3   0.749214 0.116727 0.253877 -0.656021
C248  C     C_3   0.709470 0.138830 0.218877 0.183938
H236  H     H_    0.668780 0.121013 0.229905 0.129031
H237  H     H_    0.716656 0.126221 0.177684 0.091297
C249  C     C_3   0.705823 0.202094 0.222981 -0.368688
H238  H     H_    0.701532 0.214288 0.264541 0.194007
H239  H     H_    0.744192 0.221057 0.207201 0.194786
C250  C     C_3   0.656532 0.224547 0.192555 -0.981420
H240  H     H_    0.659782 0.213153 0.150636 0.275533
H241  H     H_    0.655589 0.270324 0.195741 0.273072
H242  H     H_    0.617452 0.207677 0.208849 0.260782
O31   O     O_3   0.113423 0.248535 0.745164 -0.667197
C251  C     C_3   0.057544 0.255611 0.730294 0.151834
H243  H     H_    0.047353 0.300082 0.735205 0.140530
H244  H     H_    0.028075 0.232263 0.755588 0.090981
C252  C     C_3   0.049259 0.240147 0.672717 -0.301801
H245  H     H_    0.078603 0.264062 0.648123 0.232315
H246  H     H_    0.057764 0.195410 0.667162 0.199861
C253  C     C_3   0.990396 0.252215 0.654798 -0.993236
H247  H     H_    0.960490 0.227536 0.678094 0.272180
H248  H     H_    0.985806 0.240897 0.612985 0.282079
H249  H     H_    0.980975 0.296901 0.659245 0.262330
O32   O     O_3   0.830354 0.695472 0.172634 -0.669008
C254  C     C_3   0.860041 0.657578 0.141329 0.138216
H250  H     H_    0.885516 0.631811 0.168016 0.149544
H251  H     H_    0.889442 0.678183 0.113964 0.093011
C255  C     C_3   0.820504 0.619455 0.111337 -0.302055
H252  H     H_    0.790233 0.600946 0.138887 0.236457
H253  H     H_    0.797414 0.643816 0.081680 0.196344
C256  C     C_3   0.851730 0.573161 0.083812 -0.987097
H254  H     H_    0.882003 0.590711 0.055680 0.266050
H255  H     H_    0.822079 0.546713 0.062078 0.278686
H256  H     H_    0.873814 0.547088 0.112839 0.261875
H257  H     H_    0.262512 0.369299 0.565295 0.138753
H258  H     H_    0.657041 0.543234 0.303140 0.139710
H259  H     H_    0.452897 0.662917 0.694814 0.143209
H260  H     H_    0.622631 0.259063 0.419362 0.140348
H261  H     H_    0.737523 0.630759 0.565736 0.138707
H262  H     H_    0.343001 0.456173 0.302836 0.139781
H263  H     H_    0.546867 0.336976 0.694952 0.143046
H264  H     H_    0.367461 0.737691 0.434504 0.142220
H265  H     H_    0.277842 0.605303 0.360552 0.137258
H266  H     H_    0.701889 0.419569 0.667979 0.137080
H267  H     H_    0.418690 0.298409 0.331883 0.144031
H268  H     H_    0.606869 0.724452 0.636709 0.147800
H269  H     H_    0.733782 0.392935 0.382729 0.135117
H270  H     H_    0.297665 0.580924 0.667307 0.137163
H271  H     H_    0.578458 0.699899 0.329297 0.144473
H272  H     H_    0.392900 0.275205 0.636637 0.147962
H273  H     H_    0.762949 0.868244 0.064790 0.138949
H274  H     H_    0.154533 0.043471 0.801991 0.140259
H275  H     H_    0.952961 0.162782 0.194828 0.143221
H276  H     H_    0.122692 0.759111 0.919567 0.140463
H277  H     H_    0.237651 0.130709 0.065942 0.138782
H278  H     H_    0.844780 0.956508 0.802079 0.140240
H279  H     H_    0.044267 0.843202 0.197536 0.144612
H280  H     H_    0.876973 0.240949 0.920169 0.140428
H281  H     H_    0.766444 0.107142 0.881990 0.135230
H282  H     H_    0.204611 0.912776 0.164998 0.138664
H283  H     H_    0.917047 0.797718 0.833023 0.144254
H284  H     H_    0.106640 0.224382 0.136333 0.147632
H285  H     H_    0.233481 0.892995 0.881977 0.135344
H286  H     H_    0.797312 0.081714 0.166898 0.137239
H287  H     H_    0.082928 0.202451 0.832789 0.144142
H288  H     H_    0.893320 0.776665 0.139016 0.147989

loop_
_geom_bond_atom_site_label_1
_geom_bond_atom_site_label_2
_ccdc_geom_bond_type
C204  C205  S    
C185  H90   S    
C252  H245  S    
C254  H251  S    
C11   N11   A    
C24   N24   A    
C20   H20   S    
C222  H175  S    
C114  O18   S    
C242  H222  S    
C2    H2    S    
N6    Ni1   S    
C214  H156  S    
C127  O31   S    
C28   H28   S    
C227  H188  S    
C48   C120  A    
C188  H96   S    
C235  H205  S    
C244  H228  S    
C13   N13   A    
C20   C92   A    
C73   C160  A    
C21   H21   S    
C74   C159  A    
C46   C62   S    
C68   C81   S    
O18   C212  S    
C24   C96   A    
C77   C156  A    
C245  H229  S    
C35   C99   A    
C78   C155  A    
C185  C186  S    
C253  H248  S    
C167  C168  S    
C224  C225  S    
C131  H259  S    
O2    C164  S    
C142  H270  S    
C195  C196  S    
C206  H139  S    
O28   C242  S    
C248  H236  S    
C13   H13   S    
C200  C201  S    
C8    N8    A    
C75   C90   S    
N1    N12   A    
C9    N9    A    
C195  H112  S    
N2    N11   A    
O22   C224  S    
C220  H171  S    
C159  H287  S    
C225  H183  S    
C98   O2    S    
C251  C252  S    
C198  C199  S    
C253  H249  S    
C126  C158  A    
C210  H148  S    
C164  H40   S    
C42   C58   S    
C161  H34   S    
C154  H282  S    
N15   Ni3   S    
C165  H43   S    
C116  C148  A    
C76   C157  A    
C196  H116  S    
C120  C152  A    
O31   C251  S    
C17   C89   A    
C37   C108  A    
C15   H15   S    
C236  H209  S    
C65   C144  A    
N9    Ni1   S    
C66   C143  A    
C183  H84   S    
C248  H237  S    
C76   C148  A    
C174  C175  S    
C161  C162  S    
C184  H88   S    
C37   C53   S    
O32   C254  S    
C150  H278  S    
C194  H110  S    
C4    C84   A    
C237  H210  S    
C233  H201  S    
C230  H195  S    
C27   N27   A    
C200  H125  S    
C31   H31   S    
C114  C146  A    
C25   N25   A    
N7    N14   A    
C187  H94   S    
C215  H159  S    
C223  H178  S    
C229  H192  S    
C232  H199  S    
C3    C83   A    
C16   C85   A    
C222  C223  S    
C171  H57   S    
C231  H196  S    
O15   C203  S    
C19   N19   A    
O23   C227  S    
C179  H75   S    
C12   N12   A    
C188  C189  S    
C17   N17   A    
C136  H264  S    
C175  H65   S    
C219  H169  S    
C50   C57   T    
C241  H219  S    
C175  H67   S    
C41   C113  A    
C189  H98   S    
C168  H50   S    
C72   C136  A    
C100  C132  A    
C54   C61   T    
C101  C133  A    
C229  H193  S    
C199  H123  S    
N27   Ni8   S    
C211  H149  S    
C247  H234  S    
C174  H63   S    
C219  C220  S    
O13   C197  S    
C119  O23   S    
C27   H27   S    
C21   C93   A    
C162  H35   S    
C25   H25   S    
C23   C95   A    
C33   C97   A    
N32   Ni8   S    
C256  H254  S    
C218  H167  S    
C205  H135  S    
C234  H204  S    
C44   C116  A    
C239  H216  S    
O9    C185  S    
C252  C253  S    
C110  O14   S    
N13   Ni2   S    
C70   C134  A    
C243  H224  S    
C117  C149  A    
N25   Ni5   S    
O17   C209  S    
C208  H142  S    
C116  O20   S    
N30   Ni5   S    
C201  H126  S    
C216  H162  S    
C118  O22   S    
C32   H32   S    
C212  H152  S    
C115  C147  A    
C170  H55   S    
C246  C247  S    
C238  H214  S    
C172  H60   S    
C202  H129  S    
C72   C85   S    
C80   C153  A    
C178  H73   S    
N19   N26   A    
C199  H121  S    
C214  H157  S    
C14   H14   S    
N17   N28   A    
C100  O4    S    
C27   C90   A    
C242  H223  S    
C26   H26   S    
C128  O32   S    
C226  H185  S    
C170  C171  S    
C255  C256  S    
C40   C104  A    
C206  H138  S    
C146  H274  S    
C237  C238  S    
C117  O21   S    
C184  H87   S    
C102  O6    S    
C38   C107  A    
C186  H92   S    
N3    N10   A    
C180  H78   S    
C139  H267  S    
C197  H117  S    
C42   C114  A    
C215  C216  S    
C203  H131  S    
C243  C244  S    
C167  H48   S    
C104  O8    S    
C28   C89   A    
O1    C161  S    
C36   C52   S    
C179  C180  S    
C111  C143  A    
C76   C89   S    
C5    C85   A    
C158  H286  S    
C152  H280  S    
C32   C93   A    
C157  H285  S    
N17   Ni5   S    
O5    C173  S    
C55   C64   T    
C22   C94   A    
O24   C230  S    
N22   Ni5   S    
C189  C190  S    
C163  H38   S    
C251  H244  S    
C224  H180  S    
C250  H242  S    
C11   C82   A    
C7    C87   A    
C44   C125  A    
C133  H261  S    
C211  H151  S    
O10   C188  S    
C79   C94   S    
C7    H7    S    
C208  H144  S    
C48   C121  A    
C166  H46   S    
C173  C174  S    
N16   Ni4   S    
C73   C145  A    
C8    C88   A    
C68   C132  A    
C256  H256  S    
C23   N23   A    
O29   C245  S    
N20   Ni8   S    
C71   C86   S    
C233  H202  S    
O19   C215  S    
C221  C222  S    
C176  H68   S    
N1    Ni1   S    
C195  H113  S    
C197  C198  S    
C140  H268  S    
C209  H145  S    
C108  O12   S    
C201  C202  S    
C213  H154  S    
C194  H111  S    
C23   H23   S    
C212  C213  S    
C182  H83   S    
C241  H220  S    
C164  C165  S    
C238  H212  S    
C18   H18   S    
C126  O30   S    
C207  H140  S    
C45   C117  A    
C144  H272  S    
C7    N7    A    
C72   C137  A    
C25   C92   A    
C104  C136  A    
C245  C246  S    
C124  O28   S    
C151  H279  S    
C187  H93   S    
C29   C96   A    
C170  H54   S    
N4    Ni4   S    
C169  H51   S    
C244  H227  S    
C31   C94   A    
N23   Ni8   S    
C6    C86   A    
C175  H66   S    
C80   C93   S    
C202  H130  S    
C29   H29   S    
C22   N22   A    
C69   C84   S    
C192  C193  S    
C37   C101  A    
C26   N26   A    
C183  C184  S    
C203  C204  S    
C163  H37   S    
C172  H59   S    
C199  H122  S    
C12   C81   A    
C30   N30   A    
C107  C139  A    
C125  O29   S    
C6    H6    S    
C105  C137  A    
C254  H250  S    
C190  H102  S    
C147  H275  S    
C191  H103  S    
C18   N18   A    
O12   C194  S    
C234  C235  S    
C120  O24   S    
C230  H194  S    
C173  H61   S    
C109  C141  A    
C51   C60   T    
O20   C218  S    
O3    C167  S    
O26   C236  S    
C198  H120  S    
C39   C106  A    
C6    N6    A    
C210  H147  S    
C109  O13   S    
C197  H118  S    
C3    H3    S    
C255  H253  S    
C228  H189  S    
C130  H258  S    
C182  H82   S    
C1    H1    S    
N5    Ni2   S    
C169  H53   S    
C228  C229  S    
C166  H44   S    
C123  C155  A    
C251  H243  S    
N5    N16   A    
C103  O7    S    
C196  H115  S    
C128  C160  A    
N6    N15   A    
C121  C153  A    
C249  H238  S    
C101  O5    S    
C204  H133  S    
N31   Ni7   S    
C28   N28   A    
C47   C63   S    
C236  H208  S    
C125  C157  A    
C48   C64   S    
C33   C49   S    
C31   N31   A    
C10   C83   A    
C176  C177  S    
C46   C118  A    
C204  H134  S    
C183  H85   S    
C113  C145  A    
C118  C150  A    
C217  H163  S    
C213  C214  S    
C39   C55   S    
C113  O17   S    
C40   C56   S    
N8    Ni3   S    
C237  H211  S    
C181  H80   S    
C180  C181  S    
C3    N3    A    
C16   N16   A    
C69   C140  A    
C215  H160  S    
C185  H89   S    
C254  C255  S    
C1    N1    A    
C70   C139  A    
C232  H198  S    
C105  O9    S    
C222  H176  S    
C171  C172  S    
C2    N2    A    
C231  H197  S    
C187  H95   S    
C240  H218  S    
C227  H187  S    
C4    H4    S    
C179  H76   S    
C71   C138  A    
C193  H107  S    
C188  H97   S    
C233  C234  S    
C181  H81   S    
C149  H277  S    
C189  H99   S    
C106  O10   S    
C77   C149  A    
C192  H105  S    
N10   Ni2   S    
C22   H22   S    
C193  H109  S    
C75   C147  A    
C26   C91   A    
C163  H39   S    
C112  O16   S    
C231  C232  S    
C18   C90   A    
O7    C179  S    
C30   C95   A    
C246  H232  S    
C190  H100  S    
C38   C54   S    
C191  C192  S    
N3    Ni3   S    
C240  H217  S    
C220  H172  S    
C98   C130  A    
C1    C81   A    
C36   C100  A    
C33   C112  A    
C193  H108  S    
C70   C83   S    
C35   C110  A    
C205  H136  S    
C42   C127  A    
C15   C86   A    
N18   N27   A    
C75   C158  A    
C143  H271  S    
C210  C211  S    
C164  H41   S    
C243  H225  S    
C46   C123  A    
C132  H260  S    
C174  H64   S    
N22   N31   A    
C247  H235  S    
N23   N30   A    
C178  H72   S    
C107  O11   S    
C165  H42   S    
C65   C88   S    
C201  H127  S    
O8    C182  S    
C177  H70   S    
C235  H207  S    
C15   N15   A    
C74   C146  A    
C137  H265  S    
N11   Ni4   S    
C238  H213  S    
C205  H137  S    
C236  C237  S    
C65   C129  A    
C39   C103  A    
C69   C133  A    
C10   N10   A    
C34   C98   A    
C253  H247  S    
C41   C57   S    
C14   N14   A    
C148  H276  S    
C155  H283  S    
N19   Ni7   S    
C44   C60   S    
C45   C61   S    
C240  C241  S    
C230  C231  S    
C186  H91   S    
C19   C91   A    
C9    C84   A    
C223  H177  S    
N14   Ni1   S    
C203  H132  S    
C229  H191  S    
C232  H200  S    
C171  H56   S    
N26   Ni6   S    
N12   Ni3   S    
C221  H174  S    
C73   C96   S    
C67   C142  A    
C217  H165  S    
C227  C228  S    
C211  H150  S    
N29   Ni6   S    
C206  C207  S    
C245  H230  S    
O11   C191  S    
C160  H288  S    
C77   C92   S    
C219  H168  S    
N7    Ni4   S    
C226  H184  S    
C168  C169  S    
C145  H273  S    
O27   C239  S    
C20   N20   A    
C21   N21   A    
C111  O15   S    
C247  H233  S    
C16   H16   S    
C14   C87   A    
C208  H143  S    
C71   C135  A    
C166  H45   S    
C10   H10   S    
C162  H36   S    
C110  C142  A    
O25   C233  S    
C8    H8    S    
C103  C135  A    
C218  C219  S    
C99   O3    S    
C224  H181  S    
C180  H77   S    
C9    H9    S    
C239  H215  S    
C225  C226  S    
C5    N5    A    
C209  H146  S    
C249  C250  S    
C216  C217  S    
C11   H11   S    
C47   C119  A    
C255  H252  S    
C250  H241  S    
C212  H153  S    
C34   C111  A    
C122  C154  A    
C41   C128  A    
N4    N9    A    
C184  H86   S    
C43   C115  A    
N21   Ni6   S    
C43   C126  A    
C176  H69   S    
C138  H266  S    
C181  H79   S    
C178  H74   S    
C207  H141  S    
C24   H24   S    
C45   C124  A    
C119  C151  A    
N8    N13   A    
C214  H158  S    
C34   C50   S    
C134  H262  S    
C122  O26   S    
C249  H239  S    
C242  C243  S    
C12   H12   S    
C209  C210  S    
C135  H263  S    
O4    C170  S    
C226  H186  S    
C66   C87   S    
C108  C140  A    
C47   C122  A    
C169  H52   S    
N28   Ni7   S    
C244  H226  S    
C177  H71   S    
C49   C58   T    
C186  C187  S    
C102  C134  A    
C52   C59   T    
C192  H106  S    
C207  C208  S    
C53   C62   T    
C250  H240  S    
C223  H179  S    
N24   Ni7   S    
C97   O1    S    
C167  H47   S    
N2    Ni2   S    
C4    N4    A    
C246  H231  S    
C56   C63   T    
C68   C141  A    
C112  C144  A    
C225  H182  S    
C121  O25   S    
C200  H124  S    
C221  H173  S    
C241  H221  S    
O30   C248  S    
C190  H101  S    
C106  C138  A    
C191  H104  S    
C220  H170  S    
C124  C156  A    
C173  H62   S    
C162  C163  S    
C19   H19   S    
C168  H49   S    
C127  C159  A    
C17   H17   S    
O14   C200  S    
C78   C150  A    
C79   C151  A    
C198  H119  S    
C141  H269  S    
C80   C152  A    
C115  O19   S    
N24   N29   A    
C74   C95   S    
C177  C178  S    
C67   C131  A    
C123  O27   S    
C228  H190  S    
C43   C59   S    
C78   C91   S    
C32   N32   A    
C256  H255  S    
C196  H114  S    
C99   C131  A    
O6    C176  S    
C30   H30   S    
C252  H246  S    
C97   C129  A    
C218  H166  S    
C38   C102  A    
C129  H257  S    
C79   C154  A    
C35   C51   S    
C156  H284  S    
C153  H281  S    
C239  C240  S    
C13   C88   A    
C213  H155  S    
C248  C249  S    
C29   N29   A    
N21   N32   A    
N18   Ni6   S    
O21   C221  S    
C217  H164  S    
C165  C166  S    
C2    C82   A    
N20   N25   A    
C5    H5    S    
C216  H161  S    
C194  C195  S    
C235  H206  S    
C67   C82   S    
C161  H33   S    
C182  C183  S    
C36   C109  A    
O16   C206  S    
C234  H203  S    
C202  H128  S    
C40   C105  A    
C66   C130  A    
C172  H58   S    
