data_mof_unit_51186.cif
_audit_creation_date              2012-12-11T14:38:26-0500
_audit_creation_method            fapswitch 2.2
_symmetry_space_group_name_H-M    P1
_symmetry_Int_Tables_number       1
_space_group_crystal_system       triclinic
_cell_length_a                    19.501625
_cell_length_b                    11.138653
_cell_length_c                    19.658487
_cell_angle_alpha                 90.002315
_cell_angle_beta                  96.851854
_cell_angle_gamma                 90.003267
_cell_volume                      4239.7541976

loop_
_atom_site_label
_atom_site_type_symbol
_atom_type_description
_atom_site_fract_x
_atom_site_fract_y
_atom_site_fract_z
_atom_type_partial_charge
C1    C     C_R   0.725262 0.951898 0.359776 0.536511
C2    C     C_3   0.183526 0.468135 0.472260 -0.220121
C3    C     C_3   0.316474 0.968146 0.527745 -0.220130
C4    C     C_3   0.683526 0.968135 0.472260 -0.220123
C5    C     C_3   0.765173 0.276447 0.561765 -0.254836
C6    C     C_3   0.234823 0.276448 0.438227 -0.254830
C7    C     C_3   0.265173 0.776447 0.561765 -0.254837
C8    C     C_3   0.734823 0.776448 0.438227 -0.254829
C9    C     C_3   0.759486 0.413230 0.569178 0.067280
C10   C     C_3   0.240513 0.413233 0.430822 0.067334
C11   C     C_3   0.259486 0.913230 0.569178 0.067289
C12   C     C_R   0.274737 0.951896 0.640225 0.536577
C13   C     C_3   0.740513 0.913233 0.430822 0.067324
C14   C     C_3   0.737857 0.357577 0.439914 0.053528
C15   C     C_3   0.262142 0.357575 0.560084 0.053504
C16   C     C_3   0.237857 0.857577 0.439914 0.053527
C17   C     C_3   0.762142 0.857575 0.560084 0.053505
C18   C     C_3   0.791893 0.459845 0.450679 -0.234641
C19   C     C_3   0.208108 0.459836 0.549325 -0.234629
C20   C     C_3   0.291893 0.959845 0.450679 -0.234641
C21   C     C_3   0.708108 0.959836 0.549325 -0.234629
C22   C     C_3   0.767456 0.250629 0.485057 -0.246084
C23   C     C_R   0.225262 0.451898 0.359776 0.536489
C24   C     C_3   0.232542 0.250625 0.514933 -0.246092
C25   C     C_3   0.267456 0.750629 0.485057 -0.246084
C26   C     C_3   0.732542 0.750625 0.514933 -0.246092
C27   C     C_3   0.487372 0.304818 0.962646 -0.296030
C28   C     C_3   0.510906 0.304883 0.037643 -0.296142
C29   C     C_3   0.986731 0.804786 0.962750 -0.295986
C30   C     C_3   0.010266 0.804900 0.037749 -0.296193
C31   C     C_3   0.429626 0.101090 0.969063 0.136326
C32   C     C_3   0.570442 0.102694 0.030963 0.136038
C33   C     C_3   0.929656 0.600499 0.969076 0.136430
C34   C     C_R   0.774737 0.451896 0.640225 0.536599
C35   C     C_3   0.070468 0.603294 0.030974 0.135932
C36   C     C_3   0.556801 0.117078 0.952186 -0.183461
C37   C     C_3   0.443192 0.115178 0.047894 -0.183002
C38   C     C_3   0.056796 0.617785 0.952217 -0.183632
C39   C     C_3   0.943196 0.614478 0.047925 -0.182813
C40   C     C_R   0.536200 0.180316 0.338618 0.527134
C41   C     C_R   0.463800 0.180316 0.661381 0.527290
C42   C     C_R   0.036200 0.680316 0.338618 0.527085
C43   C     C_R   0.963800 0.680316 0.661381 0.527339
C44   C     C_3   0.485037 0.174166 0.934167 0.074567
C45   C     C_3   0.669560 0.400964 0.464943 -0.238655
C46   C     C_3   0.514471 0.174119 0.065963 0.074556
C47   C     C_3   0.984855 0.674183 0.934216 0.074573
C48   C     C_3   0.014291 0.674104 0.066011 0.074544
C49   C     C_1   0.760823 0.425311 0.903668 -0.011038
C50   C     C_1   0.239367 0.424979 0.096452 -0.009962
C51   C     C_1   0.260784 0.925245 0.903644 -0.010762
C52   C     C_1   0.739326 0.925049 0.096426 -0.010244
C53   C     C_1   0.746299 0.403788 0.033633 -0.057497
C54   C     C_1   0.253929 0.403373 0.966496 -0.057768
C55   C     C_1   0.246253 0.903704 0.033607 -0.057487
C56   C     C_3   0.330439 0.400975 0.535057 -0.238656
C57   C     C_1   0.753881 0.903464 0.966468 -0.057780
C58   C     C_1   0.752085 0.413326 0.962956 -0.062387
C59   C     C_1   0.248190 0.412887 0.037189 -0.062356
C60   C     C_1   0.252029 0.913238 0.962927 -0.062341
C61   C     C_1   0.748131 0.912982 0.037158 -0.062412
C62   C     C_1   0.742311 0.390115 0.093846 -0.014772
C63   C     C_1   0.257821 0.389819 0.906253 -0.014711
C64   C     C_1   0.242285 0.890054 0.093826 -0.014686
C65   C     C_1   0.757793 0.889885 0.906232 -0.014800
C66   C     C_R   0.726648 0.317867 0.367940 0.551218
C67   C     C_3   0.169560 0.900964 0.464943 -0.238656
C68   C     C_R   0.273350 0.317865 0.632057 0.551211
C69   C     C_R   0.226648 0.817867 0.367940 0.551213
C70   C     C_R   0.773350 0.817865 0.632057 0.551216
C71   C     C_R   0.722545 0.953561 0.163578 0.547926
C72   C     C_R   0.277481 0.953615 0.836447 0.547442
C73   C     C_R   0.222554 0.453543 0.163587 0.548123
C74   C     C_R   0.777489 0.453632 0.836455 0.547247
C75   C     C_R   0.534503 0.179591 0.139966 0.544558
C76   C     C_R   0.465229 0.179626 0.860138 0.544818
C77   C     C_R   0.034406 0.679581 0.140004 0.544466
C78   C     C_3   0.830439 0.900975 0.535057 -0.238655
C79   C     C_R   0.965128 0.679637 0.860177 0.544923
C80   C     C_R   0.735735 0.357559 0.163292 0.551479
C81   C     C_R   0.264298 0.357472 0.836749 0.551535
C82   C     C_R   0.235728 0.857540 0.163283 0.551526
C83   C     C_R   0.764291 0.857493 0.836740 0.551487
C84   C     C_1   0.485298 0.172652 0.594308 -0.029600
C85   C     C_1   0.514700 0.172654 0.405690 -0.029590
C86   C     C_1   0.985298 0.672652 0.594308 -0.029608
C87   C     C_1   0.014700 0.672654 0.405690 -0.029582
C88   C     C_1   0.504361 0.169354 0.464884 -0.070979
C89   C     C_3   0.816474 0.468146 0.527745 -0.220132
C90   C     C_1   0.495636 0.169353 0.535114 -0.070978
C91   C     C_1   0.004361 0.669354 0.464884 -0.070977
C92   C     C_1   0.995636 0.669353 0.535114 -0.070980
C93   C     C_3   0.684167 0.445865 0.539088 -0.237867
C94   C     C_3   0.315832 0.445877 0.460915 -0.237859
C95   C     C_3   0.184168 0.945865 0.539088 -0.237866
C96   C     C_3   0.815832 0.945877 0.460915 -0.237859
Cr1   Cr    Cr6+3 0.765780 0.160710 0.267420 1.015164
Cr2   Cr    Cr6+3 0.383970 0.323720 0.751490 1.013688
Cr3   Cr    Cr6+3 0.116030 0.823720 0.248510 1.013694
Cr4   Cr    Cr6+3 0.883970 0.823720 0.751490 1.013677
Cr5   Cr    Cr6+3 0.234220 0.160710 0.732580 1.015394
Cr6   Cr    Cr6+3 0.265780 0.660710 0.267420 1.015236
Cr7   Cr    Cr6+3 0.734220 0.660710 0.732580 1.015321
Cr8   Cr    Cr6+3 0.612200 0.009560 0.248850 1.043884
Cr9   Cr    Cr6+3 0.387800 0.009560 0.751150 1.043960
Cr10  Cr    Cr6+3 0.112200 0.509560 0.248850 1.043853
Cr11  Cr    Cr6+3 0.887800 0.509560 0.751150 1.043986
Cr12  Cr    Cr6+3 0.616030 0.323720 0.248510 1.013682
H1    H     H_    0.674247 0.542696 0.541185 0.125242
H2    H     H_    0.135775 0.412720 0.462149 0.137824
H3    H     H_    0.364225 0.912741 0.537854 0.137831
H4    H     H_    0.635775 0.912720 0.462149 0.137824
H5    H     H_    0.837448 0.443678 0.422833 0.145970
H6    H     H_    0.162553 0.443662 0.577171 0.146011
H7    H     H_    0.337448 0.943678 0.422833 0.145976
H8    H     H_    0.662553 0.943662 0.577171 0.146005
H9    H     H_    0.435008 0.346368 0.953714 0.149934
H10   H     H_    0.562889 0.347875 0.046551 0.150713
H11   H     H_    0.934228 0.845800 0.953809 0.149649
H12   H     H_    0.325756 0.542709 0.458823 0.125235
H13   H     H_    0.062103 0.848425 0.046646 0.150985
H14   H     H_    0.523539 0.361947 0.936865 0.157694
H15   H     H_    0.474266 0.360734 0.063576 0.156960
H16   H     H_    0.022717 0.862386 0.937025 0.157952
H17   H     H_    0.973453 0.860274 0.063737 0.156694
H18   H     H_    0.376992 0.136237 0.951014 0.099745
H19   H     H_    0.622817 0.138903 0.049079 0.100235
H20   H     H_    0.876928 0.635252 0.951051 0.099569
H21   H     H_    0.122744 0.639895 0.049113 0.100414
H22   H     H_    0.402372 0.172563 0.066164 0.061821
H23   H     H_    0.174247 0.042696 0.541185 0.125242
H24   H     H_    0.597128 0.175755 0.934052 0.062269
H25   H     H_    0.902195 0.671378 0.066245 0.061666
H26   H     H_    0.096935 0.676938 0.934132 0.062435
H27   H     H_    0.559681 0.029053 0.925878 0.179049
H28   H     H_    0.441097 0.026847 0.074032 0.179838
H29   H     H_    0.059969 0.529880 0.925848 0.178737
H30   H     H_    0.941396 0.526037 0.074001 0.180149
H31   H     H_    0.646678 0.403550 0.570303 0.121611
H32   H     H_    0.353321 0.403568 0.429696 0.121580
H33   H     H_    0.146677 0.903550 0.570303 0.121613
H34   H     H_    0.825756 0.042709 0.458823 0.125235
H35   H     H_    0.853321 0.903568 0.429696 0.121578
H36   H     H_    0.631931 0.325584 0.462233 0.125358
H37   H     H_    0.368067 0.325601 0.537762 0.125346
H38   H     H_    0.131931 0.825584 0.462233 0.125361
H39   H     H_    0.868067 0.825601 0.537762 0.125342
H40   H     H_    0.645904 0.475138 0.432219 0.138504
H41   H     H_    0.354097 0.475151 0.567785 0.138513
H42   H     H_    0.145904 0.975137 0.432219 0.138501
H43   H     H_    0.854097 0.975151 0.567785 0.138515
H44   H     H_    0.337989 0.056338 0.544552 0.100145
H45   H     H_    0.822165 0.235686 0.476433 0.129871
H46   H     H_    0.662009 0.056322 0.455460 0.100166
H47   H     H_    0.837989 0.556338 0.544552 0.100140
H48   H     H_    0.162009 0.556322 0.455460 0.100171
H49   H     H_    0.267630 0.043883 0.431038 0.121720
H50   H     H_    0.732374 0.043877 0.568969 0.121735
H51   H     H_    0.767630 0.543883 0.431038 0.121719
H52   H     H_    0.232374 0.543878 0.568969 0.121735
H53   H     H_    0.812395 0.239228 0.591798 0.136237
H54   H     H_    0.187599 0.239225 0.408193 0.136208
H55   H     H_    0.312395 0.739228 0.591798 0.136234
H56   H     H_    0.177833 0.235668 0.523559 0.129866
H57   H     H_    0.687599 0.739224 0.408193 0.136212
H58   H     H_    0.719538 0.233548 0.580459 0.112324
H59   H     H_    0.280455 0.233556 0.419527 0.112292
H60   H     H_    0.219538 0.733548 0.580459 0.112325
H61   H     H_    0.780455 0.733556 0.419527 0.112291
H62   H     H_    0.740256 0.170007 0.470062 0.110528
H63   H     H_    0.259744 0.170008 0.529921 0.110516
H64   H     H_    0.240256 0.670007 0.470062 0.110528
H65   H     H_    0.759744 0.670008 0.529921 0.110517
H66   H     H_    0.606568 0.940113 0.028851 0.326718
H67   H     H_    0.322165 0.735687 0.476433 0.129871
H68   H     H_    0.394398 0.937836 0.970524 0.326714
H69   H     H_    0.106927 0.440966 0.028621 0.326703
H70   H     H_    0.894758 0.437007 0.970288 0.326729
H71   H     H_    0.677833 0.735668 0.523559 0.129866
H72   H     H_    0.864225 0.412741 0.537854 0.137831
O1    O     O_R   0.783100 0.287550 0.345460 -0.526790
O2    O     O_R   0.454350 0.284910 0.836260 -0.537492
O3    O     O_R   0.045650 0.784910 0.163740 -0.537506
O4    O     O_R   0.954350 0.784910 0.836260 -0.537485
O5    O     O_R   0.677950 0.374280 0.185410 -0.493598
O6    O     O_R   0.322050 0.374280 0.814590 -0.493804
O7    O     O_R   0.177950 0.874280 0.185410 -0.493562
O8    O     O_R   0.822050 0.874280 0.814590 -0.493840
O9    O     O_3   0.664670 0.164660 0.254930 -0.279894
O10   O     O_3   0.335330 0.164660 0.745070 -0.280193
O11   O     O_3   0.164670 0.664660 0.254930 -0.279830
O12   O     O_R   0.216900 0.287550 0.654540 -0.526713
O13   O     O_3   0.835330 0.664660 0.745070 -0.280255
O14   O     O_R   0.760020 0.037400 0.337700 -0.524988
O15   O     O_R   0.239980 0.037400 0.662300 -0.524946
O16   O     O_R   0.260020 0.537400 0.337700 -0.525003
O17   O     O_R   0.739980 0.537400 0.662300 -0.524931
O18   O     O_R   0.666600 0.921990 0.332020 -0.526084
O19   O     O_R   0.333400 0.921990 0.667980 -0.525979
O20   O     O_R   0.166600 0.421990 0.332020 -0.526120
O21   O     O_R   0.833400 0.421990 0.667980 -0.525944
O22   O     O_R   0.557260 0.082670 0.312540 -0.501064
O23   O     O_R   0.283100 0.787550 0.345460 -0.526785
O24   O     O_R   0.442740 0.082670 0.687460 -0.500906
O25   O     O_R   0.057260 0.582670 0.312540 -0.501118
O26   O     O_R   0.942740 0.582670 0.687460 -0.500851
O27   O     O_R   0.548410 0.285740 0.316480 -0.518407
O28   O     O_R   0.451590 0.285740 0.683520 -0.518322
O29   O     O_R   0.048410 0.785740 0.316480 -0.518434
O30   O     O_R   0.951590 0.785740 0.683520 -0.518296
O31   O     O_R   0.680500 0.375040 0.327000 -0.502265
O32   O     O_R   0.319500 0.375040 0.673000 -0.502217
O33   O     O_R   0.180500 0.875040 0.327000 -0.502271
O34   O     O_R   0.716900 0.787550 0.654540 -0.526718
O35   O     O_R   0.819500 0.875040 0.673000 -0.502213
O36   O     O_R   0.780350 0.286720 0.192720 -0.502059
O37   O     O_R   0.219650 0.286720 0.807280 -0.501758
O38   O     O_R   0.280350 0.786720 0.192720 -0.502015
O39   O     O_R   0.719650 0.786720 0.807280 -0.501803
O40   O     O_R   0.757470 0.036630 0.196110 -0.500489
O41   O     O_R   0.242530 0.036630 0.803890 -0.500285
O42   O     O_R   0.257470 0.536630 0.196110 -0.500529
O43   O     O_R   0.742530 0.536630 0.803890 -0.500244
O44   O     O_R   0.663840 0.921160 0.179280 -0.476903
O45   O     O_R   0.554710 0.081900 0.170950 -0.453075
O46   O     O_R   0.336160 0.921160 0.820720 -0.477575
O47   O     O_R   0.163840 0.421160 0.179280 -0.476670
O48   O     O_R   0.836160 0.421160 0.820720 -0.477820
O49   O     O_3   0.568080 0.980354 0.048432 -0.643985
O50   O     O_3   0.432883 0.978951 0.951396 -0.643900
O51   O     O_3   0.068442 0.480884 0.048373 -0.644020
O52   O     O_3   0.933246 0.478439 0.951338 -0.643878
O53   O     O_R   0.445290 0.081900 0.829050 -0.453037
O54   O     O_R   0.054710 0.581900 0.170950 -0.453091
O55   O     O_R   0.945290 0.581900 0.829050 -0.453025
O56   O     O_R   0.545650 0.284910 0.163740 -0.537504

loop_
_geom_bond_atom_site_label_1
_geom_bond_atom_site_label_2
_ccdc_geom_bond_type
Cr1   O14   S    
C4    H46   S    
C7    H60   S    
Cr12  O56   S    
Cr4   O35   S    
C8    C13   S    
C53   C58   S    
C87   C91   T    
C43   O30   A    
C45   H40   S    
C94   H32   S    
C21   H50   S    
C14   C18   S    
C1    O18   A    
C34   O17   A    
C47   C79   S    
Cr2   O10   S    
Cr5   O12   S    
C45   C93   S    
Cr10  O25   S    
Cr3   O7    S    
C28   H15   S    
Cr8   O45   S    
C80   O36   A    
C26   H71   S    
C37   H22   S    
C56   C94   S    
C29   H11   S    
C28   C46   S    
C3    H44   S    
C33   C39   S    
C73   O42   A    
C63   C81   S    
C50   C59   T    
C32   C36   S    
C32   H19   S    
C30   C48   S    
Cr4   O8    S    
Cr11  O21   S    
C52   C61   T    
C21   H8    S    
C39   H25   S    
C65   C83   S    
C54   C63   T    
C68   O12   A    
C34   O21   A    
Cr5   O41   S    
C31   O50   S    
C4    C13   S    
C8    C26   S    
C79   O4    A    
C42   O25   A    
Cr7   O17   S    
C89   H72   S    
C56   H37   S    
C44   C76   S    
C24   H63   S    
C17   C78   S    
Cr11  O26   S    
C74   O48   A    
C18   H51   S    
Cr7   O43   S    
C32   O49   S    
C94   H12   S    
C27   C44   S    
C38   H29   S    
C5    C22   S    
C6    H54   S    
C78   C96   S    
Cr1   O36   S    
C23   O16   A    
C45   H36   S    
C80   O5    A    
C76   O53   A    
C33   O52   S    
C35   H21   S    
Cr3   O3    S    
Cr1   O9    S    
C4    H4    S    
C30   H17   S    
H68   O50   S    
C17   C70   S    
C72   O46   A    
C55   C60   S    
Cr11  O48   S    
C43   O26   A    
C67   C95   S    
C18   C89   S    
Cr2   O28   S    
C24   H56   S    
C84   C90   T    
Cr10  O11   S    
Cr12  O27   S    
C76   O2    A    
C35   C48   S    
C18   H5    S    
C46   C75   S    
C27   H14   S    
C78   H43   S    
C14   C45   S    
C54   C59   S    
C27   H9    S    
C37   H28   S    
C31   C44   S    
C13   C96   S    
C70   O34   A    
Cr12  O5    S    
C75   O45   A    
C35   C38   S    
C69   O33   A    
Cr5   O10   S    
C50   C73   S    
C9    C89   S    
C91   C92   S    
C73   O47   A    
Cr6   O38   S    
C69   O23   A    
Cr9   O24   S    
Cr3   O33   S    
C19   H6    S    
C5    H58   S    
C41   C84   S    
Cr2   O32   S    
C74   O43   A    
C95   H23   S    
C33   H20   S    
C17   C21   S    
C49   C58   T    
C31   C37   S    
Cr9   O53   S    
C5    H53   S    
C40   C85   S    
Cr2   O2    S    
C7    C11   S    
Cr6   O23   S    
C5    C9    S    
C29   C30   S    
C93   H31   S    
C83   O39   A    
C53   C62   T    
C25   H67   S    
C82   O38   A    
C30   H13   S    
C62   C80   S    
C16   C20   S    
C6    C24   S    
C55   C64   T    
C67   H38   S    
Cr6   O11   S    
C14   C66   S    
Cr1   O40   S    
C75   O56   A    
C16   C67   S    
Cr9   O46   S    
C41   O24   A    
C57   C61   S    
C29   H16   S    
Cr7   O34   S    
C64   C82   S    
C38   C47   S    
C22   H62   S    
C42   O29   A    
C78   H39   S    
C70   O35   A    
C25   H64   S    
C15   C24   S    
C66   O1    A    
C29   C47   S    
C95   H33   S    
C20   H49   S    
C9    C34   S    
C33   C47   S    
C12   O15   A    
C3    H3    S    
Cr12  O9    S    
C36   C44   S    
C1    C13   S    
C51   C72   S    
C17   C26   S    
C2    C10   S    
C36   H27   S    
C9    C93   S    
C81   O6    A    
Cr11  O13   S    
Cr12  O31   S    
C8    H61   S    
Cr6   O42   S    
Cr10  O20   S    
Cr3   O29   S    
C85   C88   T    
C11   C95   S    
C16   C25   S    
C56   H41   S    
Cr11  O55   S    
C6    H59   S    
C2    H2    S    
C2    H48   S    
C71   O44   A    
Cr10  O54   S    
C2    C19   S    
C49   C74   S    
C43   C86   S    
C32   C46   S    
Cr9   O10   S    
C26   H65   S    
C16   C69   S    
C57   C65   T    
Cr6   O16   S    
C6    C10   S    
C20   H7    S    
C11   C12   S    
Cr1   O1    S    
C81   O37   A    
C51   C60   T    
C10   C23   S    
Cr4   O4    S    
C15   C68   S    
C7    C25   S    
H69   O51   S    
C82   O7    A    
C15   C56   S    
C14   C22   S    
C41   O28   A    
C36   H24   S    
C88   C90   S    
C66   O31   A    
C79   O55   A    
Cr2   O6    S    
C52   C71   S    
C19   H52   S    
C15   C19   S    
C96   H35   S    
Cr3   O11   S    
C4    C21   S    
C3    C20   S    
C48   C77   S    
C7    H55   S    
C72   O41   A    
C23   O20   A    
Cr4   O30   S    
C77   O54   A    
C77   O3    A    
C12   O19   A    
C1    O14   A    
C35   O51   S    
C28   H10   S    
C38   H26   S    
C40   O27   A    
C83   O8    A    
H66   O49   S    
Cr8   O18   S    
C39   H30   S    
C3    C11   S    
C8    H57   S    
C71   O40   A    
C96   H34   S    
Cr5   O37   S    
Cr9   O19   S    
Cr4   O13   S    
Cr7   O39   S    
H70   O52   S    
C93   H1    S    
C27   C28   S    
C89   H47   S    
C10   C94   S    
Cr10  O47   S    
C86   C92   T    
C42   C87   S    
Cr7   O13   S    
C31   H18   S    
C37   C46   S    
C40   O22   A    
Cr8   O9    S    
Cr8   O44   S    
Cr5   O15   S    
Cr8   O22   S    
C39   C48   S    
C67   H42   S    
C22   H45   S    
C68   O32   A    
