data_mof_unit_11404.cif
_audit_creation_date              2012-12-10T18:18:25-0500
_audit_creation_method            fapswitch 2.2
_symmetry_space_group_name_H-M    P1
_symmetry_Int_Tables_number       1
_space_group_crystal_system       triclinic
_cell_length_a                    14.130623
_cell_length_b                    14.925719
_cell_length_c                    15.508637
_cell_angle_alpha                 88.911584
_cell_angle_beta                  66.765781
_cell_angle_gamma                 91.622032
_cell_volume                      3002.82541305

loop_
_atom_site_label
_atom_site_type_symbol
_atom_type_description
_atom_site_fract_x
_atom_site_fract_y
_atom_site_fract_z
_atom_type_partial_charge
C1    C     C_R   0.501773 0.672807 0.498497 0.880766
C2    C     C_R   0.505425 0.768207 0.495322 -0.046450
C3    C     C_R   0.554383 0.190950 0.422594 -0.298712
C4    C     C_R   0.445533 0.809094 0.577677 -0.312152
C5    C     C_R   0.557139 0.098789 0.420293 0.120472
C6    C     C_R   0.442928 0.901291 0.580080 0.125028
C7    C     C_R   0.498412 0.046850 0.501753 0.024923
C8    C     C_R   0.501726 0.953252 0.498661 0.022551
C9    C     C_R   0.436863 0.088388 0.586232 0.113087
C10   C     C_R   0.563418 0.911748 0.414221 0.111070
C11   C     C_R   0.618193 0.058229 0.337435 -0.203540
C12   C     C_R   0.498202 0.327219 0.501604 0.897258
C13   C     C_R   0.381943 0.941881 0.662967 -0.206207
C14   C     C_R   0.621563 0.965661 0.334255 -0.213465
C15   C     C_R   0.378726 0.034483 0.666200 -0.213724
C16   C     C_R   0.435345 0.502136 0.676438 0.918996
C17   C     C_R   0.565000 0.502016 0.323364 0.920992
C18   C     C_R   0.175502 0.436271 0.553804 0.257611
C19   C     C_R   0.824883 0.562947 0.445271 0.281025
C20   C     C_R   0.225453 0.564236 0.449482 -0.103840
C21   C     C_R   0.773176 0.437780 0.553446 -0.098392
C22   C     C_R   0.126043 0.565498 0.448402 0.013078
C23   C     C_R   0.381923 0.470874 0.107414 -0.224702
C24   C     C_R   0.872941 0.435862 0.553706 0.012499
C25   C     C_R   0.050171 0.499926 0.500553 0.061253
C26   C     C_R   0.949278 0.500674 0.500504 0.058245
C27   C     C_R   0.074736 0.434048 0.553306 0.018372
C28   C     C_R   0.925082 0.565979 0.446928 0.015826
C29   C     C_R   0.100957 0.631311 0.396481 -0.200980
C30   C     C_R   0.897995 0.370111 0.605700 -0.203855
C31   C     C_R   0.002311 0.631741 0.395608 -0.193940
C32   C     C_R   0.997278 0.368565 0.605012 -0.196048
C33   C     C_R   0.394511 0.502388 0.779393 -0.252221
C34   C     C_R   0.619237 0.473325 0.893106 -0.229051
C35   C     C_R   0.606732 0.502157 0.220268 -0.258239
C36   C     C_R   0.260539 0.461740 0.932966 0.074803
C37   C     C_R   0.738360 0.462241 0.069638 0.069082
C38   C     C_R   0.293254 0.471724 0.834976 0.566136
C39   C     C_R   0.705459 0.471391 0.167312 0.569240
C40   C     C_R   0.462204 0.526038 0.822318 0.042680
C41   C     C_R   0.542064 0.525842 0.174936 0.059606
C42   C     C_R   0.438453 0.495588 0.914821 0.022810
C43   C     C_R   0.563913 0.495486 0.084433 0.024142
C44   C     C_R   0.334284 0.472541 0.973315 0.027508
C45   C     C_R   0.307557 0.460259 0.070195 -0.187795
C46   C     C_R   0.666263 0.473391 0.027772 0.029406
C47   C     C_R   0.515591 0.488587 0.951009 0.103793
C48   C     C_R   0.486520 0.487951 0.048487 0.103955
C49   C     C_3   0.197253 0.369464 0.617034 -0.763946
C50   C     C_3   0.804055 0.628344 0.380242 -0.808226
C51   C     C_3   0.463226 0.597312 0.214794 -0.845241
C52   C     C_3   0.547025 0.597967 0.776795 -0.811464
C53   C     C_3   0.149162 0.435650 0.992379 -0.829520
C54   C     C_3   0.847632 0.436575 0.012460 -0.834255
C55   C     C_3   0.376349 0.229319 0.679075 -0.915993
C56   C     C_R   0.692562 0.462465 0.931350 -0.186525
C57   C     C_3   0.625062 0.771023 0.321562 -0.951499
C58   C     C_R   0.436018 0.182602 0.588389 0.114571
C59   C     C_R   0.564456 0.817560 0.412067 0.131378
C60   C     C_R   0.494597 0.231860 0.504943 -0.054330
F1    F     F_    0.769511 0.450816 0.210471 -0.662907
F2    F     F_    0.226354 0.452352 0.794116 -0.688147
H1    H     H_    0.229326 0.443060 0.118241 0.166603
H2    H     H_    0.642701 0.462393 0.818983 0.163514
H3    H     H_    0.599218 0.231587 0.360069 0.160716
H4    H     H_    0.400592 0.768425 0.640138 0.147828
H5    H     H_    0.663584 0.098250 0.274843 0.153858
H6    H     H_    0.336510 0.901860 0.725541 0.150032
H7    H     H_    0.670243 0.937372 0.268581 0.164211
H8    H     H_    0.330109 0.062823 0.731872 0.163555
H9    H     H_    0.268240 0.384660 0.625983 0.311041
H10   H     H_    0.136408 0.370464 0.689117 0.239280
H11   H     H_    0.200450 0.301106 0.589241 0.202932
H12   H     H_    0.769672 0.446326 0.884480 0.164375
H13   H     H_    0.732085 0.614255 0.372790 0.293839
H14   H     H_    0.803057 0.697521 0.405593 0.210616
H15   H     H_    0.864302 0.624646 0.308107 0.219883
H16   H     H_    0.450839 0.635159 0.158004 0.237190
H17   H     H_    0.388471 0.567248 0.263758 0.243678
H18   H     H_    0.490869 0.647199 0.252627 0.231893
H19   H     H_    0.565980 0.633981 0.830311 0.233629
H20   H     H_    0.618373 0.569277 0.726120 0.251001
H21   H     H_    0.520749 0.649364 0.739247 0.229694
H22   H     H_    0.101541 0.429804 0.950316 0.285278
H23   H     H_    0.283111 0.615518 0.410979 0.146948
H24   H     H_    0.144330 0.369785 0.028670 0.230533
H25   H     H_    0.115011 0.487324 0.045246 0.232747
H26   H     H_    0.894046 0.430218 0.055496 0.286880
H27   H     H_    0.847096 0.371096 0.979820 0.228354
H28   H     H_    0.886707 0.488759 0.956694 0.233981
H29   H     H_    0.387704 0.303192 0.673300 0.237542
H30   H     H_    0.292614 0.213385 0.701825 0.250166
H31   H     H_    0.402128 0.206535 0.734582 0.238944
H32   H     H_    0.614564 0.697135 0.327404 0.228357
H33   H     H_    0.599483 0.793315 0.265770 0.241693
H34   H     H_    0.714007 0.388809 0.595155 0.147615
H35   H     H_    0.708601 0.787629 0.299218 0.249136
H36   H     H_    0.157836 0.682646 0.356171 0.144712
H37   H     H_    0.840861 0.319223 0.646638 0.142486
H38   H     H_    0.987740 0.684729 0.354499 0.154798
H39   H     H_    0.012008 0.315022 0.645405 0.153041
H40   H     H_    0.357982 0.458220 0.181980 0.169085
N1    N     N_R   0.249980 0.499930 0.499960 -0.099198
N2    N     N_R   0.750020 0.500070 0.500040 -0.098660
O1    O     O_R   0.419720 0.632140 0.499980 -0.617118
O2    O     O_R   0.580280 0.367860 0.500020 -0.605570
O3    O     O_R   0.580270 0.632160 0.499970 -0.629798
O4    O     O_R   0.419730 0.367840 0.500030 -0.628680
O5    O     O_R   0.373870 0.499980 0.632250 -0.576409
O6    O     O_R   0.626130 0.500020 0.367750 -0.570553
O7    O     O_R   0.534420 0.500000 0.632240 -0.618636
O8    O     O_R   0.465580 0.500000 0.367760 -0.610319
Zn1   Zn    Zn3+2 0.392800 0.499980 0.500010 0.955642
Zn2   Zn    Zn3+2 0.607200 0.500020 0.499990 0.960836

loop_
_geom_bond_atom_site_label_1
_geom_bond_atom_site_label_2
_ccdc_geom_bond_type
C12   O2    A    
C50   H15   S    
C34   C56   A    
C23   C45   A    
C22   C29   A    
C2    C4    A    
C55   H31   S    
C17   O6    A    
C7    C8    A    
C20   N1    A    
C29   H36   S    
O2    Zn2   S    
C53   H22   S    
O1    Zn1   S    
N1    Zn1   S    
C24   C26   A    
C5    C11   A    
C11   C14   A    
C57   C59   S    
C23   H40   S    
C58   C60   A    
C22   C25   A    
C9    C58   A    
C51   H18   S    
C55   H29   S    
C36   C53   S    
C21   N2    A    
C49   H10   S    
C53   H24   S    
C43   C48   A    
O6    Zn2   S    
O5    Zn1   S    
C18   N1    A    
C3    C60   A    
C40   C42   A    
C41   C43   A    
C3    H3    S    
C42   C44   A    
O8    Zn1   S    
C11   H5    S    
C16   O5    A    
C24   C30   A    
C39   F1    S    
C33   C40   A    
C56   H12   S    
C16   O7    A    
C54   H27   S    
C4    C6    A    
C10   C14   A    
C5    C7    A    
C2    C59   A    
C6    C8    A    
C25   C26   A    
C40   C52   S    
C30   H37   S    
C45   H1    S    
O4    Zn1   S    
C52   H21   S    
C35   C39   A    
O3    Zn2   S    
C55   H30   S    
C50   H14   S    
C16   C33   S    
C19   N2    A    
C47   C48   A    
C57   H35   S    
C20   H23   S    
C34   H2    S    
C53   H25   S    
C31   H38   S    
C52   H20   S    
C19   C28   A    
C1    O3    A    
N2    Zn2   S    
C37   C54   S    
C8    C10   A    
C20   C22   A    
C57   H32   S    
C13   C15   A    
C57   H33   S    
C14   H7    S    
C49   H11   S    
C36   C44   A    
C21   C24   A    
C17   O8    A    
C44   C45   A    
C12   O4    A    
C7    C9    A    
C15   H8    S    
C23   C48   A    
C27   C32   A    
C28   C31   A    
C18   C27   A    
C3    C5    A    
C54   H28   S    
C21   H34   S    
C25   C27   A    
C26   C28   A    
C33   C38   A    
C54   H26   S    
C36   C38   A    
C10   C59   A    
C9    C15   A    
C51   H16   S    
C29   C31   A    
C50   H13   S    
C6    C13   A    
C30   C32   A    
C19   C50   S    
C1    C2    S    
O7    Zn2   S    
C42   C47   A    
C52   H19   S    
C35   C41   A    
C43   C46   A    
C51   H17   S    
C12   C60   S    
C4    H4    S    
C37   C39   A    
C49   H9    S    
C55   C58   S    
C46   C56   A    
C32   H39   S    
C34   C47   A    
C17   C35   S    
C37   C46   A    
C41   C51   S    
C18   C49   S    
C1    O1    A    
C38   F2    S    
C13   H6    S    
