data_mof_unit_33534.cif
_audit_creation_date              2013-03-05T15:51:14-0500
_audit_creation_method            fapswitch 2.2
_symmetry_space_group_name_H-M    P1
_symmetry_Int_Tables_number       1
_space_group_crystal_system       triclinic
_cell_length_a                    19.149866
_cell_length_b                    11.103636
_cell_length_c                    18.767385
_cell_angle_alpha                 90.104164
_cell_angle_beta                  89.609015
_cell_angle_gamma                 90.388319
_cell_volume                      3990.37720507

loop_
_atom_site_label
_atom_site_type_symbol
_atom_site_description
_atom_site_fract_x
_atom_site_fract_y
_atom_site_fract_z
_atom_type_partial_charge
O1    O     O_R   0.787520 0.042810 0.170440 -0.533179
O2    O     O_R   0.212480 0.042810 0.829560 -0.543261
O3    O     O_R   0.287520 0.542810 0.170440 -0.533179
O4    O     O_R   0.712480 0.542810 0.829560 -0.543262
O5    O     O_R   0.765640 0.292100 0.175020 -0.507533
O6    O     O_R   0.234360 0.292100 0.824980 -0.505488
O7    O     O_R   0.265640 0.792100 0.175020 -0.507533
O8    O     O_R   0.734360 0.792100 0.824980 -0.505480
C1    C     C_R   0.730337 0.376194 0.146200 0.547531
C2    C     C_R   0.288132 0.330539 0.861269 0.565626
C3    C     C_R   0.230337 0.876194 0.146200 0.547531
C4    C     C_R   0.788133 0.830537 0.861266 0.565635
O9    O     O_R   0.670190 0.408840 0.168540 -0.520848
O10   O     O_R   0.329810 0.408840 0.831460 -0.518045
O11   O     O_R   0.170190 0.908840 0.168540 -0.520846
O12   O     O_R   0.829810 0.908840 0.831460 -0.517997
O13   O     O_R   0.556620 0.251410 0.175160 -0.511405
O14   O     O_R   0.443380 0.251410 0.824840 -0.529080
O15   O     O_R   0.056620 0.751410 0.175160 -0.511406
O16   O     O_R   0.943380 0.751410 0.824840 -0.529024
C5    C     C_R   0.531509 0.156178 0.147227 0.535363
C6    C     C_R   0.467138 0.154722 0.853680 0.531732
C7    C     C_R   0.031510 0.656178 0.147227 0.535362
C8    C     C_R   0.967138 0.654722 0.853679 0.531763
O17   O     O_R   0.545960 0.049620 0.170320 -0.526811
O18   O     O_R   0.454040 0.049620 0.829680 -0.519708
O19   O     O_R   0.045960 0.549620 0.170320 -0.526812
O20   O     O_R   0.954040 0.549620 0.829680 -0.519724
O21   O     O_R   0.681390 0.958010 0.176690 -0.492823
O22   O     O_R   0.318610 0.958010 0.823310 -0.492423
O23   O     O_R   0.181390 0.458010 0.176690 -0.492823
O24   O     O_R   0.818610 0.458010 0.823310 -0.492430
C9    C     C_R   0.741980 0.967980 0.148168 0.544146
C10   C     C_R   0.259811 0.975515 0.854421 0.543923
C11   C     C_R   0.241980 0.467979 0.148168 0.544153
C12   C     C_R   0.759811 0.475513 0.854421 0.543932
O25   O     O_R   0.787510 0.044390 0.330970 -0.543126
O26   O     O_R   0.212490 0.044390 0.669030 -0.505471
O27   O     O_R   0.287510 0.544390 0.330970 -0.543111
O28   O     O_R   0.712490 0.544390 0.669030 -0.505617
O29   O     O_R   0.765630 0.293570 0.323840 -0.503546
O30   O     O_R   0.234370 0.293570 0.676160 -0.469544
O31   O     O_R   0.265630 0.793570 0.323840 -0.503540
O32   O     O_R   0.734370 0.793570 0.676160 -0.469680
C13   C     C_R   0.730304 0.381838 0.350691 0.540142
C14   C     C_R   0.270987 0.378943 0.648415 0.558397
C15   C     C_R   0.230307 0.881844 0.350686 0.540128
C16   C     C_R   0.770991 0.878933 0.648412 0.558354
O33   O     O_R   0.670190 0.410420 0.329080 -0.534074
O34   O     O_R   0.329810 0.410420 0.670920 -0.551951
O35   O     O_R   0.170190 0.910420 0.329080 -0.534071
O36   O     O_R   0.829810 0.910420 0.670920 -0.551978
O37   O     O_R   0.556610 0.252880 0.323980 -0.507626
O38   O     O_R   0.443390 0.252880 0.676020 -0.532620
O39   O     O_R   0.056610 0.752880 0.323980 -0.507633
O40   O     O_R   0.943390 0.752880 0.676020 -0.532603
C17   C     C_R   0.530661 0.156005 0.352001 0.536621
C18   C     C_R   0.464708 0.156288 0.645208 0.536764
C19   C     C_R   0.030658 0.656004 0.352000 0.536606
C20   C     C_R   0.964708 0.656288 0.645208 0.536806
O41   O     O_R   0.545950 0.051210 0.330860 -0.531756
O42   O     O_R   0.454050 0.051210 0.669140 -0.526373
O43   O     O_R   0.045950 0.551210 0.330860 -0.531755
O44   O     O_R   0.954050 0.551210 0.669140 -0.526390
O45   O     O_R   0.681390 0.959480 0.325510 -0.500772
O46   O     O_R   0.318610 0.959480 0.674490 -0.489415
O47   O     O_R   0.181390 0.459480 0.325510 -0.500733
O48   O     O_R   0.818610 0.459480 0.674490 -0.489364
C21   C     C_R   0.729801 0.014787 0.361974 0.571663
C22   C     C_R   0.272874 0.024782 0.638963 0.561282
C23   C     C_R   0.229797 0.514807 0.361973 0.571629
C24   C     C_R   0.772874 0.524788 0.638966 0.561224
Cr1   Cr    Cr6+3 0.772010 0.169670 0.250090 0.997309
Cr2   Cr    Cr6+3 0.227990 0.169670 0.749910 1.013202
Cr3   Cr    Cr6+3 0.272010 0.669670 0.250090 0.997316
Cr4   Cr    Cr6+3 0.727990 0.669670 0.749910 1.013179
Cr5   Cr    Cr6+3 0.615000 0.323260 0.249260 0.991642
Cr6   Cr    Cr6+3 0.385000 0.323260 0.750740 0.954509
Cr7   Cr    Cr6+3 0.115000 0.823260 0.249260 0.991634
Cr8   Cr    Cr6+3 0.885000 0.823260 0.750740 0.954573
Cr9   Cr    Cr6+3 0.616710 0.010760 0.250840 1.007053
Cr10  Cr    Cr6+3 0.383290 0.010760 0.749160 1.012975
Cr11  Cr    Cr6+3 0.116710 0.510760 0.250840 1.007057
Cr12  Cr    Cr6+3 0.883290 0.510760 0.749160 1.012951
O49   O     O_3   0.667900 0.167900 0.250060 -0.262557
O50   O     O_3   0.332100 0.167900 0.749940 -0.296452
O51   O     O_3   0.167900 0.667900 0.250060 -0.262576
O52   O     O_3   0.832100 0.667900 0.749940 -0.296459
H1    H     H_    0.471623 0.980727 0.072130 0.137473
H2    H     H_    0.459373 0.973644 0.946458 0.151328
H3    H     H_    0.971620 0.480731 0.072131 0.137472
H4    H     H_    0.959369 0.473646 0.946459 0.151326
C25   C     C_R   0.491381 0.160030 0.927452 -0.003112
C26   C     C_R   0.500293 0.169475 0.076423 -0.003686
C27   C     C_R   0.991382 0.660029 0.927451 -0.003119
C28   C     C_R   0.000295 0.669476 0.076422 -0.003687
C29   C     C_R   0.511375 0.269251 0.960405 0.007720
C30   C     C_R   0.508585 0.277528 0.035711 0.027078
C31   C     C_R   0.011379 0.769249 0.960403 0.007715
C32   C     C_R   0.008590 0.777528 0.035709 0.027076
C33   C     C_R   0.480522 0.063143 0.042453 -0.166056
C34   C     C_R   0.476269 0.058368 0.969549 -0.151311
C35   C     C_R   0.980521 0.563145 0.042453 -0.166056
C36   C     C_R   0.976267 0.558369 0.969549 -0.151314
C37   C     C_R   0.532206 0.371217 0.920389 -0.095943
C38   C     C_R   0.513570 0.393566 0.067017 -0.084872
C39   C     C_R   0.032211 0.871213 0.920385 -0.095932
C40   C     C_R   0.013578 0.893567 0.067013 -0.084871
C41   C     C_R   0.040651 0.982976 0.953026 -0.126801
C42   C     C_R   0.029363 0.994771 0.025885 -0.136401
C43   C     C_R   0.540643 0.482980 0.953031 -0.126801
C44   C     C_R   0.529354 0.494772 0.025890 -0.136395
H5    H     H_    0.542255 0.365449 0.863791 0.125964
H6    H     H_    0.501868 0.409228 0.122595 0.132983
H7    H     H_    0.042257 0.865444 0.863785 0.125949
H8    H     H_    0.001877 0.909232 0.122591 0.132986
H9    H     H_    0.054643 0.061064 0.921433 0.106194
H10   H     H_    0.033302 0.082586 0.050760 0.098847
H11   H     H_    0.554635 0.561069 0.921439 0.106168
H12   H     H_    0.533291 0.582587 0.050766 0.098847
C45   C     C_R   0.778010 0.845196 0.937922 0.014271
C46   C     C_R   0.254024 0.922789 0.078159 0.019296
C47   C     C_R   0.278008 0.345204 0.937923 0.014279
C48   C     C_R   0.754023 0.422787 0.078158 0.019294
C49   C     C_R   0.713257 0.825335 0.970699 0.004934
C50   C     C_R   0.301375 0.858136 0.035659 0.003826
C51   C     C_R   0.213253 0.325344 0.970699 0.004928
C52   C     C_R   0.801373 0.358133 0.035658 0.003826
C53   C     C_R   0.702888 0.852617 0.041895 0.005217
C54   C     C_R   0.303241 0.873880 0.962533 0.009637
C55   C     C_R   0.202885 0.352623 0.041895 0.005215
C56   C     C_R   0.803238 0.373876 0.962531 0.009633
C57   C     C_R   0.824774 0.902919 0.053337 -0.155768
C58   C     C_R   0.215466 0.027207 0.973308 -0.141875
C59   C     C_R   0.324772 0.402919 0.053338 -0.155770
C60   C     C_R   0.715464 0.527201 0.973307 -0.141874
C61   C     C_R   0.835012 0.875798 0.981204 -0.152695
C62   C     C_R   0.216209 0.016112 0.046857 -0.140401
C63   C     C_R   0.335011 0.375800 0.981205 -0.152693
C64   C     C_R   0.716207 0.516107 0.046856 -0.140402
C65   C     C_3   0.642569 0.868863 0.950385 -0.267527
C66   C     C_3   0.312697 0.725384 0.028791 -0.245883
C67   C     C_3   0.142567 0.368883 0.950386 -0.267529
C68   C     C_3   0.812693 0.225381 0.028790 -0.245880
C69   C     C_3   0.631213 0.899427 0.028412 -0.258189
C70   C     C_3   0.315499 0.743303 0.948779 -0.274437
C71   C     C_3   0.131212 0.399442 0.028414 -0.258181
C72   C     C_3   0.815494 0.243298 0.948779 -0.274440
C73   C     C_R   0.757038 0.901063 0.082868 0.010484
C74   C     C_R   0.255451 0.950026 0.929960 0.021670
C75   C     C_R   0.257037 0.401064 0.082869 0.010486
C76   C     C_R   0.755450 0.450021 0.929959 0.021669
H13   H     H_    0.868491 0.936699 0.083825 0.133038
H14   H     H_    0.181750 0.094216 0.950428 0.142288
H15   H     H_    0.368490 0.436696 0.083827 0.133039
H16   H     H_    0.681746 0.594208 0.950426 0.142290
H17   H     H_    0.886368 0.887573 0.958084 0.153528
H18   H     H_    0.181115 0.071630 0.078099 0.139902
H19   H     H_    0.386367 0.387574 0.958085 0.153535
H20   H     H_    0.681113 0.571626 0.078097 0.139903
H21   H     H_    0.108219 0.294533 0.931419 0.127464
H22   H     H_    0.766554 0.171462 0.046213 0.159342
H23   H     H_    0.608223 0.794508 0.931421 0.127462
H24   H     H_    0.266558 0.671463 0.046213 0.159343
H25   H     H_    0.644661 0.949515 0.915347 0.152888
H26   H     H_    0.363432 0.696949 0.051520 0.138737
H27   H     H_    0.144663 0.449538 0.915350 0.152883
H28   H     H_    0.863428 0.196943 0.051519 0.138738
H29   H     H_    0.627174 0.997885 0.038416 0.157841
H30   H     H_    0.368092 0.726693 0.925470 0.141786
H31   H     H_    0.127176 0.497899 0.038421 0.157842
H32   H     H_    0.868086 0.226684 0.925469 0.141779
H33   H     H_    0.590084 0.843141 0.054275 0.134414
H34   H     H_    0.271521 0.698966 0.920260 0.145606
H35   H     H_    0.090081 0.343157 0.054276 0.134416
H36   H     H_    0.771515 0.198963 0.920261 0.145605
C77   C     C_R   0.487355 0.163061 0.571909 0.007016
C78   C     C_R   0.502641 0.156670 0.423577 0.021243
C79   C     C_R   0.987354 0.663058 0.571909 0.007010
C80   C     C_R   0.002629 0.656667 0.423573 0.021236
C81   C     C_R   0.517354 0.063286 0.539283 0.001355
C82   C     C_R   0.522009 0.060099 0.466162 0.015364
C83   C     C_R   0.017350 0.563283 0.539280 0.001380
C84   C     C_R   0.021992 0.560095 0.466159 0.015364
C85   C     C_R   0.469638 0.254324 0.454975 -0.186368
C86   C     C_R   0.459267 0.253188 0.528620 -0.196275
C87   C     C_R   0.969640 0.754332 0.454976 -0.186336
C88   C     C_R   0.959273 0.753195 0.528622 -0.196286
C89   C     C_3   0.491641 0.935069 0.541408 -0.250059
C90   C     C_3   0.494237 0.935135 0.461317 -0.263811
C91   C     C_3   0.991653 0.435057 0.541410 -0.250103
C92   C     C_3   0.994237 0.435119 0.461318 -0.263854
H37   H     H_    0.451625 0.328508 0.423239 0.120310
H38   H     H_    0.425876 0.317189 0.552764 0.148911
H39   H     H_    0.951635 0.828528 0.423242 0.120310
H40   H     H_    0.925894 0.817208 0.552770 0.148858
H41   H     H_    0.937998 0.424833 0.563009 0.210128
H42   H     H_    0.032052 0.371473 0.438240 0.152885
H43   H     H_    0.437981 0.924861 0.562998 0.210099
H44   H     H_    0.532043 0.871471 0.438244 0.152866
H45   H     H_    0.529718 0.872732 0.565582 0.163119
H46   H     H_    0.442506 0.930899 0.435623 0.176533
H47   H     H_    0.029740 0.372726 0.565577 0.162848
H48   H     H_    0.942501 0.430850 0.435636 0.176474
C93   C     C_R   0.757932 0.918229 0.577196 0.055222
C94   C     C_R   0.245070 0.924447 0.422061 0.099221
C95   C     C_R   0.257923 0.418267 0.577204 0.055349
C96   C     C_R   0.745067 0.424444 0.422067 0.099170
C97   C     C_R   0.816013 0.939963 0.532914 -0.036446
C98   C     C_R   0.194933 0.899466 0.474673 0.070321
C99   C     C_R   0.316004 0.439986 0.532919 -0.036425
C100  C     C_R   0.694927 0.399485 0.474681 0.070359
C101  C     C_R   0.804969 0.977567 0.464438 0.015755
C102  C     C_R   0.202709 0.942403 0.543099 0.095385
C103  C     C_R   0.304963 0.477590 0.464442 0.015737
C104  C     C_R   0.702704 0.442417 0.543106 0.095399
C105  C     C_R   0.682199 0.944554 0.476897 -0.074281
C106  C     C_R   0.314122 0.029047 0.511386 -0.093495
C107  C     C_R   0.182190 0.444637 0.476909 -0.074326
C108  C     C_R   0.814129 0.529023 0.511392 -0.093501
C109  C     C_R   0.690731 0.923895 0.549442 -0.042232
C110  C     C_R   0.303629 0.994914 0.439738 -0.074935
C111  C     C_R   0.190721 0.423983 0.549455 -0.042218
C112  C     C_R   0.803639 0.494875 0.439747 -0.075015
C113  C     C_3   0.872718 0.033022 0.544225 -0.196578
C114  C     C_3   0.119980 0.931313 0.473575 -0.267481
C115  C     C_3   0.372715 0.533032 0.544234 -0.196483
C116  C     C_3   0.619972 0.431311 0.473592 -0.267538
C117  C     C_3   0.853500 0.083068 0.472366 0.207933
C118  C     C_3   0.130792 0.997666 0.543881 0.176695
C119  C     C_3   0.353506 0.583073 0.472371 0.207893
C120  C     C_3   0.630770 0.497632 0.543914 0.176730
C121  C     C_R   0.739159 0.974196 0.434099 0.051830
C122  C     C_R   0.264855 0.996385 0.563970 0.083320
C123  C     C_R   0.239150 0.474249 0.434107 0.051814
C124  C     C_R   0.764850 0.496400 0.563974 0.083281
H49   H     H_    0.631916 0.944044 0.454112 0.135481
H50   H     H_    0.359672 0.080623 0.525589 0.103147
H51   H     H_    0.131909 0.444134 0.454123 0.135471
H52   H     H_    0.859686 0.580581 0.525596 0.103165
H53   H     H_    0.645735 0.914564 0.583905 0.152358
H54   H     H_    0.340799 0.021683 0.398974 0.091869
H55   H     H_    0.145724 0.414647 0.583918 0.152213
H56   H     H_    0.840815 0.521621 0.398983 0.091860
H57   H     H_    0.926756 0.000829 0.546281 0.071472
H58   H     H_    0.088781 0.847811 0.477602 0.123911
H59   H     H_    0.426747 0.500821 0.546301 0.071546
H60   H     H_    0.588779 0.347799 0.477600 0.123950
H61   H     H_    0.861073 0.093930 0.589953 0.189891
H62   H     H_    0.106602 0.988565 0.427826 0.185281
H63   H     H_    0.361071 0.593948 0.589958 0.189881
H64   H     H_    0.606602 0.488584 0.427849 0.185209
N1    N     N_R   0.817615 0.196159 0.484589 0.069689
O53   O     O_R   0.857247 0.288187 0.497962 -0.430064
O54   O     O_R   0.755860 0.193232 0.513970 -0.399667
N2    N     N_R   0.135505 0.129211 0.532528 0.062446
O55   O     O_R   0.132767 0.201969 0.586383 -0.396812
O56   O     O_R   0.163863 0.170605 0.474190 -0.407878
N3    N     N_R   0.317630 0.696174 0.484584 0.069680
O57   O     O_R   0.357277 0.788231 0.497846 -0.430110
O58   O     O_R   0.255914 0.693277 0.514060 -0.399677
N4    N     N_R   0.635434 0.629186 0.532570 0.062607
O59   O     O_R   0.632417 0.701996 0.586386 -0.397166
O60   O     O_R   0.663913 0.670619 0.474302 -0.407870
C125  C     C_3   0.907352 0.089850 0.410664 -0.220639
C126  C     C_3   0.980700 0.125155 0.432629 -0.313824
C127  C     C_3   0.024088 0.157773 0.366389 -0.442929
H65   H     H_    0.999268 0.232342 0.336610 0.139486
H66   H     H_    0.076978 0.188228 0.381435 0.208210
H67   H     H_    0.028945 0.078282 0.330690 0.150451
H68   H     H_    0.979297 0.200432 0.470948 0.211936
H69   H     H_    0.003795 0.048183 0.460419 0.153195
H70   H     H_    0.910142 0.003020 0.381357 0.128984
H71   H     H_    0.888610 0.158155 0.372101 0.196795
C128  C     C_3   0.080805 0.953499 0.605589 -0.214378
C129  C     C_3   0.052027 0.049123 0.658137 -0.274418
C130  C     C_3   0.002622 0.995698 0.713433 -0.432591
H72   H     H_    0.952671 0.972992 0.687572 0.208478
H73   H     H_    0.025826 0.914829 0.738336 0.168429
H74   H     H_    0.991789 0.063249 0.755779 0.114002
H75   H     H_    0.094422 0.093050 0.688471 0.235726
H76   H     H_    0.022512 0.118471 0.628303 0.178245
H77   H     H_    0.034507 0.913020 0.581063 0.119256
H78   H     H_    0.106633 0.880891 0.636266 0.151445
C131  C     C_3   0.407367 0.589833 0.410676 -0.220618
C132  C     C_3   0.480711 0.625142 0.432657 -0.313755
C133  C     C_3   0.524121 0.657755 0.366432 -0.442973
H79   H     H_    0.499315 0.732330 0.336647 0.139509
H80   H     H_    0.577010 0.688194 0.381502 0.208170
H81   H     H_    0.528983 0.578266 0.330733 0.150467
H82   H     H_    0.479301 0.700424 0.470972 0.212051
H83   H     H_    0.503796 0.548176 0.460458 0.153195
H84   H     H_    0.410160 0.502996 0.381377 0.128944
H85   H     H_    0.388634 0.658126 0.372101 0.196817
C134  C     C_3   0.580785 0.453357 0.605601 -0.214261
C135  C     C_3   0.552105 0.548785 0.658335 -0.274183
C136  C     C_3   0.502944 0.495108 0.713777 -0.432449
H86   H     H_    0.452759 0.473024 0.688215 0.208398
H87   H     H_    0.526118 0.413835 0.738213 0.168661
H88   H     H_    0.492570 0.562244 0.756449 0.113676
H89   H     H_    0.594549 0.592788 0.688547 0.235920
H90   H     H_    0.522429 0.618129 0.628670 0.178118
H91   H     H_    0.534430 0.413131 0.581048 0.119279
H92   H     H_    0.606573 0.380530 0.636126 0.151254

loop_
_geom_bond_atom_site_label_1
_geom_bond_atom_site_label_2
_geom_bond_distance
_ccdc_geom_bond_type
O4    C12   1.270356 A    
C57   C61   1.399099 A    
O39   C19   1.292988 A    
C118  C128  1.574344 S    
C54   C70   1.492075 S    
C136  H87   1.109650 S    
C66   C70   1.515623 S    
C55   C75   1.399214 A    
C60   C64   1.386209 A    
C42   H10   1.082692 S    
Cr7   O51   2.006560 S    
C110  H54   1.082050 S    
C59   C63   1.399101 A    
C132  H82   1.101986 S    
O25   C21   1.286422 A    
C17   C78   1.443108 S    
C27   C31   1.412104 A    
O21   C9    1.278704 A    
C107  H51   1.056216 S    
C1    O9    1.277645 A    
O44   Cr12  2.063880 S    
C3    O11   1.277647 A    
C4    O12   1.300814 A    
C111  H55   1.078425 S    
C133  H80   1.104053 S    
C92   H42   1.101338 S    
C53   C69   1.494316 S    
C65   C69   1.517115 S    
C29   C37   1.413455 A    
O2    C10   1.270357 A    
C63   H19   1.079440 S    
O17   Cr9   2.084134 S    
C135  H89   1.104889 S    
C91   H47   1.108678 S    
C101  C121  1.386694 A    
C60   C76   1.407270 A    
C105  C109  1.391980 A    
O16   Cr8   1.964083 S    
C41   H9    1.082444 S    
C91   C92   1.503598 S    
C105  C121  1.388297 A    
C44   H12   1.082690 S    
C50   C54   1.383986 A    
C79   C88   1.402516 A    
C119  N3    1.452632 S    
O13   C5    1.272293 A    
C77   C86   1.402514 A    
O28   Cr4   2.078479 S    
O12   Cr8   2.073991 S    
O22   Cr10  1.945095 S    
O15   C7    1.272289 A    
C83   C84   1.374957 A    
C80   C87   1.387194 A    
O46   Cr10  1.957911 S    
O48   C24   1.325053 A    
C92   H48   1.105409 S    
C57   C73   1.407124 A    
C51   C67   1.492631 S    
C52   C68   1.496536 S    
C78   C82   1.392365 A    
C135  C136  1.518366 S    
C56   C76   1.395009 A    
C106  H50   1.075048 S    
C101  C117  1.498212 S    
C115  H63   1.113960 S    
H1    C33   1.084024 S    
C12   C76   1.447884 S    
Cr12  O52   2.007107 S    
H3    C35   1.084025 S    
N3    O58   1.301716 A    
N4    O60   1.302003 A    
C17   O41   1.264305 A    
C19   O43   1.264307 A    
C30   C38   1.418003 A    
C20   O44   1.265742 A    
Cr8   O52   1.994673 S    
C9    C73   1.460084 S    
O46   C22   1.325040 A    
C129  H76   1.112498 S    
C70   H34   1.112506 S    
C51   C55   1.382845 A    
H4    C36   1.083417 S    
C49   C53   1.382842 A    
C16   O36   1.253003 A    
O29   C13   1.294097 A    
C108  H52   1.075053 S    
C82   C90   1.485465 S    
C53   C73   1.399211 A    
O31   C15   1.294085 A    
C67   H21   1.111607 S    
C80   C84   1.392366 A    
C115  C119  1.508402 S    
C95   C111  1.393476 A    
C43   C44   1.388976 A    
C29   C30   1.416785 A    
C109  H53   1.078405 S    
C20   C79   1.441495 S    
C45   C49   1.396797 A    
C72   H36   1.112502 S    
C120  N4    1.478551 S    
O24   C12   1.280673 A    
C37   H5    1.080064 S    
C19   C80   1.443132 S    
C126  H68   1.101997 S    
N1    O53   1.293939 A    
C127  H67   1.111157 S    
O45   C21   1.305497 A    
C47   C63   1.404597 A    
O8    Cr4   1.959834 S    
C43   H11   1.082444 S    
C45   C61   1.404600 A    
O32   Cr4   1.955925 S    
C21   C121  1.440170 S    
H2    C34   1.083418 S    
O11   Cr7   2.069948 S    
C4    C45   1.459270 S    
C49   C65   1.492625 S    
N2    O56   1.301999 A    
C54   C74   1.395013 A    
C55   C71   1.494323 S    
O27   Cr3   2.084855 S    
O3    Cr3   2.073365 S    
C89   H43   1.107184 S    
Cr5   O49   2.006560 S    
C130  H72   1.103069 S    
C95   C99   1.403722 A    
C98   C114  1.480868 S    
C37   C43   1.391863 A    
C32   C40   1.418003 A    
O22   C10   1.280672 A    
C107  C123  1.388275 A    
C94   C98   1.399331 A    
C2    O10   1.300828 A    
C117  C125  1.546948 S    
C90   H46   1.105415 S    
C114  C118  1.524714 S    
C16   C93   1.430868 S    
O5    C1    1.279394 A    
C66   H26   1.111720 S    
C62   H18   1.083689 S    
C47   C51   1.396801 A    
O3    C11   1.272592 A    
O8    C4    1.307224 A    
C67   H27   1.112338 S    
Cr1   O49   1.993660 S    
C125  H70   1.110543 S    
C13   C96   1.448859 S    
C6    O18   1.274123 A    
C3    C46   1.447521 S    
C25   C29   1.412108 A    
C134  H91   1.095122 S    
O26   Cr2   2.078479 S    
Cr3   O51   1.993660 S    
C5    O17   1.293161 A    
O27   C23   1.286433 A    
O28   C24   1.302662 A    
O14   C6    1.290204 A    
C86   H38   1.058417 S    
C8    O20   1.274118 A    
C127  H65   1.111058 S    
N4    O59   1.293782 A    
C116  H60   1.102034 S    
C96   C112  1.404281 A    
C65   H25   1.112333 S    
O40   Cr8   1.952918 S    
C132  H83   1.099039 S    
C130  H73   1.109925 S    
O41   Cr9   2.066687 S    
C64   H20   1.083687 S    
C120  C134  1.574412 S    
C94   C110  1.404297 A    
C77   C81   1.390559 A    
C28   C32   1.430934 A    
C6    C25   1.464226 S    
C40   C42   1.394744 A    
O5    Cr1   1.964528 S    
O35   Cr7   2.073678 S    
O29   Cr1   1.953549 S    
O32   C16   1.284208 A    
C129  C130  1.518287 S    
C130  H74   1.111263 S    
O38   Cr6   1.952918 S    
Cr9   O49   1.995569 S    
C18   O42   1.265746 A    
Cr11  O51   1.995569 S    
O26   C22   1.302686 A    
C33   C34   1.372118 A    
C105  H49   1.056237 S    
O20   Cr12  2.079188 S    
C128  C129  1.549305 S    
C10   C74   1.447884 S    
C90   H44   1.101321 S    
C81   C82   1.374978 A    
O47   Cr11  1.964265 S    
C97   C113  1.509663 S    
C118  N2    1.478532 S    
C66   H24   1.111585 S    
C71   H35   1.111645 S    
C26   C30   1.430930 A    
O30   C14   1.284227 A    
C81   C89   1.503765 S    
C131  H85   1.112227 S    
C84   C92   1.485465 S    
O6    Cr2   1.959834 S    
C48   C52   1.403793 A    
C87   H39   1.077370 S    
O42   Cr10  2.063880 S    
O18   Cr10  2.079188 S    
O31   Cr3   1.953549 S    
C39   C41   1.391866 A    
C102  C122  1.387378 A    
C11   C75   1.460067 S    
O34   Cr6   2.082885 S    
C114  H58   1.102024 S    
O24   Cr12  1.945095 S    
C69   H29   1.112024 S    
O30   Cr2   1.955925 S    
O1    C9    1.272595 A    
O48   Cr12  1.957911 S    
C46   C62   1.400514 A    
C2    C47   1.459255 S    
C8    C27   1.464220 S    
C134  C135  1.549357 S    
O37   C17   1.292976 A    
C15   O35   1.265790 A    
Cr10  O50   2.007107 S    
C50   C66   1.496540 S    
C113  C117  1.508397 S    
O40   C20   1.285226 A    
O43   Cr11  2.066687 S    
C67   C71   1.517124 S    
O21   Cr9   1.948624 S    
C131  C132  1.515402 S    
O39   Cr7   1.948889 S    
O45   Cr9   1.964265 S    
C133  H79   1.111056 S    
C13   O33   1.265784 A    
O13   Cr5   1.955856 S    
C133  H81   1.111150 S    
O15   Cr7   1.955856 S    
C68   H28   1.111719 S    
C104  C124  1.387387 A    
C103  C119  1.498195 S    
C102  C118  1.511485 S    
C116  C120  1.524781 S    
C114  H62   1.101887 S    
C135  H90   1.112451 S    
C15   C94   1.448823 S    
C48   C64   1.400508 A    
C25   C34   1.406362 A    
O6    C2    1.307243 A    
C61   H17   1.079437 S    
C31   C39   1.413461 A    
O1    Cr1   2.073365 S    
C40   H8    1.079395 S    
O19   Cr11  2.084134 S    
C87   C88   1.395052 A    
C126  H69   1.099061 S    
C41   C42   1.388978 A    
C127  H66   1.104021 S    
C85   C86   1.395040 A    
C58   H14   1.079973 S    
C59   C75   1.407121 A    
O47   C23   1.305534 A    
C89   C90   1.503574 S    
C97   C101  1.370194 A    
C107  C111  1.391984 A    
C100  C116  1.480851 S    
C24   C124  1.450657 S    
C129  H75   1.105012 S    
C28   C35   1.392214 A    
C35   C36   1.372117 A    
C119  C131  1.546968 S    
O36   Cr8   2.082885 S    
C116  H64   1.101888 S    
C99   C103  1.370215 A    
C136  H86   1.102968 S    
O37   Cr5   1.948889 S    
C68   C72   1.515621 S    
O23   Cr11  1.948624 S    
C38   C44   1.394743 A    
O7    C3    1.279394 A    
C38   H6    1.079394 S    
C57   H13   1.081874 S    
C132  C133  1.533083 S    
C60   H16   1.079970 S    
C5    C26   1.468886 S    
C58   C74   1.407273 A    
C1    C48   1.447522 S    
C59   H15   1.081874 S    
C7    C28   1.468888 S    
C22   C122  1.450709 S    
C72   H32   1.111726 S    
C78   C85   1.387186 A    
C100  C104  1.377641 A    
C26   C33   1.392216 A    
O33   Cr5   2.073678 S    
C7    O19   1.293164 A    
C125  C126  1.515380 S    
Cr4   O52   1.993925 S    
O2    Cr2   2.074322 S    
C96   C100  1.399350 A    
Cr6   O50   1.994673 S    
C99   C115  1.509648 S    
C52   C56   1.383987 A    
C71   H31   1.112028 S    
C106  C110  1.411682 A    
C79   C83   1.390559 A    
C113  H57   1.098048 S    
C14   C95   1.430909 S    
O9    Cr5   2.069948 S    
C56   C72   1.492071 S    
O16   C8    1.290205 A    
C103  C123  1.386703 A    
C106  C122  1.406949 A    
N1    O54   1.301662 A    
C112  H56   1.082046 S    
O7    Cr3   1.964528 S    
C89   H45   1.108659 S    
C98   C102  1.377680 A    
C115  H59   1.098025 S    
C46   C50   1.403793 A    
C31   C32   1.416787 A    
C93   C97   1.403734 A    
N2    O55   1.293779 A    
Cr2   O50   1.993925 S    
C128  H78   1.112230 S    
C39   H7    1.080083 S    
O14   Cr6   1.964083 S    
C69   H33   1.111645 S    
C65   H23   1.111606 S    
C23   C123  1.440197 S    
C70   H30   1.111728 S    
C136  H88   1.110943 S    
N3    O57   1.293968 A    
C108  C112  1.411680 A    
C128  H77   1.095165 S    
C27   C36   1.406363 A    
O38   C18   1.285220 A    
O25   Cr1   2.084855 S    
C113  H61   1.113963 S    
C68   H22   1.111585 S    
C108  C124  1.406956 A    
C91   H41   1.107176 S    
C85   H37   1.077350 S    
C83   C91   1.503776 S    
C58   C62   1.386212 A    
C117  N1    1.452650 S    
C14   O34   1.253012 A    
C93   C109  1.393462 A    
C104  C120  1.511555 S    
C18   C77   1.441490 S    
O23   C11   1.278697 A    
O10   Cr6   2.073991 S    
O4    Cr4   2.074322 S    
C126  C127  1.533104 S    
C125  H71   1.112227 S    
C88   H40   1.058405 S    
C131  H84   1.110531 S    
C134  H92   1.112167 S    
