data_mof_unit_35602.cif
_audit_creation_date              2012-12-11T14:28:27-0500
_audit_creation_method            fapswitch 2.2
_symmetry_space_group_name_H-M    P1
_symmetry_Int_Tables_number       1
_space_group_crystal_system       triclinic
_cell_length_a                    11.07551
_cell_length_b                    19.254708
_cell_length_c                    18.663903
_cell_angle_alpha                 89.907537
_cell_angle_beta                  89.677442
_cell_angle_gamma                 89.917348
_cell_volume                      3980.11155942

loop_
_atom_site_label
_atom_site_type_symbol
_atom_type_description
_atom_site_fract_x
_atom_site_fract_y
_atom_site_fract_z
_atom_type_partial_charge
C1    C     C_R   0.321537 0.970275 0.647383 0.530083
C2    C     C_3   0.192301 0.744960 0.038675 -0.133002
C3    C     C_3   0.019732 0.198667 0.977408 -0.123932
C4    C     C_3   0.560898 0.311953 0.472468 -0.118154
C5    C     C_3   0.577389 0.313009 0.030856 -0.134971
C6    C     C_3   0.488039 0.711940 0.516918 -0.122224
C7    C     C_3   0.580365 0.687209 0.968458 -0.133382
C8    C     C_3   0.178222 0.790107 0.510943 -0.113281
C9    C     C_3   0.150532 0.805465 0.991242 -0.134757
C10   C     C_3   0.108256 0.187505 0.482756 -0.115033
C11   C     C_3   0.148145 0.195115 0.009068 -0.134197
C12   C     C_3   0.678192 0.290137 0.510938 -0.113180
C13   C     C_3   0.181255 0.232500 0.535395 -0.147789
C14   C     C_3   0.689791 0.285157 0.990744 -0.123800
C15   C     C_3   0.608275 0.687507 0.482759 -0.114988
C16   C     C_3   0.691062 0.716370 0.008508 -0.126487
C17   C     C_3   0.101285 0.752825 0.568101 0.055892
C18   C     C_3   0.110361 0.753071 0.934185 0.053417
C19   C     C_3   0.101270 0.249096 0.431254 0.059958
C20   C     C_3   0.108525 0.247724 0.066360 0.051044
C21   C     C_3   0.601299 0.252826 0.568099 0.056139
C22   C     C_3   0.606059 0.254863 0.933358 0.044923
C23   C     C_3   0.601272 0.749095 0.431253 0.060124
C24   C     C_3   0.189733 0.255377 0.961148 -0.129581
C25   C     C_3   0.605540 0.745259 0.066507 0.042201
C26   C     C_3   0.984902 0.775268 0.531160 -0.134963
C27   C     C_3   0.983765 0.749268 0.965701 -0.153510
C28   C     C_3   0.982469 0.273337 0.463786 -0.158328
C29   C     C_3   0.981690 0.251807 0.035946 -0.153567
C30   C     C_3   0.484885 0.275235 0.531168 -0.135061
C31   C     C_3   0.494749 0.283063 0.971643 -0.143790
C32   C     C_3   0.482463 0.773325 0.463782 -0.158401
C33   C     C_3   0.495902 0.715617 0.028101 -0.140480
C34   C     C_3   0.989613 0.706797 0.487793 -0.110194
C35   C     C_3   0.683131 0.221710 0.467834 -0.125629
C36   C     C_3   0.026675 0.688522 0.013143 -0.105514
C37   C     C_3   0.054797 0.318168 0.516394 -0.108233
C38   C     C_3   0.024389 0.312277 0.987818 -0.106160
C39   C     C_3   0.489650 0.206767 0.487797 -0.110126
C40   C     C_3   0.485965 0.213575 0.012454 -0.099939
C41   C     C_3   0.554775 0.818167 0.516389 -0.108112
C42   C     C_3   0.484397 0.785142 0.987688 -0.100400
C43   C     C_3   0.106801 0.684842 0.525752 -0.106413
C44   C     C_3   0.154185 0.692418 0.980755 -0.091042
C45   C     C_3   0.175068 0.294188 0.482898 -0.099260
C46   C     C_3   0.680864 0.215515 0.031355 -0.108734
C47   C     C_3   0.151969 0.308115 0.019243 -0.089691
C48   C     C_3   0.606870 0.184846 0.525744 -0.106421
C49   C     C_3   0.598100 0.186015 0.973133 -0.099746
C50   C     C_3   0.675054 0.794198 0.482896 -0.099219
C51   C     C_3   0.594746 0.814138 0.026952 -0.099610
C52   C     C_3   0.681258 0.732513 0.535397 -0.147894
C53   C     C_3   0.679401 0.786026 0.968221 -0.107372
C54   C     C_3   0.067017 0.743728 0.430572 0.058537
C55   C     C_3   0.065952 0.741604 0.069781 0.064896
C56   C     C_3   0.062601 0.256736 0.568320 0.055818
C57   C     C_R   0.317580 0.964091 0.855026 0.538746
C58   C     C_3   0.063231 0.258901 0.930956 0.064142
C59   C     C_3   0.567010 0.243727 0.430573 0.058832
C60   C     C_3   0.569640 0.243630 0.070090 0.062152
C61   C     C_3   0.562596 0.756739 0.568319 0.056154
C62   C     C_3   0.569792 0.756483 0.929676 0.061713
C63   C     C_R   0.320504 0.001762 0.428084 -0.034278
C64   C     C_R   0.316286 0.014599 0.071630 -0.013938
C65   C     C_R   0.333594 0.008528 0.578690 -0.035610
C66   C     C_R   0.315568 0.987569 0.927362 -0.012442
C67   C     C_R   0.820506 0.501759 0.428083 -0.034506
C68   C     C_R   0.318621 0.031879 0.354674 0.527554
C69   C     C_R   0.820005 0.517409 0.070546 -0.015045
C70   C     C_R   0.833595 0.508526 0.578689 -0.035606
C71   C     C_R   0.818884 0.488280 0.926909 -0.013554
C72   C     C_R   0.535025 0.972022 0.422976 -0.090381
C73   C     C_R   0.534338 0.986820 0.070832 -0.107881
C74   C     C_R   0.556388 0.000260 0.568910 -0.111927
C75   C     C_R   0.532891 0.015982 0.925183 -0.107060
C76   C     C_R   0.035027 0.472019 0.422976 -0.090141
C77   C     C_R   0.036752 0.485607 0.070275 -0.101925
C78   C     C_R   0.056389 0.500259 0.568909 -0.111892
C79   C     C_R   0.317972 0.036454 0.144589 0.540467
C80   C     C_R   0.036992 0.517711 0.924618 -0.097288
C81   C     C_R   0.645620 0.964688 0.456436 -0.109179
C82   C     C_R   0.641395 0.989021 0.032460 -0.089348
C83   C     C_R   0.657353 0.980630 0.528803 -0.108317
C84   C     C_R   0.640934 0.011158 0.961435 -0.090380
C85   C     C_R   0.145621 0.464686 0.456436 -0.108970
C86   C     C_R   0.144133 0.488603 0.032354 -0.107321
C87   C     C_R   0.157356 0.480631 0.528802 -0.108403
C88   C     C_R   0.144877 0.511378 0.961100 -0.107932
C89   C     C_R   0.440808 0.001600 0.537322 -0.008614
C90   C     C_R   0.821537 0.470274 0.647383 0.529889
C91   C     C_R   0.424189 0.002807 0.961647 -0.005918
C92   C     C_R   0.432296 0.992933 0.462177 0.001539
C93   C     C_R   0.424906 0.000572 0.035963 -0.006922
C94   C     C_R   0.940809 0.501597 0.537321 -0.008671
C95   C     C_R   0.928051 0.504223 0.960834 -0.016278
C96   C     C_R   0.932298 0.492930 0.462176 0.001309
C97   C     C_R   0.928425 0.501384 0.035342 -0.018825
C98   C     C_R   0.224615 0.023231 0.543883 -0.022359
C99   C     C_R   0.204708 0.985732 0.967012 -0.030682
C100  C     C_R   0.213792 0.007032 0.471065 -0.028579
C101  C     C_R   0.818235 0.464304 0.854884 0.536093
C102  C     C_R   0.204776 0.015957 0.033048 -0.030478
C103  C     C_R   0.724617 0.523228 0.543881 -0.022323
C104  C     C_R   0.709666 0.486676 0.967382 -0.030387
C105  C     C_R   0.713794 0.507027 0.471063 -0.028711
C106  C     C_R   0.710991 0.521121 0.030859 -0.032716
C107  C     C_R   0.122493 0.046487 0.582713 -0.096707
C108  C     C_R   0.093109 0.956183 0.944593 -0.106743
C109  C     C_R   0.095880 0.000585 0.443103 -0.106599
C110  C     C_R   0.092579 0.044702 0.056662 -0.106239
C111  C     C_R   0.622496 0.546486 0.582711 -0.096619
C112  C     C_R   0.818622 0.531879 0.354673 0.527654
C113  C     C_R   0.599210 0.454336 0.948483 -0.101963
C114  C     C_R   0.595883 0.500580 0.443102 -0.106614
C115  C     C_R   0.601507 0.552348 0.053049 -0.097184
C116  C     C_R   0.007598 0.044019 0.553109 0.128937
C117  C     C_R   0.983975 0.975713 0.974019 0.129204
C118  C     C_R   0.994680 0.023760 0.481634 0.134941
C119  C     C_R   0.983588 0.024628 0.028195 0.128771
C120  C     C_R   0.507600 0.544019 0.553105 0.128849
C121  C     C_R   0.490438 0.475515 0.978802 0.123215
C122  C     C_R   0.494683 0.523758 0.481632 0.134721
C123  C     C_R   0.818653 0.537228 0.144137 0.537996
C124  C     C_R   0.491264 0.528160 0.029442 0.132364
C125  C     C_R   0.135433 0.758359 0.643141 0.545461
C126  C     C_R   0.141412 0.759665 0.858829 0.544315
C127  C     C_R   0.134730 0.242160 0.356417 0.543830
C128  C     C_R   0.140888 0.240614 0.141440 0.542956
C129  C     C_R   0.635441 0.258360 0.643138 0.544461
C130  C     C_R   0.637041 0.258966 0.857607 0.536066
C131  C     C_R   0.634732 0.742160 0.356417 0.543170
C132  C     C_R   0.637231 0.741055 0.142321 0.534754
C133  C     C_R   0.538953 0.770552 0.643609 0.542377
C134  C     C_3   0.183107 0.721678 0.467844 -0.125589
C135  C     C_R   0.541840 0.769760 0.855106 0.541761
C136  C     C_R   0.541170 0.230162 0.355523 0.542378
C137  C     C_R   0.541985 0.230229 0.144794 0.540791
C138  C     C_R   0.038957 0.270550 0.643610 0.543575
C139  C     C_R   0.037107 0.271567 0.856639 0.548413
C140  C     C_R   0.041175 0.730164 0.355522 0.543214
C141  C     C_R   0.038600 0.728821 0.143855 0.546083
C142  C     C_3   0.060960 0.811957 0.472462 -0.118162
C143  C     C_3   0.022395 0.802084 0.024011 -0.124134
C144  C     C_3   0.988028 0.211947 0.516918 -0.122315
Cr1   Cr    Cr6+3 0.488160 0.884660 0.750000 0.998532
Cr2   Cr    Cr6+3 0.333410 0.272740 0.250000 1.009129
Cr3   Cr    Cr6+3 0.833410 0.227260 0.750000 1.000581
Cr4   Cr    Cr6+3 0.833410 0.772740 0.250000 1.005334
Cr5   Cr    Cr6+3 0.488160 0.115340 0.250000 1.009553
Cr6   Cr    Cr6+3 0.988160 0.384660 0.750000 0.998749
Cr7   Cr    Cr6+3 0.988160 0.615340 0.250000 1.011611
Cr8   Cr    Cr6+3 0.173480 0.883120 0.750000 0.996442
Cr9   Cr    Cr6+3 0.173480 0.116880 0.250000 0.989153
Cr10  Cr    Cr6+3 0.673480 0.383120 0.750000 0.999191
Cr11  Cr    Cr6+3 0.673480 0.616880 0.250000 0.993193
Cr12  Cr    Cr6+3 0.333410 0.727260 0.750000 1.001545
H1    H     H_    0.254859 0.825214 0.523094 0.119584
H2    H     H_    0.970225 0.845465 0.047954 0.141967
H3    H     H_    0.908531 0.180417 0.531604 0.147622
H4    H     H_    0.966773 0.155190 0.954774 0.142338
H5    H     H_    0.540955 0.363122 0.448217 0.119166
H6    H     H_    0.569427 0.363130 0.059645 0.132943
H7    H     H_    0.408546 0.680404 0.531600 0.147623
H8    H     H_    0.574414 0.637136 0.939429 0.130242
H9    H     H_    0.907477 0.798853 0.560096 0.113191
H10   H     H_    0.905390 0.747914 0.929525 0.100976
H11   H     H_    0.905389 0.291969 0.431325 0.100654
H12   H     H_    0.210595 0.850112 0.982599 0.107732
H13   H     H_    0.903843 0.254165 0.072994 0.101342
H14   H     H_    0.407451 0.298799 0.560115 0.113283
H15   H     H_    0.426497 0.309872 0.939457 0.101077
H16   H     H_    0.405377 0.791942 0.431318 0.100584
H17   H     H_    0.426687 0.686860 0.057900 0.101151
H18   H     H_    0.912353 0.671961 0.476099 0.120064
H19   H     H_    0.975627 0.640556 0.025282 0.129385
H20   H     H_    0.023206 0.369095 0.534898 0.155770
H21   H     H_    0.973756 0.360600 0.976164 0.129174
H22   H     H_    0.412416 0.171908 0.476108 0.120124
H23   H     H_    0.135278 0.136201 0.462806 0.149754
H24   H     H_    0.404390 0.182658 0.024602 0.110640
H25   H     H_    0.523172 0.869094 0.534889 0.155837
H26   H     H_    0.402092 0.815212 0.975621 0.110886
H27   H     H_    0.126673 0.633320 0.549256 0.149664
H28   H     H_    0.208560 0.648837 0.959580 0.124734
H29   H     H_    0.252178 0.327937 0.467787 0.129002
H30   H     H_    0.205163 0.351685 0.040480 0.127628
H31   H     H_    0.626803 0.133325 0.549241 0.149605
H32   H     H_    0.609636 0.138243 0.942551 0.131608
H33   H     H_    0.752158 0.827950 0.467784 0.129008
H34   H     H_    0.209131 0.150786 0.017279 0.108031
H35   H     H_    0.602219 0.862156 0.057643 0.127587
H36   H     H_    0.261220 0.699172 0.438679 0.110241
H37   H     H_    0.269290 0.747714 0.075742 0.105022
H38   H     H_    0.258174 0.213254 0.567584 0.099639
H39   H     H_    0.266703 0.252213 0.923606 0.104820
H40   H     H_    0.761253 0.199225 0.438657 0.110042
H41   H     H_    0.749096 0.185995 0.061047 0.117911
H42   H     H_    0.758184 0.713282 0.567588 0.099550
H43   H     H_    0.747025 0.816100 0.938170 0.118795
H44   H     H_    0.721023 0.944208 0.426218 0.141680
H45   H     H_    0.754803 0.325266 0.523082 0.119564
H46   H     H_    0.722120 0.971559 0.058412 0.176560
H47   H     H_    0.743260 0.973808 0.554747 0.172743
H48   H     H_    0.721701 0.026605 0.933739 0.167967
H49   H     H_    0.221022 0.444201 0.426219 0.142160
H50   H     H_    0.224777 0.473508 0.059808 0.181676
H51   H     H_    0.243263 0.473810 0.554745 0.172890
H52   H     H_    0.227199 0.522816 0.932561 0.162973
H53   H     H_    0.529028 0.957231 0.367181 0.124901
H54   H     H_    0.537873 0.970581 0.126277 0.125106
H55   H     H_    0.569442 0.013338 0.624661 0.136313
H56   H     H_    0.771490 0.315990 0.978219 0.110068
H57   H     H_    0.535243 0.032331 0.869707 0.124361
H58   H     H_    0.029029 0.457228 0.367180 0.125875
H59   H     H_    0.039435 0.469890 0.125890 0.135106
H60   H     H_    0.069443 0.513337 0.624660 0.136863
H61   H     H_    0.039702 0.532758 0.868771 0.132367
H62   H     H_    0.080980 0.978172 0.390828 0.136683
H63   H     H_    0.084646 0.086463 0.094184 0.181954
H64   H     H_    0.131487 0.064735 0.637353 0.127705
H65   H     H_    0.085724 0.914159 0.907359 0.181040
H66   H     H_    0.580982 0.478167 0.390826 0.137280
H67   H     H_    0.635311 0.636203 0.462814 0.149691
H68   H     H_    0.599325 0.595969 0.087963 0.182087
H69   H     H_    0.631489 0.564735 0.637350 0.127455
H70   H     H_    0.595117 0.409991 0.913981 0.180178
H71   H     H_    0.897674 0.020923 0.635755 0.216409
H72   H     H_    0.919274 0.106012 0.623714 0.241250
H73   H     H_    0.872624 0.956732 0.892110 0.216103
H74   H     H_    0.884265 0.892295 0.951269 0.212320
H75   H     H_    0.860253 0.085108 0.446659 0.241472
H76   H     H_    0.888069 0.017886 0.392688 0.206326
H77   H     H_    0.870334 0.040384 0.110752 0.217244
H78   H     H_    0.773823 0.686431 0.020601 0.109532
H79   H     H_    0.883438 0.107279 0.054451 0.212505
H80   H     H_    0.397673 0.520922 0.635749 0.217373
H81   H     H_    0.419278 0.606013 0.623711 0.241275
H82   H     H_    0.386632 0.421436 0.908315 0.222001
H83   H     H_    0.367497 0.402431 0.997112 0.227458
H84   H     H_    0.360322 0.585118 0.446595 0.241506
H85   H     H_    0.388055 0.517830 0.392699 0.207721
H86   H     H_    0.397965 0.580241 0.108145 0.223235
H87   H     H_    0.343936 0.588069 0.023554 0.226141
H88   H     H_    0.041076 0.863129 0.448205 0.119070
N1    N     N_3   0.903983 0.059561 0.596497 -0.639566
N2    N     N_3   0.876166 0.945805 0.947003 -0.642884
N3    N     N_3   0.881120 0.032191 0.446590 -0.629307
N4    N     N_3   0.875158 0.053632 0.056421 -0.639698
N5    N     N_3   0.403985 0.559562 0.596491 -0.639308
N6    N     N_3   0.380836 0.442062 0.960017 -0.656909
N7    N     N_3   0.381127 0.532194 0.446585 -0.629144
N8    N     N_3   0.381832 0.553767 0.060277 -0.645405
O1    O     O_R   0.575450 0.828820 0.667950 -0.524514
O2    O     O_R   0.416860 0.942890 0.825320 -0.508759
O3    O     O_R   0.416860 0.057110 0.325320 -0.499817
O4    O     O_R   0.416860 0.057110 0.174680 -0.509447
O5    O     O_R   0.916860 0.442890 0.674680 -0.514537
O6    O     O_R   0.916860 0.442890 0.825320 -0.513921
O7    O     O_R   0.916860 0.557110 0.325320 -0.499219
O8    O     O_R   0.916860 0.557110 0.174680 -0.514376
O9    O     O_R   0.213790 0.953680 0.668330 -0.514158
O10   O     O_R   0.213790 0.953680 0.831670 -0.547267
O11   O     O_R   0.213790 0.046320 0.331670 -0.532039
O12   O     O_R   0.575450 0.828820 0.832050 -0.519311
O13   O     O_R   0.213790 0.046320 0.168330 -0.544449
O14   O     O_R   0.713790 0.453680 0.668330 -0.513959
O15   O     O_R   0.713790 0.453680 0.831670 -0.542119
O16   O     O_R   0.713790 0.546320 0.331670 -0.531294
O17   O     O_R   0.713790 0.546320 0.168330 -0.537099
O18   O     O_R   0.121360 0.817890 0.672660 -0.499709
O19   O     O_R   0.121360 0.817890 0.827340 -0.532581
O20   O     O_R   0.121360 0.182110 0.327340 -0.508223
O21   O     O_R   0.121360 0.182110 0.172660 -0.532691
O22   O     O_R   0.621360 0.317890 0.672660 -0.499910
O23   O     O_R   0.575450 0.171180 0.332050 -0.516244
O24   O     O_R   0.621360 0.317890 0.827340 -0.531779
O25   O     O_R   0.621360 0.682110 0.327340 -0.508017
O26   O     O_R   0.621360 0.682110 0.172660 -0.535791
O27   O     O_R   0.206850 0.711370 0.665820 -0.530235
O28   O     O_R   0.206850 0.711370 0.834180 -0.530241
O29   O     O_R   0.206850 0.288630 0.334180 -0.533542
O30   O     O_R   0.206850 0.288630 0.165820 -0.529836
O31   O     O_R   0.706850 0.211370 0.665820 -0.531113
O32   O     O_R   0.706850 0.211370 0.834180 -0.528585
O33   O     O_R   0.706850 0.788630 0.334180 -0.534616
O34   O     O_R   0.575450 0.171180 0.167950 -0.520566
O35   O     O_R   0.706850 0.788630 0.165820 -0.526866
O36   O     O_R   0.457710 0.733190 0.672630 -0.524641
O37   O     O_R   0.457710 0.733190 0.827370 -0.510483
O38   O     O_R   0.457710 0.266810 0.327370 -0.513574
O39   O     O_R   0.457710 0.266810 0.172630 -0.509742
O40   O     O_R   0.957710 0.233190 0.672630 -0.523847
O41   O     O_R   0.957710 0.233190 0.827370 -0.513114
O42   O     O_R   0.957710 0.766810 0.327370 -0.513348
O43   O     O_R   0.957710 0.766810 0.172630 -0.513480
O44   O     O_3   0.331690 0.831680 0.750000 -0.261306
O45   O     O_R   0.075450 0.328820 0.667950 -0.523537
O46   O     O_3   0.331690 0.168320 0.250000 -0.262415
O47   O     O_3   0.831690 0.331680 0.750000 -0.261649
O48   O     O_3   0.831690 0.668320 0.250000 -0.263085
O49   O     O_R   0.075450 0.328820 0.832050 -0.519281
O50   O     O_R   0.075450 0.671180 0.332050 -0.515052
O51   O     O_R   0.075450 0.671180 0.167950 -0.520546
O52   O     O_R   0.416860 0.942890 0.674680 -0.514705

loop_
_geom_bond_atom_site_label_1
_geom_bond_atom_site_label_2
_ccdc_geom_bond_type
Cr8   O9    S    
C6    C32   S    
C71   C104  A    
C73   C82   A    
C73   C93   A    
C74   C83   A    
C9    C143  S    
C61   C133  S    
Cr5   O4    S    
C65   C89   A    
Cr8   O44   S    
Cr11  O26   S    
C2    C55   S    
C117  C119  A    
C112  O7    A    
C86   C88   A    
C71   C95   A    
C69   C123  S    
Cr5   O46   S    
C54   C134  S    
C57   O2    A    
C129  O31   A    
C109  H62   S    
C40   H24   S    
C37   C56   S    
C50   C52   S    
C28   C144  S    
C41   C61   S    
C4    C12   S    
C112  O16   A    
H74   N2    S    
Cr1   O52   S    
C21   C48   S    
C84   H48   S    
C32   H16   S    
C100  C109  A    
C22   C130  S    
C7    C33   S    
C129  O22   A    
C88   H52   S    
C8    H1    S    
C109  C118  A    
C11   C20   S    
C111  H69   S    
C115  H68   S    
Cr12  O27   S    
C133  O1    A    
C131  O33   A    
C70   C103  A    
C67   C105  A    
C24   H39   S    
Cr11  O48   S    
C2    C9    S    
C17   C43   S    
C7    C62   S    
C34   H18   S    
C18   C44   S    
C73   H54   S    
Cr1   O12   S    
Cr7   O50   S    
C47   H30   S    
C94   C96   A    
C135  O37   A    
Cr2   O29   S    
C35   H40   S    
C22   C49   S    
Cr4   O48   S    
C34   C54   S    
C82   C84   A    
C13   H38   S    
C27   C36   S    
C64   C79   S    
Cr1   O2    S    
C36   C44   S    
C52   H42   S    
C37   C45   S    
C39   H22   S    
C140  O50   A    
C21   C30   S    
C16   C25   S    
C141  O51   A    
C46   C60   S    
H75   N3    S    
C95   C97   A    
C132  O26   A    
C106  C115  A    
C8    C17   S    
C74   H55   S    
C52   C61   S    
C2    H37   S    
C11   H34   S    
C28   C37   S    
C80   C88   A    
C36   C55   S    
C5    H6    S    
C13   C45   S    
Cr3   O32   S    
C45   H29   S    
C49   H32   S    
C78   C94   A    
C142  H88   S    
C43   H27   S    
C116  C118  A    
C128  O21   A    
C20   C47   S    
C3    C11   S    
C67   C112  S    
C6    H7    S    
H84   N7    S    
C4    H5    S    
Cr9   O21   S    
C29   H13   S    
C76   C85   A    
C76   C96   A    
C78   C87   A    
C40   C60   S    
H85   N7    S    
C128  O30   A    
C57   C66   S    
C81   H44   S    
Cr7   O7    S    
C117  N2    S    
C64   C102  A    
C99   C108  A    
C33   C42   S    
C6    C61   S    
C103  C111  A    
C75   C84   A    
C40   C49   S    
C59   C136  S    
Cr6   O49   S    
C3    C29   S    
C50   H33   S    
C2    C44   S    
C29   C38   S    
C1    C65   S    
C32   C41   S    
C77   C97   A    
C42   C62   S    
C75   C91   A    
C13   C56   S    
C135  O12   A    
C38   H21   S    
H82   N6    S    
C81   C83   A    
Cr2   O46   S    
C55   C143  S    
C8    C134  S    
C53   H43   S    
Cr10  O15   S    
C80   H61   S    
C75   H57   S    
C51   C53   S    
C62   C135  S    
C110  H63   S    
Cr2   O39   S    
C27   C143  S    
C72   H53   S    
C6    C15   S    
C133  O36   A    
C23   C131  S    
C103  C105  A    
C10   C144  S    
C12   C35   S    
Cr10  O24   S    
C19   C28   S    
C21   C129  S    
C36   H19   S    
C24   C58   S    
Cr3   O47   S    
C136  O23   A    
Cr7   O51   S    
C130  O24   A    
H79   N4    S    
C51   H35   S    
C143  H2    S    
Cr8   O10   S    
Cr4   O43   S    
C63   C68   S    
C5    C60   S    
C108  C117  A    
C9    H12   S    
C34   C43   S    
Cr11  O16   S    
C110  C119  A    
C77   C86   A    
C19   C45   S    
C80   C95   A    
Cr5   O3    S    
Cr6   O47   S    
C125  O18   A    
H86   N8    S    
C14   C22   S    
Cr11  O25   S    
C136  O38   A    
C18   C126  S    
C108  H65   S    
C68   O3    A    
C121  N6    S    
C3    H4    S    
C31   H15   S    
C137  O34   A    
C30   C39   S    
Cr9   O11   S    
C107  C116  A    
C139  O49   A    
C104  C113  A    
C76   H58   S    
C9    C18   S    
C113  C121  A    
C25   C132  S    
C25   C33   S    
C69   C97   A    
Cr9   O46   S    
C26   H9    S    
C55   C141  S    
Cr5   O34   S    
C41   H25   S    
C104  C106  A    
C14   C46   S    
C42   H26   S    
C138  O45   A    
C46   C49   S    
C70   C94   A    
C65   C98   A    
Cr12  O28   S    
Cr6   O5    S    
C72   C92   A    
C132  O35   A    
Cr8   O19   S    
C31   C40   S    
C35   C59   S    
Cr10  O22   S    
C30   H14   S    
C138  O40   A    
C38   C58   S    
C125  O27   A    
C79   O4    A    
C1    O52   A    
C72   C81   A    
Cr2   O30   S    
C123  O17   A    
C71   C101  S    
H83   N6    S    
Cr1   O1    S    
C35   C48   S    
Cr3   O40   S    
C57   O10   A    
Cr6   O45   S    
C85   H49   S    
C126  O19   A    
C120  N5    S    
C48   H31   S    
C83   H47   S    
C118  N3    S    
C23   C50   S    
C98   C107  A    
C43   C134  S    
Cr9   O13   S    
C91   C93   A    
Cr3   O31   S    
C16   H78   S    
C10   C19   S    
C39   C59   S    
C101  O6    A    
C15   C52   S    
C114  H66   S    
C144  H3    S    
C5    C14   S    
C7    C16   S    
C54   C142  S    
C98   C100  A    
Cr4   O33   S    
C102  C110  A    
Cr9   O20   S    
C10   H23   S    
C41   C50   S    
C77   H59   S    
C82   H46   S    
C115  C124  A    
Cr7   O48   S    
C46   H41   S    
Cr1   O44   S    
C69   C106  A    
C123  O8    A    
Cr4   O42   S    
C7    H8    S    
C14   H56   S    
C23   C32   S    
C37   H20   S    
C113  H70   S    
C15   H67   S    
C131  O25   A    
C27   H10   S    
C107  H64   S    
C56   C144  S    
C3    C58   S    
C99   C102  A    
C124  N8    S    
C8    C142  S    
C90   O5    A    
C39   C48   S    
C58   C139  S    
H80   N5    S    
C86   H50   S    
C17   C26   S    
Cr5   O23   S    
C74   C89   A    
C90   O14   A    
C64   C93   A    
C20   C128  S    
C140  O42   A    
C141  O43   A    
H71   N1    S    
C11   C24   S    
C134  H36   S    
C137  O39   A    
C16   C53   S    
C121  C124  A    
C130  O32   A    
C28   H11   S    
C122  N7    S    
C26   C34   S    
C54   C140  S    
Cr8   O18   S    
Cr4   O35   S    
C63   C92   A    
C33   H17   S    
C44   H28   S    
C60   C137  S    
C15   C23   S    
C101  O15   A    
H81   N5    S    
C70   C90   S    
Cr11  O17   S    
C120  C122  A    
Cr7   O8    S    
C20   C29   S    
C85   C87   A    
C22   C31   S    
Cr12  O44   S    
C105  C114  A    
C78   H60   S    
C139  O41   A    
H72   N1    S    
Cr3   O41   S    
C126  O28   A    
C12   C21   S    
C111  C120  A    
C66   C99   A    
C119  N4    S    
C25   C51   S    
C63   C100  A    
C56   C138  S    
C53   C62   S    
C12   H45   S    
C89   C92   A    
C87   H51   S    
C38   C47   S    
C1    O9    A    
H73   N2    S    
Cr10  O47   S    
C127  O20   A    
C67   C96   A    
Cr12  O36   S    
H87   N8    S    
C24   C47   S    
C18   C27   S    
Cr10  O14   S    
C10   C13   S    
H77   N4    S    
C66   C91   A    
C42   C51   S    
H76   N3    S    
C127  O29   A    
Cr6   O6    S    
Cr2   O38   S    
C17   C125  S    
C4    C59   S    
C19   C127  S    
C79   O13   A    
Cr12  O37   S    
C114  C122  A    
C116  N1    S    
C26   C142  S    
C68   O11   A    
C4    C30   S    
C5    C31   S    
