data_mof_unit_23584.cif
_audit_creation_date              2013-03-05T15:44:47-0500
_audit_creation_method            fapswitch 2.2
_symmetry_space_group_name_H-M    P1
_symmetry_Int_Tables_number       1
_space_group_crystal_system       triclinic
_cell_length_a                    12.984193
_cell_length_b                    13.015187
_cell_length_c                    15.256491
_cell_angle_alpha                 117.567195
_cell_angle_beta                  64.127182
_cell_angle_gamma                 97.204568
_cell_volume                      2046.93364197

loop_
_atom_site_label
_atom_site_type_symbol
_atom_site_description
_atom_site_fract_x
_atom_site_fract_y
_atom_site_fract_z
_atom_type_partial_charge
C1    C     C_R   0.001410 0.834404 0.055684 -0.119489
H1    H     H_    0.031350 0.896819 0.114433 0.100999
N1    N     N_R   0.037310 0.720000 0.995790 -0.047708
C2    C     C_R   0.678910 0.472490 0.218919 -0.171849
H2    H     H_    0.609678 0.435994 0.196137 0.140620
N2    N     N_R   0.790790 0.446160 0.152010 -0.069390
C3    C     C_R   0.755433 0.518709 0.892279 -0.165077
H3    H     H_    0.777569 0.547051 0.830354 0.110743
N3    N     N_R   0.824890 0.517960 0.936420 -0.044757
C4    C     C_R   0.020074 0.699873 0.302310 -0.007486
H4    H     H_    0.005409 0.659592 0.353723 0.202471
N4    N     N_R   0.003210 0.648190 0.211380 -0.057783
C5    C     C_R   0.677274 0.420625 0.988778 -0.108404
H5    H     H_    0.631656 0.357191 0.014789 0.089364
N5    N     N_R   0.774330 0.457010 0.995840 -0.044895
C6    C     C_R   0.099411 0.798866 0.208447 -0.149699
H6    H     H_    0.157601 0.851070 0.173834 0.105649
N6    N     N_R   0.053760 0.709140 0.151960 -0.054931
C7    C     C_R   0.780795 0.560847 0.315352 0.512331
N7    N     N_R   0.853860 0.498840 0.211410 -0.072682
C8    C     C_R   0.900698 0.748857 0.957759 -0.104272
H7    H     H_    0.836600 0.732269 0.926798 0.109245
N8    N     N_R   0.974240 0.667310 0.936390 -0.048785
C9    C     C_R   0.913455 0.854721 0.034959 0.131733
C10   C     C_R   0.670514 0.544870 0.322612 -0.125405
C11   C     C_R   0.662993 0.457633 0.923748 0.154289
C12   C     C_R   0.081790 0.794379 0.303033 0.102553
C13   C     C_R   0.338203 0.515685 0.950528 -0.096341
H8    H     H_    0.396990 0.554286 0.900988 0.089085
N9    N     N_R   0.225670 0.542990 0.004160 -0.049313
C14   C     C_R   0.982564 0.177590 0.777781 -0.152311
H9    H     H_    0.954556 0.107368 0.798723 0.145896
N10   N     N_R   0.946240 0.290860 0.848040 -0.047424
C15   C     C_R   0.199762 0.505163 0.693424 -0.042639
H10   H     H_    0.166014 0.481038 0.633726 0.114756
N11   N     N_R   0.146140 0.501160 0.788590 -0.048284
C16   C     C_R   0.053080 0.255463 0.087236 -0.134442
H11   H     H_    0.091175 0.275758 0.143046 0.115016
N12   N     N_R   0.025760 0.332690 0.063610 -0.045569
C17   C     C_R   0.951480 0.171014 0.992881 -0.114961
H12   H     H_    0.895236 0.112865 0.961478 0.106410
N13   N     N_R   0.962690 0.280000 0.004210 -0.046394
C18   C     C_R   0.301309 0.590001 0.790224 -0.156954
H13   H     H_    0.360268 0.644976 0.819996 0.100545
N14   N     N_R   0.209210 0.553840 0.847990 -0.038726
C19   C     C_R   0.259745 0.415879 0.046766 -0.102077
H14   H     H_    0.249899 0.361296 0.085203 0.107401
N15   N     N_R   0.175110 0.482040 0.063580 -0.045915
C20   C     C_R   0.061141 0.279083 0.684509 -0.068745
H15   H     H_    0.103982 0.306253 0.621780 0.142658
N16   N     N_R   0.996790 0.351810 0.788620 -0.057127
Ni1   Ni    Ni4+2 0.130310 0.630310 0.999970 0.213993
Ni2   Ni    Ni4+2 0.869690 0.369690 0.000030 0.210968
Ni3   Ni    Ni4+2 0.985640 0.509470 0.863740 0.226663
Ni4   Ni    Ni4+2 0.014360 0.490530 0.136260 0.261836
C21   C     C_R   0.362250 0.433619 0.973830 0.135755
C22   C     C_R   0.061009 0.167977 0.674984 0.119339
C23   C     C_R   0.297513 0.558507 0.692959 0.047011
C24   C     C_R   0.009570 0.150971 0.042190 0.073443
C25   C     C_R   0.172739 0.972491 0.379687 -0.306893
H16   H     H_    0.202155 0.981565 0.305816 0.185526
C26   C     C_R   0.180056 0.064548 0.471291 0.336924
C27   C     C_R   0.123660 0.060749 0.572470 -0.240027
C28   C     C_R   0.107852 0.950226 0.570043 0.390611
C29   C     C_R   0.110174 0.854099 0.474576 0.286459
C30   C     C_R   0.125154 0.871617 0.384779 -0.133120
C31   C     C_R   0.589365 0.517155 0.484102 -0.161693
H17   H     H_    0.672306 0.480000 0.462393 0.157940
C32   C     C_R   0.498232 0.523064 0.576175 -0.134433
H18   H     H_    0.511578 0.491628 0.625382 0.126776
C33   C     C_R   0.389808 0.563695 0.601488 0.126558
C34   C     C_R   0.371142 0.599065 0.535506 -0.136582
H19   H     H_    0.285764 0.628488 0.555295 0.165519
C35   C     C_R   0.464379 0.595958 0.443424 -0.122726
H20   H     H_    0.452263 0.623041 0.390980 0.149918
C36   C     C_R   0.573088 0.556266 0.419481 0.120309
C37   C     C_2   0.476086 0.391347 0.944626 -0.179186
H21   H     H_    0.479935 0.345076 0.986784 0.130333
C38   C     C_2   0.568359 0.435166 0.893362 -0.192438
H22   H     H_    0.565776 0.477106 0.847275 0.128329
C39   C     C_2   0.834806 0.961418 0.094047 -0.220233
H23   H     H_    0.778234 0.967626 0.060949 0.148432
C40   C     C_2   0.825468 0.048285 0.190037 -0.087631
H24   H     H_    0.877054 0.046783 0.229461 0.124682
N17   N     N_R   0.247603 0.157720 0.459792 0.231809
O1    O     O_R   0.262385 0.184511 0.383053 -0.412128
O2    O     O_R   0.307225 0.205349 0.516326 -0.403571
O3    O     O_3   0.095276 0.932781 0.656642 -0.712332
H25   H     H_    0.129565 0.996188 0.700484 0.318879
N18   N     N_R   0.107466 0.739522 0.466476 0.237008
O4    O     O_R   0.035866 0.720294 0.547969 -0.351544
O5    O     O_R   0.184332 0.656354 0.381227 -0.430147
O6    O     O_3   0.812058 0.618813 0.400154 -0.790899
H26   H     H_    0.744395 0.670582 0.465457 0.318629

loop_
_geom_bond_atom_site_label_1
_geom_bond_atom_site_label_2
_geom_bond_distance
_ccdc_geom_bond_type
C4    C12   1.379537 A    
N15   Ni4   1.876897 S    
O6    H26   0.990795 S    
N1    N8    1.376145 A    
C7    N7    1.326864 A    
C18   H13   1.081477 S    
C2    C10   1.377627 A    
C13   C21   1.377211 A    
N6    Ni1   1.860055 S    
C3    H3    1.081761 S    
C37   H21   1.083030 S    
C16   H11   1.079841 S    
C3    C11   1.383487 A    
C35   C36   1.396737 A    
N5    Ni2   1.821545 S    
N9    N15   1.377559 A    
C13   H8    1.076127 S    
C1    H1    1.079518 S    
N13   Ni2   1.820587 S    
C23   C33   1.412634 S    
C20   C22   1.384665 A    
C25   C26   1.391111 A    
C15   H10   1.081298 S    
C32   C33   1.390650 A    
C18   C23   1.366846 A    
N12   Ni4   1.815548 S    
C14   H9    1.074777 S    
C6    H6    1.080030 S    
C20   N16   1.328736 A    
C14   N10   1.347336 A    
C7    O6    1.373288 S    
C6    C12   1.387318 A    
C17   N13   1.344013 A    
C25   C30   1.400179 A    
C17   C24   1.388912 A    
C8    H7    1.079814 S    
N7    Ni4   1.877660 S    
C39   C40   1.335864 D    
C22   C27   1.486485 S    
N12   N13   1.376145 A    
C37   C38   1.340163 D    
N10   Ni2   1.860056 S    
C29   N18   1.435400 S    
C26   N17   1.437487 S    
C19   N15   1.342299 A    
C35   H20   1.083504 S    
N17   O2    1.301917 A    
C31   H17   1.083691 S    
C34   C35   1.384269 A    
C2    H2    1.080397 S    
N14   Ni1   1.860918 S    
N17   O1    1.301565 A    
C39   H23   1.085082 S    
C21   C37   1.445077 S    
C38   H22   1.083457 S    
C25   H16   1.079901 S    
C1    N1    1.346242 A    
C9    C39   1.475643 S    
C26   C27   1.412989 A    
N18   O5    1.301686 A    
C40   H24   1.084698 S    
N11   N14   1.376129 A    
C18   N14   1.323317 A    
C16   C24   1.386397 A    
C4    N4    1.337677 A    
C2    N2    1.332901 A    
C17   H12   1.080167 S    
C20   H15   1.072226 S    
C5    N5    1.321194 A    
C5    C11   1.369657 A    
N2    Ni2   1.860918 S    
N4    N6    1.377545 A    
N8    Ni3   1.815549 S    
C3    N3    1.343607 A    
N9    Ni1   1.821546 S    
C19   H14   1.078097 S    
C34   H19   1.083553 S    
N1    Ni1   1.820585 S    
N3    Ni3   1.876899 S    
N10   N16   1.377543 A    
N2    N7    1.376129 A    
C11   C38   1.446290 S    
N16   Ni3   1.816053 S    
C28   C29   1.404302 A    
C10   C36   1.420881 S    
C8    N8    1.344179 A    
N3    N5    1.377558 A    
C33   C34   1.397783 A    
C16   N12   1.342532 A    
C12   C30   1.481030 S    
C14   C22   1.403191 A    
N18   O4    1.301374 A    
C13   N9    1.322280 A    
C15   N11   1.331972 A    
C32   H18   1.084728 S    
C7    C10   1.383510 A    
N4    Ni4   1.816054 S    
N11   Ni3   1.877658 S    
C4    H4    1.073134 S    
C27   C28   1.412785 A    
O3    H25   0.991715 S    
C1    C9    1.393686 A    
C6    N6    1.341074 A    
C29   C30   1.418486 A    
C8    C9    1.387113 A    
C19   C21   1.389647 A    
C15   C23   1.366990 A    
C31   C36   1.396103 A    
C31   C32   1.360689 A    
C5    H5    1.079531 S    
C28   O3    1.379803 S    
