data_mof_unit_26296.cif
_audit_creation_date              2013-03-05T16:03:50-0500
_audit_creation_method            fapswitch 2.2
_symmetry_space_group_name_H-M    P1
_symmetry_Int_Tables_number       1
_space_group_crystal_system       triclinic
_cell_length_a                    6.935889
_cell_length_b                    17.610247
_cell_length_c                    19.522563
_cell_angle_alpha                 108.826896
_cell_angle_beta                  90.030824
_cell_angle_gamma                 90.375446
_cell_volume                      2256.90370176

loop_
_atom_site_label
_atom_site_type_symbol
_atom_site_description
_atom_site_fract_x
_atom_site_fract_y
_atom_site_fract_z
_atom_type_partial_charge
O1    O     O_R   0.505700 0.440210 0.561730 -0.601306
O2    O     O_R   0.169350 0.406300 0.412660 -0.589753
O3    O     O_R   0.005650 0.559790 0.438270 -0.578561
C1    C     C_R   0.339141 0.384555 0.384167 1.045589
O4    O     O_R   0.175560 0.430650 0.559600 -0.607469
O5    O     O_R   0.011900 0.584320 0.586250 -0.593798
C2    C     C_R   0.344540 0.415168 0.580902 0.946148
O6    O     O_R   0.499450 0.415680 0.413750 -0.563028
O7    O     O_3   0.341370 0.550390 0.508570 -0.247994
V1    V     V_3+5 0.063940 0.490650 0.498410 1.198734
O8    O     O_R   0.682570 0.593700 0.587340 -0.599841
C3    C     C_R   0.852033 0.616602 0.615065 0.927247
O9    O     O_R   0.676370 0.569350 0.440400 -0.547496
C4    C     C_R   0.844956 0.584779 0.419276 0.991178
V2    V     V_3+5 0.564750 0.509350 0.501590 1.219077
O10   O     O_3   0.837190 0.449610 0.491430 -0.280743
C5    C     C_R   0.992706 0.662804 0.267345 -0.156627
H1    H     H_    0.092717 0.646019 0.222413 0.153888
C6    C     C_R   0.982499 0.615854 0.312904 -0.077497
H2    H     H_    0.071127 0.563219 0.301400 0.177257
C7    C     C_R   0.853693 0.634712 0.371096 -0.174963
C8    C     C_R   0.731701 0.700907 0.382252 -0.186097
H3    H     H_    0.631604 0.716493 0.427181 0.158277
C9    C     C_R   0.741137 0.748653 0.336938 0.494447
C10   C     C_R   0.872573 0.729644 0.278436 -0.051237
C11   C     C_R   0.721657 0.793029 0.193064 -0.045449
H4    H     H_    0.582035 0.770166 0.202195 0.136651
C12   C     C_R   0.735302 0.837468 0.145370 -0.156394
H5    H     H_    0.604745 0.848672 0.119823 0.141745
C13   C     C_R   0.914851 0.866469 0.130464 -0.126398
C14   C     C_R   0.080579 0.849440 0.164361 -0.092292
H6    H     H_    0.221040 0.870873 0.154326 0.123425
C15   C     C_R   0.066443 0.805476 0.212595 -0.106448
H7    H     H_    0.196102 0.793875 0.238449 0.144529
C16   C     C_R   0.886507 0.777539 0.228074 0.152017
C17   C     C_R   0.764538 0.905068 0.754285 -0.095412
C18   C     C_R   0.688787 0.917568 0.692736 0.021836
C19   C     C_R   0.672552 0.854073 0.628513 -0.063407
C20   C     C_R   0.731143 0.777531 0.625438 -0.178724
C21   C     C_R   0.805873 0.762599 0.687380 0.110894
C22   C     C_R   0.824429 0.827873 0.753140 0.106076
C23   C     C_R   0.865625 0.684647 0.684192 -0.282903
C24   C     C_R   0.943962 0.672119 0.746949 0.139811
C25   C     C_R   0.963951 0.737373 0.812514 0.069431
C26   C     C_R   0.905240 0.815499 0.815617 -0.258348
C27   C     C_R   0.999133 0.594674 0.746193 -0.227407
C28   C     C_R   0.074103 0.581792 0.807655 -0.204497
C29   C     C_R   0.094134 0.645289 0.872447 0.419586
C30   C     C_R   0.037741 0.722376 0.874573 -0.299625
H8    H     H_    0.777721 0.957021 0.802265 0.141909
H9    H     H_    0.644130 0.977065 0.694766 0.165127
H10   H     H_    0.615351 0.864228 0.580614 0.161964
H11   H     H_    0.718291 0.730635 0.573769 0.111796
H12   H     H_    0.983056 0.542705 0.698372 0.136189
H13   H     H_    0.114849 0.521515 0.804521 0.179650
H14   H     H_    0.050392 0.770243 0.925567 0.158451
H15   H     H_    0.370813 0.489246 0.173562 0.191444
C31   C     C_R   0.381190 0.221131 0.379667 -0.182210
C32   C     C_R   0.413521 0.143519 0.380670 -0.047652
C33   C     C_R   0.449027 0.081959 0.316622 -0.083864
C34   C     C_R   0.450852 0.097416 0.251016 -0.202379
C35   C     C_R   0.417319 0.175623 0.248033 0.128214
C36   C     C_R   0.383589 0.239028 0.313904 0.108940
C37   C     C_R   0.411200 0.190260 0.180692 -0.251499
C38   C     C_R   0.369619 0.269807 0.180007 -0.031016
C39   C     C_R   0.369771 0.335647 0.246790 -0.028903
C40   C     C_R   0.358331 0.318894 0.313693 -0.273642
C41   C     C_R   0.327896 0.287538 0.115161 0.383974
C42   C     C_R   0.333067 0.365898 0.113882 -0.173006
C43   C     C_R   0.364893 0.428826 0.176430 -0.231045
C44   C     C_R   0.377870 0.415667 0.242738 0.384172
H16   H     H_    0.355200 0.266859 0.431154 0.092953
H17   H     H_    0.411654 0.131175 0.431522 0.158536
H18   H     H_    0.474492 0.021744 0.317678 0.164752
H19   H     H_    0.477882 0.047102 0.202783 0.109926
H20   H     H_    0.305335 0.378651 0.064065 0.209791
C45   C     C_R   0.538784 0.274510 0.676812 0.547996
C46   C     C_R   0.525111 0.321840 0.631404 -0.278489
H21   H     H_    0.646380 0.324153 0.597159 0.173756
C47   C     C_R   0.355866 0.364566 0.628904 -0.187230
C48   C     C_R   0.200167 0.359130 0.673263 -0.151427
H22   H     H_    0.068020 0.391365 0.672782 0.142791
C49   C     C_R   0.215073 0.313351 0.719995 -0.025527
H23   H     H_    0.094620 0.311238 0.754622 0.195056
C50   C     C_R   0.383968 0.270601 0.722248 0.093569
C51   C     C_R   0.303539 0.145743 0.753206 0.446400
C52   C     C_R   0.314139 0.099507 0.800203 0.334358
C53   C     C_R   0.418977 0.128183 0.865625 -0.360070
C54   C     C_R   0.514880 0.202331 0.882475 -0.227094
H24   H     H_    0.596301 0.224849 0.932441 0.200092
C55   C     C_R   0.502576 0.249033 0.836544 0.528969
C56   C     C_R   0.395914 0.221376 0.771552 -0.228584
O11   O     O_R   0.273230 0.084330 0.086440 -0.562316
O12   O     O_R   0.596660 0.069390 0.940470 -0.613436
O13   O     O_R   0.760270 0.915710 0.913690 -0.606926
C57   C     C_R   0.428446 0.081458 0.916672 1.136782
O14   O     O_R   0.603330 0.093680 0.087390 -0.594624
O15   O     O_R   0.766990 0.940160 0.061660 -0.606901
C58   C     C_R   0.432312 0.120545 0.112276 0.998653
O16   O     O_R   0.266510 0.059870 0.938470 -0.523149
O17   O     O_3   0.431050 0.949630 0.991510 -0.290405
V3    V     V_3+5 0.708490 0.009340 0.001580 1.215321
O18   O     O_R   0.096270 0.930570 0.059390 -0.604460
C59   C     C_R   0.927204 0.915366 0.081010 0.924389
O19   O     O_R   0.089600 0.906290 0.912460 -0.576840
C60   C     C_R   0.919946 0.883650 0.884635 0.968337
V4    V     V_3+5 0.207670 0.990600 0.998190 1.243845
O20   O     O_3   0.935250 0.050360 0.008480 -0.226228
Cl1   Cl    Cl    0.219548 0.220623 0.038351 -0.665583
Cl2   Cl    Cl    0.419129 0.504338 0.315144 -0.695239
Cl3   Cl    Cl    0.750056 0.219010 0.674167 -0.590315
Cl4   Cl    Cl    0.179707 0.107336 0.669898 -0.488763
Cl5   Cl    Cl    0.204679 0.003515 0.774799 -0.640720
Cl6   Cl    Cl    0.620901 0.342868 0.862592 -0.577951
Cl7   Cl    Cl    0.593386 0.834098 0.358037 -0.678297
N1    N     N_R   0.169834 0.631491 0.936142 0.243363
O21   O     O_R   0.222728 0.559990 0.934044 -0.347594
O22   O     O_R   0.187099 0.690242 0.996809 -0.412208

loop_
_geom_bond_atom_site_label_1
_geom_bond_atom_site_label_2
_geom_bond_distance
_ccdc_geom_bond_type
C25   C30   1.416758 A    
O17   V4    1.700632 S    
C52   C53   1.411707 A    
C53   C57   1.484734 S    
O17   V3    2.164919 S    
O2    C1    1.308459 A    
C6    H2    1.077363 S    
C1    O6    1.287353 A    
C48   H22   1.082895 S    
C45   C46   1.402636 A    
C34   H19   1.082023 S    
O19   V4    2.013691 S    
C11   H4    1.083089 S    
C18   C19   1.388645 A    
C4    C7    1.481490 S    
C12   H5    1.083059 S    
C6    C7    1.400180 A    
O5    C3    1.292922 A    
C19   C20   1.393061 A    
C18   H9    1.082944 S    
C46   C47   1.407725 A    
C19   H10   1.082708 S    
V2    O10   2.146751 S    
C44   Cl2   1.757114 S    
N1    O21   1.301733 A    
C42   H20   1.083807 S    
C45   Cl3   1.758263 S    
C35   C37   1.419640 A    
O14   C58   1.313954 A    
O8    V2    2.013559 S    
C37   C58   1.502282 S    
C51   C56   1.411896 A    
C49   H23   1.082950 S    
C41   C42   1.388422 A    
C3    C23   1.490191 S    
V4    O20   2.146628 S    
C14   C15   1.401924 A    
V3    O20   1.713385 S    
C43   C44   1.389712 A    
O1    V2    1.986289 S    
H15   C43   1.083878 S    
C54   C55   1.401627 A    
O7    V1    2.164980 S    
C32   H17   1.082706 S    
O14   V3    1.988460 S    
O13   V3    1.993544 S    
C29   N1    1.441176 S    
C21   C23   1.418611 A    
C39   C40   1.431019 A    
C45   C50   1.408557 A    
C32   C33   1.388630 A    
O9    C4    1.296082 A    
C17   C22   1.417348 A    
C42   C43   1.375131 A    
C48   C49   1.403092 A    
C50   C56   1.491377 S    
C5    H1    1.083507 S    
C36   C40   1.419784 A    
C28   C29   1.398052 A    
C9    C10   1.416293 A    
C55   C56   1.410609 A    
O4    C2    1.302980 A    
C51   C52   1.411755 A    
C5    C6    1.397734 A    
C31   C32   1.392845 A    
O15   V3    1.988163 S    
C33   C34   1.392719 A    
C51   Cl4   1.766686 S    
C24   C25   1.423553 A    
C35   C36   1.425555 A    
O13   C60   1.291981 A    
C39   C44   1.437388 A    
C13   C14   1.407447 A    
C38   C41   1.428213 A    
C27   H12   1.081062 S    
C15   H7    1.083371 S    
O12   C57   1.299468 A    
O3    C4    1.297955 A    
C10   C16   1.490542 S    
C21   C22   1.425294 A    
C49   C50   1.404926 A    
O6    V2    2.007622 S    
O9    V2    1.986897 S    
C8    C9    1.404747 A    
C23   C24   1.421359 A    
O2    V1    1.988487 S    
C20   C21   1.416490 A    
C17   H8    1.080969 S    
C26   C60   1.490252 S    
C28   H13   1.082774 S    
C31   C36   1.417413 A    
O11   C58   1.288853 A    
C27   C28   1.392173 A    
C17   C18   1.392782 A    
O16   V4    1.981368 S    
O1    C2    1.297897 A    
C14   H6    1.083082 S    
C25   C26   1.419835 A    
C47   C48   1.406598 A    
O5    V1    1.993687 S    
C1    C40   1.491000 S    
O8    C3    1.299750 A    
C30   H14   1.080115 S    
O19   C60   1.300787 A    
C11   C12   1.399201 A    
C55   Cl6   1.761297 S    
C5    C10   1.405412 A    
C37   C38   1.436346 A    
C12   C13   1.408672 A    
O7    V2    1.700790 S    
O4    V1    1.991787 S    
O3    V1    1.988217 S    
V1    O10   1.713369 S    
O11   V4    2.013315 S    
C46   H21   1.083431 S    
C31   H16   1.082120 S    
C20   H11   1.081080 S    
C29   C30   1.402920 A    
C57   O16   1.298643 A    
C33   H18   1.082874 S    
C15   C16   1.406840 A    
N1    O22   1.301864 A    
C41   Cl1   1.746044 S    
C34   C35   1.417836 A    
C24   C27   1.414403 A    
C52   Cl5   1.766817 S    
C11   C16   1.404440 A    
C53   C54   1.402442 A    
O12   V3    1.991795 S    
C9    Cl7   1.761990 S    
C38   C39   1.438238 A    
C13   C59   1.488842 S    
O18   C59   1.301629 A    
C22   C26   1.421884 A    
C8    H3    1.083716 S    
O18   V4    1.986842 S    
C54   H24   1.083740 S    
C7    C8    1.404100 A    
O15   C59   1.296354 A    
C2    C47   1.489382 S    
