data_mof_unit_18982.cif
_audit_creation_date              2013-03-05T16:04:28-0500
_audit_creation_method            fapswitch 2.2
_symmetry_space_group_name_H-M    P1
_symmetry_Int_Tables_number       1
_space_group_crystal_system       triclinic
_cell_length_a                    10.823901
_cell_length_b                    9.523346
_cell_length_c                    15.033482
_cell_angle_alpha                 89.993957
_cell_angle_beta                  90.174125
_cell_angle_gamma                 89.972501
_cell_volume                      1549.64028723

loop_
_atom_site_label
_atom_site_type_symbol
_atom_site_description
_atom_site_fract_x
_atom_site_fract_y
_atom_site_fract_z
_atom_type_partial_charge
O1    O     O_R   0.319640 0.618740 0.499990 -0.602333
O2    O     O_R   0.680360 0.381260 0.500010 -0.586740
O3    O     O_R   0.680360 0.618740 0.500010 -0.595936
O4    O     O_R   0.319640 0.381260 0.499990 -0.577702
C1    C     C_R   0.262085 0.500030 0.499924 0.877020
C2    C     C_R   0.737915 0.499997 0.500090 0.888660
O5    O     O_R   0.499970 0.618800 0.370260 -0.580957
O6    O     O_R   0.500030 0.381200 0.629740 -0.555297
O7    O     O_R   0.500030 0.618800 0.629740 -0.581129
O8    O     O_R   0.499970 0.381200 0.370260 -0.555424
C3    C     C_R   0.499537 0.499979 0.329138 0.950195
C4    C     C_R   0.499609 0.499964 0.670857 0.950104
Cu1   Cu    Cu3+1 0.500000 0.640660 0.500000 1.020857
Cu2   Cu    Cu3+1 0.500000 0.359340 0.500000 1.043950
C5    C     C_R   0.611923 0.514391 0.813005 0.240062
C6    C     C_R   0.386481 0.491423 0.187005 0.238400
C7    C     C_R   0.499499 0.499711 0.767164 -0.273544
C8    C     C_R   0.499453 0.499764 0.232825 -0.273526
C9    C     C_R   0.386522 0.491303 0.812488 0.244079
C10   C     C_R   0.611889 0.514395 0.187471 0.245806
C11   C     C_R   0.385876 0.494528 0.905916 0.008635
C12   C     C_R   0.612030 0.517540 0.094054 0.006774
C13   C     C_R   0.498849 0.507377 0.953003 0.015260
C14   C     C_R   0.498839 0.507392 0.046978 0.015297
C15   C     C_R   0.612048 0.517538 0.906422 0.008614
C16   C     C_R   0.385855 0.494592 0.093571 0.010148
C17   C     C_R   0.274996 0.481023 0.953334 -0.127917
C18   C     C_R   0.723284 0.526241 0.046642 -0.127804
C19   C     C_R   0.274984 0.481069 0.045667 -0.128062
C20   C     C_R   0.723292 0.526252 0.954324 -0.127717
H1    H     H_    0.187313 0.467874 0.919593 0.203911
H2    H     H_    0.811653 0.530751 0.080365 0.205715
H3    H     H_    0.187297 0.467958 0.079029 0.204158
H4    H     H_    0.811660 0.530779 0.920987 0.206073
C21   C     C_R   0.063944 0.372421 0.499976 -0.090177
C22   C     C_R   0.936062 0.627631 0.500066 -0.102529
C23   C     C_R   0.936185 0.372403 0.500096 -0.101670
C24   C     C_R   0.063825 0.627649 0.499948 -0.115399
H5    H     H_    0.112065 0.272660 0.499934 0.159343
H6    H     H_    0.887942 0.727393 0.500106 0.156885
H7    H     H_    0.888156 0.272637 0.500160 0.156197
H8    H     H_    0.111850 0.727419 0.499884 0.156211
C25   C     C_R   0.871766 0.500007 0.500112 0.022531
C26   C     C_R   0.128243 0.500046 0.499924 0.016272
C27   C     C_R   0.421177 0.074455 0.446158 0.004422
C28   C     C_R   0.578815 0.925544 0.553852 0.001255
C29   C     C_R   0.578817 0.074354 0.553850 0.003595
C30   C     C_R   0.421180 0.925650 0.446155 -0.000331
H9    H     H_    0.358030 0.130551 0.403010 0.156194
H10   H     H_    0.641947 0.869439 0.597017 0.147926
H11   H     H_    0.641954 0.130379 0.597006 0.147238
H12   H     H_    0.358037 0.869633 0.403001 0.142135
N1    N     N_R   0.500000 0.852070 0.500000 -0.174081
N2    N     N_R   0.500000 0.147930 0.500000 -0.174864
N3    N     N_R   0.725361 0.526038 0.764181 0.105588
O9    O     O_R   0.762019 0.423425 0.713601 -0.375764
O10   O     O_R   0.788134 0.642466 0.766105 -0.343908
N4    N     N_R   0.272870 0.481912 0.235831 0.102019
O11   O     O_R   0.251044 0.373565 0.286076 -0.376039
O12   O     O_R   0.194023 0.585015 0.233625 -0.340141
N5    N     N_R   0.272928 0.481602 0.763164 0.102995
O13   O     O_R   0.251155 0.373087 0.712975 -0.355277
O14   O     O_R   0.193925 0.584551 0.765011 -0.333392
N6    N     N_R   0.725336 0.525951 0.236782 0.107795
O15   O     O_R   0.762147 0.423122 0.287297 -0.361693
O16   O     O_R   0.788264 0.642268 0.235054 -0.332966

loop_
_geom_bond_atom_site_label_1
_geom_bond_atom_site_label_2
_geom_bond_distance
_ccdc_geom_bond_type
C4    C7    1.447840 S    
C10   N6    1.436696 S    
C21   H5    1.083258 S    
C13   C14   1.412764 A    
C3    C8    1.447914 S    
C24   C26   1.400749 A    
C9    C11   1.404920 A    
C30   N1    1.367197 A    
C17   C19   1.388091 A    
N4    O12   1.300986 A    
C28   H10   1.081849 S    
C8    C10   1.403768 A    
O3    Cu1   1.963227 S    
C27   H9    1.081756 S    
O6    C4    1.288992 A    
O3    C2    1.290811 A    
N6    O15   1.300807 A    
N3    O9    1.300849 A    
C18   C20   1.387866 A    
C11   C17   1.403714 A    
C5    N3    1.436746 S    
C12   C18   1.403679 A    
Cu1   Cu2   2.679108 S    
O5    C3    1.289492 A    
C21   C26   1.400860 A    
O2    C2    1.291280 A    
C9    N5    1.436904 S    
C29   N2    1.367200 A    
O1    C1    1.291058 A    
C5    C7    1.403673 A    
C18   H2    1.082055 S    
C22   C24   1.382904 A    
Cu2   N2    2.013332 S    
C1    C26   1.448690 S    
C10   C12   1.404704 A    
C27   N2    1.367186 A    
C24   H8    1.083254 S    
C6    N4    1.436927 S    
Cu1   N1    2.013331 S    
C2    C25   1.448789 S    
N3    O10   1.300968 A    
C11   C13   1.416418 A    
O4    Cu2   1.963228 S    
N5    O13   1.300817 A    
O2    Cu2   1.963426 S    
O7    C4    1.289482 A    
C12   C14   1.416375 A    
C23   C25   1.400758 A    
C5    C15   1.404711 A    
O1    Cu1   1.963427 S    
O8    C3    1.289027 A    
C20   H4    1.082061 S    
C17   H1    1.082091 S    
C19   H3    1.082108 S    
O5    Cu1   1.961543 S    
C13   C15   1.416445 A    
C28   N1    1.367222 A    
C16   C19   1.403664 A    
C6    C8    1.403935 A    
O8    Cu2   1.961500 S    
C27   C30   1.417122 A    
C15   C20   1.403611 A    
N5    O14   1.300991 A    
O7    Cu1   1.961500 S    
C28   C29   1.417166 A    
C7    C9    1.403995 A    
C22   H6    1.083254 S    
C29   H11   1.081827 S    
O6    Cu2   1.961543 S    
C21   C23   1.382858 A    
N4    O11   1.300836 A    
C30   H12   1.081813 S    
C23   H7    1.083251 S    
C14   C16   1.416472 A    
O4    C1    1.291038 A    
C22   C25   1.400842 A    
C6    C16   1.404950 A    
N6    O16   1.300964 A    
