data_mof_unit_62287.cif
_audit_creation_date              2012-12-10T17:25:16-0500
_audit_creation_method            fapswitch 2.2
_symmetry_space_group_name_H-M    P1
_symmetry_Int_Tables_number       1
_space_group_crystal_system       triclinic
_cell_length_a                    18.824848
_cell_length_b                    18.765168
_cell_length_c                    18.809816
_cell_angle_alpha                 109.44232
_cell_angle_beta                  109.550894
_cell_angle_gamma                 109.530974
_cell_volume                      5108.01834108

loop_
_atom_site_label
_atom_site_type_symbol
_atom_type_description
_atom_site_fract_x
_atom_site_fract_y
_atom_site_fract_z
_atom_type_partial_charge
C1    C     C_R   0.619084 0.618932 0.500407 0.843209
C2    C     C_R   0.188262 0.165241 0.204575 -0.097516
C3    C     C_R   0.175637 0.422172 0.179801 -0.232488
C4    C     C_R   0.185800 0.502405 0.188259 -0.068757
C5    C     C_R   0.259892 0.581402 0.260247 0.003321
C6    C     C_R   0.322142 0.578002 0.322881 -0.236923
C7    C     C_R   0.311985 0.497742 0.314296 -0.067901
C8    C     C_R   0.238320 0.418816 0.241996 0.000097
C9    C     C_R   0.346491 0.725777 0.276584 -0.141259
C10   C     C_R   0.360014 0.808222 0.290049 -0.139374
C11   C     C_R   0.301129 0.834007 0.301152 -0.092153
C12   C     C_R   0.379923 0.498678 0.381107 0.783645
C13   C     C_R   0.228722 0.777459 0.298959 -0.106270
C14   C     C_R   0.214598 0.694673 0.284910 -0.131652
C15   C     C_R   0.273285 0.668167 0.273267 0.120890
C16   C     C_R   0.765013 0.749876 0.579549 0.489480
C17   C     C_R   0.829924 0.812323 0.577955 -0.260905
C18   C     C_R   0.814048 0.814331 0.500551 -0.084901
C19   C     C_R   0.734239 0.752139 0.423697 -0.170835
C20   C     C_R   0.671185 0.687263 0.423808 -0.265381
C21   C     C_R   0.686377 0.686115 0.501347 -0.101499
C22   C     C_R   0.677511 0.497789 0.756230 -0.181513
C23   C     C_R   0.381310 0.380968 0.500197 0.776095
C24   C     C_R   0.740727 0.495905 0.819268 -0.113026
C25   C     C_R   0.814137 0.499667 0.813698 0.006002
C26   C     C_R   0.823442 0.503893 0.744149 -0.176828
C27   C     C_R   0.758704 0.502661 0.679478 -0.147003
C28   C     C_R   0.686030 0.500293 0.685836 -0.012993
C29   C     C_R   0.246633 0.324963 0.507368 -0.193093
C30   C     C_R   0.181455 0.259986 0.505404 -0.182827
C31   C     C_R   0.185737 0.185394 0.499647 -0.007089
C32   C     C_R   0.254279 0.174967 0.494097 -0.180844
C33   C     C_R   0.317815 0.238521 0.492928 -0.183361
C34   C     C_R   0.619033 0.500147 0.618944 0.801940
C35   C     C_R   0.314502 0.313980 0.500349 -0.017874
C36   C     C_R   0.998267 0.619078 0.116885 0.857349
C37   C     C_R   0.118921 0.501283 0.120096 0.776128
C38   C     C_R   0.999987 0.380914 0.881130 0.762279
C39   C     C_R   0.881072 0.499565 0.880578 0.824983
C40   C     C_R   0.999919 0.881006 0.380987 0.809631
C41   C     C_R   0.881005 0.880947 0.499971 0.807658
C42   C     C_R   0.999984 0.118783 0.618877 0.775912
C43   C     C_R   0.118892 0.118654 0.499761 0.778067
C44   C     C_R   0.991433 0.756637 0.173245 0.434641
C45   C     C_R   0.203391 0.189821 0.146305 -0.136209
C46   C     C_R   0.992324 0.819883 0.239252 -0.239459
C47   C     C_R   0.000113 0.814813 0.313709 -0.095570
C48   C     C_R   0.006305 0.745844 0.322687 -0.171639
C49   C     C_R   0.003350 0.681184 0.256554 -0.260656
C50   C     C_R   0.997113 0.686512 0.182318 -0.154905
C51   C     C_R   0.079061 0.321691 0.821719 -0.176511
C52   C     C_R   0.079066 0.256904 0.758318 -0.177623
C53   C     C_R   0.999938 0.185584 0.685895 -0.009926
C54   C     C_R   0.920791 0.178357 0.677840 -0.178058
C55   C     C_R   0.920777 0.241623 0.742761 -0.178818
C56   C     C_R   0.220333 0.272807 0.158866 -0.138001
C57   C     C_R   0.999919 0.313773 0.814353 -0.005066
C58   C     C_R   0.223344 0.332196 0.230627 0.120948
C59   C     C_R   0.208147 0.307140 0.288993 -0.132269
C60   C     C_R   0.190187 0.223655 0.275552 -0.117657
Cu1   Cu    Cu3+1 0.500020 0.438210 0.438220 0.963777
Cu2   Cu    Cu3+1 0.499980 0.561790 0.561780 0.961747
Cu3   Cu    Cu3+1 0.938210 0.438200 0.999980 0.955031
Cu4   Cu    Cu3+1 0.061840 0.561770 0.999960 1.031735
Cu5   Cu    Cu3+1 0.061800 0.999890 0.561700 0.950756
Cu6   Cu    Cu3+1 0.938200 0.999930 0.438120 0.958949
H1    H     H_    0.174556 0.100772 0.194464 0.145791
H2    H     H_    0.311804 0.897944 0.311838 0.130226
H3    H     H_    0.183828 0.798065 0.308497 0.141040
H4    H     H_    0.158531 0.651527 0.283774 0.101086
H5    H     H_    0.892282 0.859423 0.637026 0.159397
H6    H     H_    0.721467 0.752685 0.363337 0.159946
H7    H     H_    0.610058 0.638618 0.363764 0.155283
H8    H     H_    0.621314 0.495690 0.761414 0.140730
H9    H     H_    0.733269 0.493168 0.873132 0.150407
H10   H     H_    0.879894 0.506582 0.739213 0.140938
H11   H     H_    0.201475 0.144382 0.091105 0.135882
H12   H     H_    0.765877 0.504994 0.625362 0.146591
H13   H     H_    0.243196 0.382820 0.512487 0.143702
H14   H     H_    0.128648 0.268469 0.509911 0.141177
H15   H     H_    0.257676 0.117149 0.489249 0.138082
H16   H     H_    0.370155 0.229573 0.487662 0.143759
H17   H     H_    0.987809 0.873905 0.233379 0.198769
H18   H     H_    0.011803 0.741258 0.380011 0.156955
H19   H     H_    0.007759 0.627755 0.264072 0.159144
H20   H     H_    0.140555 0.377153 0.877097 0.139305
H21   H     H_    0.231253 0.290896 0.112884 0.125802
H22   H     H_    0.140566 0.263107 0.764870 0.140786
H23   H     H_    0.859303 0.123168 0.622191 0.138775
H24   H     H_    0.859288 0.235221 0.736445 0.138166
H25   H     H_    0.209031 0.351721 0.343977 0.107105
H26   H     H_    0.177187 0.203887 0.319751 0.151868
H27   H     H_    0.118671 0.361743 0.124119 0.153411
H28   H     H_    0.379151 0.638367 0.378604 0.148796
H29   H     H_    0.392692 0.706602 0.268254 0.124775
H30   H     H_    0.416276 0.852212 0.292105 0.131054
O1    O     O_R   0.590200 0.537990 0.447840 -0.589280
O2    O     O_R   0.052220 0.642350 0.090110 -0.523308
O3    O     O_R   0.038000 0.447810 0.090170 -0.591222
O4    O     O_R   0.142390 0.552170 0.090150 -0.579739
O5    O     O_R   0.947830 0.357620 0.909840 -0.589762
O6    O     O_R   0.052230 0.461980 0.909820 -0.592295
O7    O     O_R   0.857660 0.447800 0.909790 -0.603971
O8    O     O_R   0.962050 0.552160 0.909780 -0.546529
O9    O     O_R   0.052180 0.909730 0.461910 -0.588796
O10   O     O_R   0.947800 0.909770 0.357550 -0.579428
O11   O     O_R   0.962000 0.909720 0.552080 -0.585981
O12   O     O_R   0.590170 0.642360 0.552180 -0.573640
O13   O     O_R   0.857620 0.909750 0.447720 -0.589503
O14   O     O_R   0.052200 0.090060 0.642270 -0.586304
O15   O     O_R   0.947820 0.090090 0.537910 -0.586163
O16   O     O_R   0.142380 0.090070 0.552100 -0.585279
O17   O     O_R   0.038000 0.090100 0.447740 -0.583646
O18   O     O_R   0.409840 0.447810 0.357640 -0.576514
O19   O     O_R   0.409810 0.552180 0.461990 -0.592640
O20   O     O_R   0.409830 0.357640 0.447820 -0.580794
O21   O     O_R   0.409800 0.462010 0.552160 -0.589776
O22   O     O_R   0.590190 0.447820 0.538010 -0.593290
O23   O     O_R   0.590160 0.552190 0.642360 -0.571439
O24   O     O_R   0.947830 0.537990 0.090130 -0.594609
O25   O     O_3   0.780838 0.744840 0.654629 -0.581166
C61   C     C_3   0.787640 0.818105 0.716943 -0.280041
H31   H     H_    0.730386 0.826316 0.689738 0.156050
H32   H     H_    0.849138 0.878630 0.743572 0.150505
H33   H     H_    0.789167 0.807866 0.772100 0.200198
S1    S     S_3+6 0.979261 0.765818 0.079699 -0.007258
O26   O     O_2   0.063674 0.790537 0.079260 -0.284007
O27   O     O_2   0.908723 0.679844 0.999182 -0.320464
O28   O     O_3   0.952463 0.842896 0.080061 -0.552837
H34   H     H_    0.947462 0.843825 0.026289 0.376541

loop_
_geom_bond_atom_site_label_1
_geom_bond_atom_site_label_2
_ccdc_geom_bond_type
C34   O22   A    
C40   C47   S    
C1    C21   S    
C16   C21   A    
Cu6   O17   S    
C19   C20   A    
Cu3   O5    S    
C27   H12   S    
C39   O8    A    
C53   C54   A    
C52   C53   A    
Cu4   O6    S    
C32   H15   S    
C44   S1    S    
C26   C27   A    
S1    O26   D    
C31   C43   S    
C55   H24   S    
C42   C53   S    
C5    C6    A    
C2    C60   A    
C46   H17   S    
Cu2   O12   S    
C18   C19   A    
Cu2   O21   S    
Cu3   O3    S    
C8    C58   S    
C23   O20   A    
C54   C55   A    
C47   C48   A    
C45   C56   A    
C16   C17   A    
C6    H28   S    
C17   H5    S    
C26   H10   S    
C51   C57   A    
Cu6   O15   S    
C33   H16   S    
C9    H29   S    
C12   O19   A    
C30   H14   S    
C42   O14   A    
Cu4   O2    S    
C28   C34   S    
C59   C60   A    
C41   O13   A    
C13   C14   A    
C14   H4    S    
C19   H6    S    
Cu6   O10   S    
C51   H20   S    
Cu5   O9    S    
C44   C46   A    
C12   O18   A    
C60   H26   S    
C2    C45   A    
C7    C12   S    
C51   C52   A    
C49   H19   S    
C52   H22   S    
C24   C25   A    
C54   H23   S    
Cu3   O7    S    
C2    H1    S    
C18   C41   S    
C1    O1    A    
C56   H21   S    
S1    O28   S    
C25   C26   A    
C48   H18   S    
C42   O15   A    
Cu5   O16   S    
C29   C30   A    
C38   C57   S    
C31   C32   A    
C29   H13   S    
C10   H30   S    
Cu1   O20   S    
C17   C18   A    
Cu2   O23   S    
C3    H27   S    
C59   H25   S    
C20   C21   A    
O25   C61   S    
C48   C49   A    
C3    C8    A    
C23   C35   S    
C55   C57   A    
C22   C24   A    
C43   O16   A    
C22   H8    S    
C61   H32   S    
C3    C4    A    
C37   O3    A    
C36   C50   S    
C11   H2    S    
C40   O10   A    
O28   H34   S    
C9    C10   A    
C44   C50   A    
C34   O23   A    
Cu4   O8    S    
C16   O25   S    
C46   C47   A    
S1    O27   D    
C41   O11   A    
Cu1   O22   S    
Cu1   O1    S    
C4    C5    A    
C23   O21   A    
C36   O2    A    
C24   H9    S    
C39   O7    A    
C6    C7    A    
C38   O5    A    
C29   C35   A    
C32   C33   A    
C61   H33   S    
C58   C59   A    
Cu2   O19   S    
C38   O6    A    
C25   C39   S    
Cu3   O24   S    
C11   C13   A    
C30   C31   A    
C13   H3    S    
C33   C35   A    
C56   C58   A    
C20   H7    S    
Cu5   Cu6   S    
Cu6   O13   S    
C9    C15   A    
Cu1   Cu2   S    
C36   O24   A    
Cu5   O14   S    
C5    C15   S    
C7    C8    A    
C10   C11   A    
C1    O12   A    
Cu3   Cu4   S    
Cu4   O4    S    
C4    C37   S    
C49   C50   A    
Cu1   O18   S    
C14   C15   A    
C22   C28   A    
C45   H11   S    
C61   H31   S    
Cu5   O11   S    
C37   O4    A    
C43   O17   A    
C40   O9    A    
C27   C28   A    
