data_mof_unit_60958.cif
_audit_creation_date              2012-12-10T16:58:17-0500
_audit_creation_method            fapswitch 2.2
_symmetry_space_group_name_H-M    P1
_symmetry_Int_Tables_number       1
_space_group_crystal_system       triclinic
_cell_length_a                    21.7558
_cell_length_b                    21.748315
_cell_length_c                    22.125409
_cell_angle_alpha                 60.052211
_cell_angle_beta                  118.678232
_cell_angle_gamma                 90.039334
_cell_volume                      7555.04207599

loop_
_atom_site_label
_atom_site_type_symbol
_atom_type_description
_atom_site_fract_x
_atom_site_fract_y
_atom_site_fract_z
_atom_type_partial_charge
C1    C     C_R   0.618184 0.500360 0.499389 0.781888
C2    C     C_R   0.816069 0.322464 0.717056 -0.138686
C3    C     C_R   0.879887 0.316868 0.717830 -0.161042
C4    C     C_R   0.419749 0.580445 0.339690 0.809516
C5    C     C_R   0.880915 0.371278 0.649249 -0.180335
C6    C     C_R   0.817444 0.433738 0.577202 0.107516
C7    C     C_R   0.751923 0.437575 0.576352 0.096572
C8    C     C_R   0.687137 0.497255 0.504945 -0.079732
C9    C     C_R   0.686843 0.553462 0.436397 -0.208541
C10   C     C_R   0.750369 0.550808 0.436593 -0.199726
C11   C     C_R   0.815965 0.492081 0.505674 -0.110812
C12   C     C_3   0.289678 0.710156 0.082421 0.188167
C13   C     C_3   0.775993 0.176755 0.028500 -0.178072
C14   C     C_3   0.693713 0.223958 0.974240 -0.180502
C15   C     C_1   0.624996 0.374055 0.750120 -0.175186
C16   C     C_R   0.379635 0.501737 0.496659 0.782474
C17   C     C_1   0.876426 0.124410 0.249806 -0.176151
C18   C     C_3   0.790713 0.243578 0.970786 0.142206
C19   C     C_3   0.709446 0.289928 0.917424 0.152599
C20   C     C_3   0.809383 0.273404 0.025851 -0.174964
C21   C     C_3   0.793408 0.207385 0.082472 0.163323
C22   C     C_3   0.726992 0.320242 0.971621 -0.176430
C23   C     C_3   0.192328 0.724677 0.973937 -0.155172
C24   C     C_3   0.711827 0.253669 0.029691 -0.144892
C25   C     C_1   0.662946 0.336025 0.825590 -0.077468
C26   C     C_1   0.839230 0.161778 0.174295 -0.068435
C27   C     C_R   0.252855 0.639234 0.374842 -0.170672
C28   C     C_R   0.579938 0.419580 0.660278 0.813262
C29   C     C_R   0.196354 0.706295 0.324197 -0.141217
C30   C     C_R   0.137661 0.708746 0.333333 -0.137095
C31   C     C_R   0.133787 0.643644 0.391129 -0.172901
C32   C     C_R   0.189071 0.574353 0.441103 0.094775
C33   C     C_R   0.251513 0.572918 0.436028 0.098395
C34   C     C_3   0.206798 0.792306 0.917608 0.188057
C35   C     C_R   0.310237 0.504941 0.491494 -0.097066
C36   C     C_R   0.304747 0.439267 0.546962 -0.200046
C37   C     C_R   0.242512 0.440086 0.549653 -0.200623
C38   C     C_R   0.184527 0.506639 0.497115 -0.105271
C39   C     C_R   0.998185 0.882943 0.496579 0.782824
C40   C     C_3   0.289159 0.748528 0.970828 -0.156270
C41   C     C_R   0.079689 0.919885 0.660301 0.815832
C42   C     C_R   0.001412 0.117187 0.502801 0.783371
C43   C     C_R   0.920323 0.079931 0.339708 0.814017
C44   C     C_R   0.997315 0.619188 0.499606 0.790393
C45   C     C_3   0.207315 0.753928 0.029233 -0.158540
C46   C     C_R   0.881386 0.496225 0.501438 0.782028
C47   C     C_R   0.998221 0.380695 0.500449 0.794486
C48   C     C_R   0.118663 0.502739 0.499275 0.798345
C49   C     C_R   0.862298 0.875892 0.377069 -0.171490
C50   C     C_R   0.796043 0.868860 0.328024 -0.138205
C51   C     C_R   0.793662 0.800707 0.338001 -0.141511
C52   C     C_3   0.304138 0.777792 0.026087 -0.157048
C53   C     C_R   0.858029 0.739925 0.394905 -0.170164
C54   C     C_R   0.926480 0.746466 0.443155 0.098578
C55   C     C_R   0.927851 0.814221 0.437512 0.095877
C56   C     C_3   0.221069 0.822277 0.971473 -0.158776
C57   C     C_R   0.995011 0.818548 0.491631 -0.098896
C58   C     C_R   0.059943 0.758470 0.546067 -0.198021
C59   C     C_R   0.059201 0.693419 0.549017 -0.205557
C60   C     C_R   0.993440 0.686921 0.497926 -0.103157
C61   C     C_R   0.986203 0.122384 0.625042 -0.169738
C62   C     C_R   0.969328 0.128597 0.675483 -0.140514
C63   C     C_R   0.957003 0.196665 0.665571 -0.136724
C64   C     C_1   0.374284 0.626035 0.249783 -0.174329
C65   C     C_R   0.964295 0.257991 0.607406 -0.168306
C66   C     C_R   0.984313 0.252355 0.558007 0.097688
C67   C     C_1   0.336062 0.664120 0.174270 -0.073242
C68   C     C_R   0.991113 0.184800 0.563430 0.096476
C69   C     C_R   0.003459 0.181480 0.507724 -0.096643
C70   C     C_R   0.013605 0.242317 0.451944 -0.199944
C71   C     C_R   0.010216 0.307269 0.449309 -0.200073
C72   C     C_R   0.996182 0.312826 0.502049 -0.103025
C73   C     C_1   0.123658 0.875333 0.750225 -0.174412
C74   C     C_3   0.275385 0.680215 0.028530 -0.155305
C75   C     C_3   0.833414 0.239460 0.934006 -0.431098
C76   C     C_3   0.913703 0.189798 0.002763 -0.333645
C77   C     C_3   0.955782 0.186277 0.965197 -0.859271
C78   C     C_1   0.160964 0.837921 0.825750 -0.072245
C79   C     C_R   0.752626 0.382102 0.647293 -0.166401
Cu1   Cu    Cu3+1 0.500040 0.438210 0.499990 0.953979
Cu2   Cu    Cu3+1 0.499960 0.561790 0.500010 0.952458
Cu3   Cu    Cu3+1 0.061810 0.999860 0.500010 0.951363
Cu4   Cu    Cu3+1 0.938190 0.999990 0.499990 0.950268
Cu5   Cu    Cu3+1 0.958570 0.541460 0.417120 0.939669
Cu6   Cu    Cu3+1 0.041430 0.458560 0.582880 0.938195
H1    H     H_    0.350610 0.799165 0.048486 0.130432
H2    H     H_    0.349505 0.387178 0.589477 0.153926
H3    H     H_    0.322359 0.746766 0.945864 0.132723
H4    H     H_    0.296727 0.639988 0.364557 0.147421
H5    H     H_    0.198423 0.756700 0.278090 0.133505
H6    H     H_    0.094647 0.761242 0.295054 0.135574
H7    H     H_    0.087677 0.648716 0.396751 0.150671
H8    H     H_    0.239242 0.388159 0.592500 0.155808
H9    H     H_    0.111419 0.761521 0.587529 0.155659
H10   H     H_    0.861508 0.930291 0.366062 0.147626
H11   H     H_    0.746218 0.916377 0.282519 0.134325
H12   H     H_    0.929117 0.270001 0.772042 0.130950
H13   H     H_    0.741807 0.795028 0.301037 0.131880
H14   H     H_    0.853076 0.687894 0.401235 0.147911
H15   H     H_    0.198221 0.881196 0.947023 0.130065
H16   H     H_    0.110547 0.648079 0.590838 0.155450
H17   H     H_    0.023121 0.239902 0.409259 0.153911
H18   H     H_    0.996169 0.068123 0.635738 0.146683
H19   H     H_    0.965107 0.080597 0.721858 0.133680
H20   H     H_    0.942189 0.201852 0.703414 0.134953
H21   H     H_    0.952844 0.310056 0.600279 0.132352
H22   H     H_    0.019367 0.353265 0.406394 0.155747
H23   H     H_    0.932491 0.361582 0.655531 0.158360
H24   H     H_    0.174151 0.755666 0.054244 0.130555
H25   H     H_    0.145858 0.703304 0.951536 0.133266
H26   H     H_    0.298212 0.621306 0.052941 0.133715
H27   H     H_    0.636730 0.599244 0.381857 0.140503
H28   H     H_    0.704390 0.384366 0.649880 0.134080
H29   H     H_    0.815586 0.280262 0.770525 0.136714
H30   H     H_    0.929999 0.162526 0.928157 0.248124
H31   H     H_    0.955918 0.243052 0.924004 0.256524
H32   H     H_    0.013754 0.150053 0.016232 0.243603
H33   H     H_    0.941393 0.212404 0.040704 0.219304
H34   H     H_    0.748244 0.595871 0.382386 0.158002
H35   H     H_    0.915458 0.132267 0.044767 0.217914
H36   H     H_    0.805702 0.216667 0.896305 0.194193
H37   H     H_    0.831663 0.296950 0.891920 0.202647
H38   H     H_    0.645653 0.204310 0.952149 0.137268
H39   H     H_    0.796836 0.117508 0.052644 0.127464
H40   H     H_    0.679716 0.257339 0.055099 0.135541
H41   H     H_    0.706184 0.379527 0.947366 0.140164
H42   H     H_    0.857436 0.293103 0.047815 0.128738
O1    O     O_R   0.590210 0.447820 0.500000 -0.583979
O2    O     O_R   0.034940 0.555150 0.570020 -0.577987
O3    O     O_R   0.874830 0.535020 0.430000 -0.590206
O4    O     O_R   0.590150 0.552170 0.500020 -0.580795
O5    O     O_R   0.944810 0.465010 0.569970 -0.603418
O6    O     O_R   0.965060 0.444870 0.429980 -0.578916
O7    O     O_R   0.035040 0.374860 0.569950 -0.593932
O8    O     O_R   0.055190 0.535000 0.430030 -0.587625
O9    O     O_R   0.125170 0.465000 0.570000 -0.581322
O10   O     O_R   0.439580 0.508290 0.379070 -0.575442
O11   O     O_R   0.439510 0.612640 0.379090 -0.590757
O12   O     O_R   0.947780 0.909820 0.499990 -0.585986
O13   O     O_R   0.409850 0.447830 0.499980 -0.582353
O14   O     O_R   0.409790 0.552180 0.500000 -0.587192
O15   O     O_R   0.560490 0.387360 0.620910 -0.586697
O16   O     O_R   0.560420 0.491710 0.620930 -0.573174
O17   O     O_R   0.052170 0.909710 0.500000 -0.583705
O18   O     O_R   0.112650 0.939420 0.620930 -0.577877
O19   O     O_R   0.008260 0.939530 0.620910 -0.585252
O20   O     O_R   0.052220 0.090030 0.500010 -0.583284
O21   O     O_R   0.947830 0.090140 0.500000 -0.585831
O22   O     O_R   0.991740 0.060320 0.379090 -0.580161
O23   O     O_R   0.887350 0.060430 0.379070 -0.584516
O24   O     O_R   0.964960 0.625150 0.430050 -0.598526

loop_
_geom_bond_atom_site_label_1
_geom_bond_atom_site_label_2
_ccdc_geom_bond_type
C66   C68   A    
C21   C26   S    
C63   C65   A    
Cu5   O8    S    
C34   C56   S    
C18   C75   S    
C23   C45   S    
C71   H22   S    
C27   C29   A    
C1    C8    S    
C48   O8    A    
C35   C36   A    
C1    O1    A    
C42   O21   A    
Cu4   O12   S    
Cu3   O20   S    
C15   C28   S    
C7    C8    A    
C54   C60   A    
C53   C54   A    
C27   C33   A    
C12   C74   S    
C37   C38   A    
C13   C18   S    
C79   H28   S    
C34   C40   S    
C17   C26   T    
C40   C52   S    
C36   C37   A    
C61   H18   S    
C77   H32   S    
C69   C70   A    
Cu6   O5    S    
C46   O5    A    
C30   C31   A    
Cu1   Cu2   S    
C45   H24   S    
C22   H41   S    
Cu1   O10   S    
C39   C57   S    
C18   C19   S    
C14   C24   S    
C2    C79   A    
Cu6   O2    S    
C4    O10   A    
C66   C72   A    
C41   O19   A    
C45   C56   S    
C68   C69   A    
C73   C78   T    
C27   H4    S    
C70   C71   A    
C10   H34   S    
C32   C38   A    
C63   H20   S    
C77   H31   S    
C9    C10   A    
C38   C48   S    
C43   O22   A    
Cu6   O7    S    
Cu4   O23   S    
C51   H13   S    
Cu2   O14   S    
C59   C60   A    
C13   C14   S    
C47   O6    A    
C39   O17   A    
C16   O13   A    
C42   O20   A    
C29   H5    S    
C12   C52   S    
C62   H19   S    
C76   C77   S    
C36   H2    S    
Cu2   O11   S    
C12   C67   S    
C39   O12   A    
Cu5   O6    S    
C44   O24   A    
C37   H8    S    
C59   H16   S    
C64   C67   T    
C19   C22   S    
Cu5   Cu6   S    
C20   H42   S    
Cu3   O17   S    
C6    C11   A    
C13   H39   S    
C8    C9    A    
Cu1   O1    S    
C3    C5    A    
C58   C59   A    
Cu1   O13   S    
C41   C73   S    
Cu3   Cu4   S    
C42   C69   S    
C76   H33   S    
C51   C53   A    
C75   C76   S    
C17   C43   S    
C62   C63   A    
Cu4   O19   S    
C3    H12   S    
C31   C32   A    
C29   C30   A    
C23   C34   S    
C50   C51   A    
C13   C21   S    
C28   O16   A    
C76   H35   S    
C49   H10   S    
C43   O23   A    
C20   C22   S    
C31   H7    S    
Cu1   O15   S    
C55   C57   A    
C47   O7    A    
C24   H40   S    
C53   H14   S    
C22   C24   S    
C28   O15   A    
C56   H15   S    
C23   C74   S    
C65   H21   S    
C74   H26   S    
Cu3   O18   S    
C7    C79   A    
C23   H25   S    
C54   C55   A    
C14   H38   S    
C75   H36   S    
C14   C19   S    
C48   O9    A    
C30   H6    S    
C1    O4    A    
C46   O3    A    
C70   H17   S    
C6    C7    A    
C12   C45   S    
C4    C64   S    
C32   C33   A    
C40   H3    S    
C52   H1    S    
C16   O14   A    
C44   O2    A    
C71   C72   A    
C16   C35   S    
C49   C55   A    
C34   C78   S    
C2    H29   S    
C61   C68   A    
C50   H11   S    
C57   C58   A    
C5    C6    A    
C44   C60   S    
Cu5   O3    S    
C33   C35   A    
C40   C74   S    
C2    C3    A    
C18   C20   S    
C65   C66   A    
C58   H9    S    
C61   C62   A    
C19   C25   S    
C75   H37   S    
C47   C72   S    
Cu3   O22   S    
Cu2   O4    S    
C10   C11   A    
Cu6   O9    S    
C4    O11   A    
Cu4   O21   S    
Cu5   O24   S    
C9    H27   S    
Cu2   O16   S    
C41   O18   A    
C20   C21   S    
C15   C25   T    
C49   C50   A    
C21   C24   S    
C11   C46   S    
C77   H30   S    
C52   C56   S    
C5    H23   S    
