data_mof_unit_9424.cif
_audit_creation_date              2012-12-11T16:27:24-0500
_audit_creation_method            fapswitch 2.2
_symmetry_space_group_name_H-M    P1
_symmetry_Int_Tables_number       1
_space_group_crystal_system       monoclinic
_cell_length_a                    21.612882
_cell_length_b                    7.002792
_cell_length_c                    14.909662
_cell_angle_alpha                 90.0
_cell_angle_beta                  106.008247
_cell_angle_gamma                 90.0
_cell_volume                      2169.07922515

loop_
_atom_site_label
_atom_site_type_symbol
_atom_type_description
_atom_site_fract_x
_atom_site_fract_y
_atom_site_fract_z
_atom_type_partial_charge
O1    O     O_R   0.835850 0.638310 0.002120 -0.539786
O2    O     O_R   0.164150 0.361690 0.997880 -0.539598
O3    O     O_R   0.664150 0.138310 0.997880 -0.539786
O4    O     O_R   0.335850 0.861690 0.002120 -0.539598
O5    O     O_R   0.717530 0.306070 0.861970 -0.543472
O6    O     O_R   0.282470 0.693930 0.138030 -0.538960
O7    O     O_R   0.782470 0.806070 0.138030 -0.543472
O8    O     O_R   0.217530 0.193930 0.861970 -0.538960
C1    C     C_R   0.704132 0.476496 0.825341 0.684348
C2    C     C_R   0.295551 0.522864 0.174756 0.683322
C3    C     C_R   0.795868 0.976496 0.174659 0.684348
C4    C     C_R   0.204449 0.022864 0.825244 0.683322
O9    O     O_R   0.838690 0.308440 0.993250 -0.543013
O10   O     O_R   0.161310 0.691560 0.006750 -0.543372
O11   O     O_R   0.661310 0.808440 0.006750 -0.543013
O12   O     O_R   0.338690 0.191560 0.993250 -0.543372
O13   O     O_R   0.786170 0.140510 0.130090 -0.536201
O14   O     O_R   0.213830 0.859490 0.869910 -0.539641
O15   O     O_R   0.713830 0.640510 0.869910 -0.536201
O16   O     O_R   0.286170 0.359490 0.130090 -0.539641
C5    C     C_R   0.864845 0.477468 0.996836 0.701650
C6    C     C_R   0.135056 0.522749 0.002693 0.697700
C7    C     C_R   0.635155 0.977468 0.003164 0.701650
C8    C     C_R   0.364944 0.022749 0.997307 0.697700
O17   O     O_3   0.732630 0.472520 0.044740 -0.371847
O18   O     O_3   0.267370 0.527480 0.955260 -0.370760
O19   O     O_3   0.767370 0.972520 0.955260 -0.371847
O20   O     O_3   0.232630 0.027480 0.044740 -0.370760
V1    V     V_3+5 0.753220 0.196740 0.991700 1.388890
V2    V     V_3+5 0.246780 0.803260 0.008300 1.394950
V3    V     V_3+5 0.746780 0.696740 0.008300 1.388890
V4    V     V_3+5 0.253220 0.303260 0.991700 1.394950
H1    H     H_    0.613669 0.951178 0.322483 0.134332
H2    H     H_    0.385984 0.025006 0.677614 0.140165
H3    H     H_    0.886330 0.451179 0.677517 0.134332
H4    H     H_    0.114016 0.525006 0.322386 0.140165
C9    C     C_R   0.534691 0.007676 0.830297 -0.153139
C10   C     C_R   0.465431 0.993092 0.170274 -0.160667
C11   C     C_R   0.965309 0.507676 0.169703 -0.153139
C12   C     C_R   0.034569 0.493092 0.829726 -0.160667
C13   C     C_R   0.487285 0.015999 0.745421 -0.143743
C14   C     C_R   0.512655 0.976199 0.254982 -0.135531
C15   C     C_R   0.012716 0.515999 0.254579 -0.143743
C16   C     C_R   0.987345 0.476200 0.745017 -0.135531
C17   C     C_R   0.422706 0.019793 0.743749 -0.145032
C18   C     C_R   0.577030 0.961792 0.256443 -0.126457
C19   C     C_R   0.077293 0.519792 0.256251 -0.145032
C20   C     C_R   0.922970 0.461792 0.743557 -0.126457
C21   C     C_R   0.405138 0.017099 0.827032 -0.178355
C22   C     C_R   0.594578 0.961812 0.173155 -0.187903
C23   C     C_R   0.094862 0.517098 0.172968 -0.178356
C24   C     C_R   0.905422 0.461813 0.826845 -0.187903
C25   C     C_R   0.452095 0.014604 0.914193 0.064796
C26   C     C_R   0.547959 0.982067 0.086295 0.062024
C27   C     C_R   0.047905 0.514603 0.085807 0.064796
C28   C     C_R   0.952041 0.482067 0.913705 0.062025
C29   C     C_R   0.518196 0.004927 0.915850 0.060182
C30   C     C_R   0.481957 0.996385 0.084750 0.063400
C31   C     C_R   0.981803 0.504927 0.084150 0.060182
C32   C     C_R   0.018043 0.496386 0.915250 0.063400
C33   C     C_R   0.433947 0.013002 0.998639 -0.181605
C34   C     C_R   0.566198 0.988002 0.001953 -0.183342
C35   C     C_R   0.066053 0.513002 0.001361 -0.181605
C36   C     C_R   0.933801 0.488002 0.998047 -0.183342
H5    H     H_    0.584255 0.001822 0.827954 0.115559
H6    H     H_    0.415985 0.004455 0.172707 0.115793
H7    H     H_    0.915745 0.501822 0.172046 0.115559
H8    H     H_    0.084015 0.504455 0.827293 0.115793
H9    H     H_    0.500690 0.017877 0.680614 0.133435
H10   H     H_    0.499274 0.975273 0.319812 0.132049
H11   H     H_    0.999310 0.517876 0.319386 0.133435
H12   H     H_    0.000726 0.475273 0.680188 0.132049
H13   H     H_    0.354458 0.018643 0.822727 0.085645
H14   H     H_    0.645116 0.950324 0.177418 0.089005
H15   H     H_    0.145542 0.518643 0.177272 0.085645
H16   H     H_    0.854884 0.450325 0.822582 0.089006
C37   C     C_R   0.176657 0.012214 0.724059 -0.029328
C38   C     C_R   0.824152 0.980250 0.275784 -0.028573
C39   C     C_R   0.323343 0.512214 0.275941 -0.029328
C40   C     C_R   0.675848 0.480250 0.724216 -0.028573
C41   C     C_R   0.190519 0.999999 0.569180 -0.122721
C42   C     C_R   0.811676 0.937098 0.430217 -0.126547
C43   C     C_R   0.309481 0.499999 0.430820 -0.122721
C44   C     C_R   0.688324 0.437097 0.569783 -0.126547
C45   C     C_R   0.216589 0.016650 0.665035 -0.194952
C46   C     C_R   0.784759 0.955196 0.334687 -0.190992
C47   C     C_R   0.283411 0.516651 0.334965 -0.194951
C48   C     C_R   0.715241 0.455195 0.665313 -0.190991
C49   C     C_R   0.110055 0.992112 0.686863 -0.193736
C50   C     C_R   0.891160 0.985676 0.312732 -0.195561
C51   C     C_R   0.389945 0.492112 0.313136 -0.193736
C52   C     C_R   0.608840 0.485677 0.687268 -0.195561
C53   C     C_R   0.082034 0.973760 0.589287 0.047997
C54   C     C_R   0.920166 0.961090 0.409752 0.047797
C55   C     C_R   0.417966 0.473761 0.410713 0.047997
C56   C     C_R   0.579834 0.461090 0.590247 0.047797
C57   C     C_R   0.123636 0.979554 0.530262 0.054157
C58   C     C_R   0.878921 0.939341 0.468686 0.052131
C59   C     C_R   0.376364 0.479555 0.469738 0.054157
C60   C     C_R   0.621079 0.439341 0.531314 0.052131
C61   C     C_R   0.014211 0.953919 0.548751 -0.001489
C62   C     C_R   0.988445 0.958822 0.449908 -0.000237
C63   C     C_R   0.485789 0.453919 0.451249 -0.001489
C64   C     C_R   0.511555 0.458822 0.550092 -0.000237
C65   C     C_R   0.031697 0.952701 0.394310 -0.279617
C66   C     C_R   0.971631 0.922338 0.603866 -0.277238
C67   C     C_R   0.468303 0.452702 0.605690 -0.279617
C68   C     C_R   0.528369 0.422338 0.396134 -0.277238
C69   C     C_R   0.098564 0.965185 0.433244 0.378333
C70   C     C_R   0.904784 0.918046 0.565141 0.378571
C71   C     C_R   0.401436 0.465185 0.566756 0.378333
C72   C     C_R   0.595216 0.418046 0.434859 0.378571
H17   H     H_    0.919113 0.008740 0.263907 0.100265
H18   H     H_    0.081488 0.996405 0.735813 0.099369
H19   H     H_    0.580887 0.508742 0.736092 0.100265
H20   H     H_    0.418512 0.496405 0.264187 0.099369
H21   H     H_    0.733078 0.947589 0.306779 0.097174
H22   H     H_    0.268022 0.032671 0.692924 0.101832
H23   H     H_    0.766922 0.447587 0.693221 0.097174
H24   H     H_    0.231978 0.532671 0.307076 0.101832
H25   H     H_    0.223144 0.005044 0.525584 0.161482
H26   H     H_    0.779385 0.919466 0.473763 0.159038
H27   H     H_    0.276856 0.505044 0.474415 0.161482
H28   H     H_    0.720615 0.419464 0.526237 0.159038
H29   H     H_    0.014851 0.929471 0.320222 0.137997
H30   H     H_    0.989017 0.892651 0.677413 0.140151
H31   H     H_    0.485149 0.429471 0.679778 0.137997
H32   H     H_    0.510983 0.392652 0.322587 0.140151
O21   O     O_3   0.141003 0.942308 0.378864 -0.579320
C73   C     C_3   0.127967 0.069078 0.301959 0.045099
H33   H     H_    0.170857 0.161622 0.309353 0.142639
H34   H     H_    0.085986 0.163922 0.296508 0.128995
C74   C     C_3   0.116523 0.952196 0.212821 -0.320406
H35   H     H_    0.157923 0.854143 0.219269 0.213627
H36   H     H_    0.071203 0.871904 0.203725 0.213797
C75   C     C_3   0.108254 0.072733 0.126088 -0.751793
H37   H     H_    0.061389 0.147397 0.110553 0.225413
H38   H     H_    0.107307 0.979618 0.065615 0.241127
H39   H     H_    0.148780 0.174647 0.136188 0.241805
O22   O     O_3   0.864085 0.873264 0.619664 -0.576782
C76   C     C_3   0.870196 0.005155 0.693547 0.042784
H40   H     H_    0.824620 0.087487 0.680693 0.137177
H41   H     H_    0.910168 0.108636 0.701347 0.125643
C77   C     C_3   0.881327 0.893975 0.784164 -0.323478
H42   H     H_    0.841319 0.790496 0.777161 0.211874
H43   H     H_    0.928168 0.820007 0.796897 0.218327
C78   C     C_3   0.885142 0.019682 0.868030 -0.747990
H44   H     H_    0.930471 0.102749 0.884758 0.225024
H45   H     H_    0.886173 0.929332 0.929504 0.241046
H46   H     H_    0.842556 0.114724 0.853519 0.245264
O23   O     O_3   0.358998 0.442309 0.621136 -0.579320
C79   C     C_3   0.372033 0.569079 0.698040 0.045099
H47   H     H_    0.329143 0.661622 0.690646 0.142639
H48   H     H_    0.414014 0.663923 0.703492 0.128995
C80   C     C_3   0.383477 0.452196 0.787179 -0.320407
H49   H     H_    0.342077 0.354144 0.780731 0.213627
H50   H     H_    0.428797 0.371904 0.796276 0.213798
C81   C     C_3   0.391745 0.572734 0.873912 -0.751792
H51   H     H_    0.438611 0.647398 0.889447 0.225413
H52   H     H_    0.392693 0.479619 0.934385 0.241128
H53   H     H_    0.351219 0.674647 0.863811 0.241805
O24   O     O_3   0.635915 0.373263 0.380336 -0.576782
C82   C     C_3   0.629804 0.505155 0.306453 0.042783
H54   H     H_    0.675380 0.587486 0.319307 0.137178
H55   H     H_    0.589832 0.608636 0.298653 0.125643
C83   C     C_3   0.618673 0.393975 0.215836 -0.323477
H56   H     H_    0.658681 0.290496 0.222839 0.211874
H57   H     H_    0.571832 0.320007 0.203103 0.218327
C84   C     C_3   0.614858 0.519682 0.131970 -0.747991
H58   H     H_    0.569529 0.602749 0.115242 0.225024
H59   H     H_    0.613827 0.429331 0.070496 0.241046
H60   H     H_    0.657443 0.614724 0.146481 0.245264

loop_
_geom_bond_atom_site_label_1
_geom_bond_atom_site_label_2
_ccdc_geom_bond_type
O17   V3    S    
C43   C47   A    
O1    C5    A    
C61   C62   A    
C12   C32   A    
C27   C31   A    
O19   V1    S    
O13   V1    S    
C84   H58   S    
O3    C7    A    
C78   H44   S    
C52   C56   A    
O15   V3    S    
C39   C47   A    
C74   H35   S    
C29   C34   A    
C38   C50   A    
O7    C3    A    
C37   C49   A    
C31   C36   A    
C8    C33   S    
C62   C65   A    
C32   C35   A    
C58   C70   A    
O9    V1    S    
C78   H45   S    
C23   H15   S    
C10   C14   A    
C76   H41   S    
C66   C70   A    
O4    C8    A    
C55   C59   A    
C80   H50   S    
C54   C58   A    
O1    V3    S    
C51   H20   S    
H4    C19   S    
O2    V4    S    
C14   C18   A    
C50   H17   S    
O3    V1    S    
C5    C36   S    
C81   H53   S    
C6    C35   S    
C10   C30   A    
C25   C33   A    
C1    O15   A    
C7    C34   S    
C10   H6    S    
C2    O16   A    
O20   V2    S    
C27   C35   A    
O2    C6    A    
C74   C75   S    
O23   C79   S    
C28   C36   A    
C63   C68   A    
O14   V2    S    
C12   C16   A    
C39   C51   A    
C38   C46   A    
C30   C33   A    
O11   C7    A    
C11   C31   A    
O12   C8    A    
C43   C59   A    
C80   C81   S    
C83   H57   S    
H1    C18   S    
C42   C58   A    
C67   C71   A    
O10   V2    S    
C77   C78   S    
H3    C20   S    
C55   C63   A    
C18   C22   A    
C50   C54   A    
O5    V1    S    
O17   V1    S    
O7    V3    S    
O19   V3    S    
O8    V4    S    
O20   V4    S    
C82   C83   S    
O22   C76   S    
C77   H43   S    
C76   C77   S    
C53   C61   A    
C25   C29   A    
O18   V4    S    
C77   H42   S    
C19   C23   A    
C26   C34   A    
C42   C46   A    
C51   C55   A    
O4    V2    S    
C68   C72   A    
C41   H25   S    
C1    C40   S    
C75   H39   S    
C40   C52   A    
C73   H34   S    
C14   H10   S    
O5    C1    A    
C3    C38   S    
C57   C69   A    
C79   C80   S    
C17   C21   A    
O8    C4    A    
C59   C71   A    
C4    C37   S    
C78   H46   S    
C26   C30   A    
O9    C5    A    
H2    C17   S    
C22   C26   A    
C68   H32   S    
C48   H23   S    
O18   V2    S    
C9    H5    S    
O6    V2    S    
C79   H48   S    
C60   C72   A    
C56   C64   A    
C69   O21   S    
C83   H56   S    
C84   H60   S    
C21   H13   S    
C73   C74   S    
O12   V4    S    
C53   C57   A    
C80   H49   S    
C75   H38   S    
C13   H9    S    
O24   C82   S    
O16   V4    S    
C61   C66   A    
C65   C69   A    
C49   H18   S    
C3    O13   A    
C15   H11   S    
C82   H55   S    
C11   H7    S    
C44   C48   A    
C75   H37   S    
C24   H16   S    
C71   O23   S    
O6    C2    A    
C44   C60   A    
C11   C15   A    
C2    C39   S    
O11   V3    S    
C44   H28   S    
C72   O24   S    
C66   H30   S    
C65   H29   S    
C9    C13   A    
O10   C6    A    
C22   H14   S    
C73   H33   S    
O21   C73   S    
C67   H31   S    
C47   H24   S    
C40   C48   A    
C16   C20   A    
C76   H40   S    
C81   H52   S    
C81   H51   S    
C41   C57   A    
C21   C25   A    
C56   C60   A    
C70   O22   S    
C16   H12   S    
C46   H21   S    
C23   C27   A    
C49   C53   A    
C45   H22   S    
C52   H19   S    
C9    C29   A    
C82   H54   S    
C37   C45   A    
C28   C32   A    
C20   C24   A    
C79   H47   S    
C54   C62   A    
C83   C84   S    
C12   H8    S    
C4    O14   A    
C63   C64   A    
C74   H36   S    
C13   C17   A    
C43   H27   S    
C15   C19   A    
C42   H26   S    
C64   C67   A    
C41   C45   A    
C24   C28   A    
C84   H59   S    
