data_mof_unit_9704.cif
_audit_creation_date              2013-03-05T15:41:32-0500
_audit_creation_method            fapswitch 2.2
_symmetry_space_group_name_H-M    P1
_symmetry_Int_Tables_number       1
_space_group_crystal_system       triclinic
_cell_length_a                    15.876512
_cell_length_b                    8.798027
_cell_length_c                    7.441454
_cell_angle_alpha                 103.021531
_cell_angle_beta                  93.994473
_cell_angle_gamma                 92.561165
_cell_volume                      1008.29680925

loop_
_atom_site_label
_atom_site_type_symbol
_atom_site_description
_atom_site_fract_x
_atom_site_fract_y
_atom_site_fract_z
_atom_type_partial_charge
O1    O     O_R   0.506070 0.286130 0.619780 -0.576579
O2    O     O_R   0.493930 0.713870 0.380220 -0.576579
O3    O     O_R   0.490300 0.256770 0.308360 -0.515205
O4    O     O_R   0.509700 0.743230 0.691640 -0.515205
C1    C     C_R   0.497887 0.200469 0.453781 0.817255
C2    C     C_R   0.502113 0.799531 0.546219 0.817254
O5    O     O_R   0.386960 0.514660 0.655680 -0.585879
O6    O     O_R   0.613040 0.485340 0.344320 -0.585880
O7    O     O_R   0.371190 0.485310 0.344260 -0.561931
O8    O     O_R   0.628810 0.514690 0.655740 -0.561931
C3    C     C_R   0.340106 0.499618 0.502515 0.810938
C4    C     C_R   0.659894 0.500382 0.497485 0.810938
Cu1   Cu    Cu3+1 0.509330 0.517380 0.684380 1.099139
Cu2   Cu    Cu3+1 0.490670 0.482620 0.315620 1.099139
C5    C     C_2   0.497870 0.033968 0.426891 0.034611
C6    C     C_2   0.502130 0.966032 0.573110 0.034611
C7    C     C_3   0.970012 0.375776 0.552541 0.263659
C8    C     C_3   0.029988 0.624224 0.447459 0.263659
C9    C     C_3   0.021239 0.372358 0.385173 0.258040
C10   C     C_3   0.978760 0.627641 0.614827 0.258040
H1    H     H_    0.941071 0.494572 0.181358 0.219544
H2    H     H_    0.058929 0.505428 0.818642 0.219544
C11   C     C_1   0.250980 0.499655 0.507544 -0.054320
C12   C     C_1   0.749020 0.500345 0.492455 -0.054319
C13   C     C_3   0.033065 0.503010 0.675423 -0.337185
C14   C     C_3   0.966935 0.496990 0.324577 -0.337185
C15   C     C_3   0.084225 0.499519 0.504041 -0.107171
C16   C     C_3   0.915775 0.500481 0.495959 -0.107171
N1    N     N_2   0.476600 0.456420 0.038510 -0.173361
N2    N     N_2   0.523400 0.543580 0.961490 -0.173361
C17   C     C_1   0.175667 0.499489 0.507578 0.167993
C18   C     C_1   0.824333 0.500511 0.492422 0.167993
H3    H     H_    0.432546 0.381963 0.949188 0.260531
H4    H     H_    0.567454 0.618036 0.050812 0.260531
N3    N     N_R   0.041795 0.229058 0.259141 0.188031
O9    O     O_R   0.981285 0.134783 0.162712 -0.197271
O10   O     O_R   0.120090 0.195732 0.239772 -0.275408
N4    N     N_R   0.958205 0.770942 0.740859 0.188032
O11   O     O_R   0.018715 0.865217 0.837288 -0.197271
O12   O     O_R   0.879909 0.804268 0.760228 -0.275408
N5    N     N_R   0.939500 0.236219 0.608675 0.180694
O13   O     O_R   0.993413 0.143580 0.658641 -0.208152
O14   O     O_R   0.858939 0.204930 0.612789 -0.291991
N6    N     N_R   0.060500 0.763781 0.391325 0.180694
O15   O     O_R   0.006587 0.856420 0.341359 -0.208152
O16   O     O_R   0.141061 0.795070 0.387211 -0.291991
N7    N     N_R   0.493479 0.945473 0.238643 0.147225
O17   O     O_R   0.420281 0.894911 0.150773 -0.270592
O18   O     O_R   0.561033 0.935878 0.148425 -0.292615
N8    N     N_R   0.506521 0.054527 0.761357 0.147225
O19   O     O_R   0.579719 0.105090 0.849227 -0.270593
O20   O     O_R   0.438967 0.064121 0.851575 -0.292615

loop_
_geom_bond_atom_site_label_1
_geom_bond_atom_site_label_2
_geom_bond_distance
_ccdc_geom_bond_type
N8    O20   1.300390 A    
O7    Cu2   1.924153 S    
C12   C18   1.195665 T    
N1    N2    1.294246 D    
C8    N6    1.456997 S    
C13   C15   1.554363 S    
C10   N4    1.456769 S    
N5    O13   1.299911 A    
C4    C12   1.418117 S    
C14   C16   1.554363 S    
N3    O9    1.300122 A    
C8    C14   1.549976 S    
O5    Cu1   1.938151 S    
O6    C4    1.294234 A    
C7    C13   1.549976 S    
N8    O19   1.301094 A    
N7    O18   1.300391 A    
C9    N3    1.456769 S    
Cu1   Cu2   2.685499 S    
O5    C3    1.294235 A    
O7    C3    1.290725 A    
O2    C2    1.288460 A    
O3    Cu2   1.975296 S    
O8    C4    1.290725 A    
O1    C1    1.288459 A    
C3    C11   1.418117 S    
N4    O12   1.300169 A    
H1    C14   1.110381 S    
N6    O16   1.300167 A    
C8    C10   1.529707 S    
N4    O11   1.300122 A    
O2    Cu2   1.979779 S    
C7    N5    1.456997 S    
C1    C5    1.433096 S    
O1    Cu1   1.979779 S    
C10   C13   1.549883 S    
N2    H4    1.028679 S    
Cu2   N1    2.017997 S    
C15   C17   1.450192 S    
C5    C6    1.353582 D    
N1    H3    1.028678 S    
Cu1   N2    2.017998 S    
C16   C18   1.450192 S    
C9    C15   1.537815 S    
N6    O15   1.299911 A    
N3    O10   1.300169 A    
O4    C2    1.288270 A    
O4    Cu1   1.975296 S    
C9    C14   1.549883 S    
C5    N7    1.436471 S    
C8    C15   1.537737 S    
O6    Cu2   1.938151 S    
C10   C16   1.537815 S    
C7    C9    1.529707 S    
C7    C16   1.537737 S    
C2    C6    1.433096 S    
H2    C13   1.110381 S    
N5    O14   1.300167 A    
N7    O17   1.301094 A    
C6    N8    1.436470 S    
O3    C1    1.288271 A    
O8    Cu1   1.924153 S    
C11   C17   1.195665 T    
