data_mof_unit_58831.cif
_audit_creation_date              2012-12-10T16:37:40-0500
_audit_creation_method            fapswitch 2.2
_symmetry_space_group_name_H-M    P1
_symmetry_Int_Tables_number       1
_space_group_crystal_system       triclinic
_cell_length_a                    10.858174
_cell_length_b                    10.875704
_cell_length_c                    15.4307
_cell_angle_alpha                 96.692378
_cell_angle_beta                  75.09134
_cell_angle_gamma                 98.049174
_cell_volume                      1737.34348368

loop_
_atom_site_label
_atom_site_type_symbol
_atom_type_description
_atom_site_fract_x
_atom_site_fract_y
_atom_site_fract_z
_atom_type_partial_charge
C1    C     C_R   0.159016 0.479680 0.519267 0.501779
C2    C     C_R   0.520791 0.486877 0.116450 -0.166278
C3    C     C_R   0.643027 0.317727 0.116184 0.265434
C4    C     C_R   0.841648 0.521313 0.481324 0.521272
C5    C     C_R   0.401646 0.558997 0.843291 -0.039474
C6    C     C_2   0.977098 0.531952 0.478851 -0.110683
C7    C     C_2   0.023467 0.467308 0.530234 0.089513
C8    C     C_2   0.536434 0.966907 0.473631 0.071736
C9    C     C_2   0.452785 0.036862 0.531731 0.287282
C10   C     C_R   0.469045 0.168333 0.520356 0.500267
C11   C     C_R   0.528598 0.833573 0.480615 0.548936
C12   C     C_R   0.299497 0.672076 0.983463 0.271904
C13   C     C_R   0.556314 0.443430 0.258712 0.531592
C14   C     C_R   0.439899 0.548688 0.742904 0.518959
C15   C     C_R   0.637217 0.277911 0.027148 0.129023
C16   C     C_R   0.577704 0.417613 0.161645 -0.008009
C17   C     C_R   0.320378 0.648730 0.890046 0.220625
C18   C     C_3   0.832939 0.325752 0.155368 0.001138
C19   C     C_3   0.922784 0.242192 0.174088 -0.341153
C20   C     C_3   0.291777 0.071697 0.664294 0.001792
C21   C     C_3   0.194384 0.004453 0.738023 -0.344724
C22   C     C_3   0.135320 0.636635 0.845856 0.016714
C23   C     C_R   0.351054 0.600844 0.032297 0.238137
C24   C     C_3   0.060540 0.699259 0.796165 -0.345698
C25   C     C_3   0.205296 0.519153 0.151108 -0.003607
C26   C     C_3   0.155110 0.534229 0.252619 -0.354764
C27   C     C_3   0.282814 0.876758 0.027115 0.032751
C28   C     C_3   0.191690 0.970491 0.076631 -0.355572
C29   C     C_R   0.434350 0.510357 0.986813 -0.025840
C30   C     C_R   0.444065 0.479709 0.893859 -0.090412
C31   C     C_R   0.503355 0.444678 0.030416 -0.013995
C32   C     C_R   0.558845 0.335003 0.985829 0.008381
C33   C     C_R   0.531896 0.287941 0.902494 0.111054
C34   C     C_R   0.480946 0.362433 0.856558 -0.071482
H1    H     H_    0.490585 0.573474 0.151008 0.193193
H2    H     H_    0.361441 0.133606 0.696145 0.150442
H3    H     H_    0.243192 0.945912 0.770091 0.209458
H4    H     H_    0.146353 0.073436 0.790077 0.117956
H5    H     H_    0.120758 0.944680 0.709026 0.165481
H6    H     H_    0.076025 0.626603 0.915814 0.153639
H7    H     H_    0.150257 0.542170 0.811089 0.128728
H8    H     H_    0.118051 0.713104 0.726546 0.193373
H9    H     H_    0.969670 0.639783 0.792936 0.127267
H10   H     H_    0.037198 0.790736 0.832220 0.154962
H11   H     H_    0.238048 0.424913 0.132287 0.127788
H12   H     H_    0.457907 0.321087 0.794772 0.155633
H13   H     H_    0.124918 0.526189 0.119896 0.145669
H14   H     H_    0.120882 0.627307 0.273213 0.176362
H15   H     H_    0.074078 0.461266 0.274569 0.099920
H16   H     H_    0.232532 0.525475 0.285860 0.160594
H17   H     H_    0.321544 0.902331 0.956651 0.186391
H18   H     H_    0.363075 0.883425 0.060854 0.167304
H19   H     H_    0.152147 0.948841 0.147758 0.178419
H20   H     H_    0.243885 0.065974 0.075261 0.111865
H21   H     H_    0.111428 0.967158 0.043680 0.167223
H22   H     H_    0.042046 0.595503 0.433934 0.074732
H23   H     H_    0.824466 0.406306 0.207109 0.147132
H24   H     H_    0.877783 0.361060 0.087976 0.130289
H25   H     H_    0.923497 0.154817 0.128900 0.194950
H26   H     H_    0.021796 0.290627 0.161979 0.069406
H27   H     H_    0.891389 0.219048 0.245137 0.185164
H28   H     H_    0.239603 0.128187 0.632984 0.141135
I1    I     I_    0.923116 0.334328 0.623401 -0.272723
I2    I     I_    0.686626 0.044492 0.368357 -0.296262
I3    I     I_    0.527239 0.098480 0.847479 -0.363911
I4    I     I_    0.773275 0.152871 0.957340 -0.320957
O1    O     O_3   0.500000 0.500000 0.500000 -0.463638
O2    O     O_R   0.463530 0.379110 0.309170 -0.519597
O3    O     O_R   0.388210 0.611730 0.699360 -0.489658
O4    O     O_R   0.624720 0.532760 0.292120 -0.549849
O5    O     O_R   0.523540 0.476390 0.699360 -0.548171
O6    O     O_3   0.711291 0.256715 0.159022 -0.517139
O7    O     O_3   0.354754 0.983025 0.599641 -0.540142
O8    O     O_3   0.253976 0.709649 0.845875 -0.524981
O9    O     O_3   0.307282 0.613623 0.124847 -0.551664
O10   O     O_3   0.215504 0.755900 0.029255 -0.534915
O11   O     O_R   0.537910 0.240570 0.564270 -0.535947
O12   O     O_R   0.438950 0.782540 0.540270 -0.481573
O13   O     O_R   0.222350 0.398740 0.468260 -0.536831
O14   O     O_R   0.800790 0.578160 0.427210 -0.542548
O15   O     O_R   0.212140 0.566330 0.564260 -0.553716
O16   O     O_R   0.764730 0.456770 0.540270 -0.491795
O17   O     O_R   0.412790 0.208310 0.468260 -0.531517
O18   O     O_R   0.610350 0.768590 0.427210 -0.522387
Zn1   Zn    Zn3+2 0.580150 0.419820 0.574680 0.976434
Zn2   Zn    Zn3+2 0.401380 0.373730 0.437510 0.962365
Zn3   Zn    Zn3+2 0.631680 0.593260 0.413140 0.965465
Zn4   Zn    Zn3+2 0.386790 0.613180 0.574670 0.974580

loop_
_geom_bond_atom_site_label_1
_geom_bond_atom_site_label_2
_ccdc_geom_bond_type
C2    H1    S    
C24   H8    S    
C14   O5    A    
O18   Zn3   S    
C33   I3    S    
C15   C32   A    
C12   C23   A    
O1    Zn4   S    
C23   C29   A    
C28   H21   S    
C4    O14   A    
O14   Zn3   S    
C26   H16   S    
C22   H7    S    
C5    C17   A    
C13   O4    A    
C1    O15   A    
C10   O17   A    
O2    Zn2   S    
C18   C19   S    
O5    Zn1   S    
C18   H24   S    
C21   H4    S    
C8    C9    D    
C12   C17   A    
C34   H12   S    
C2    C16   A    
C9    C10   S    
C25   H13   S    
C26   H14   S    
O11   Zn1   S    
C9    O7    S    
O4    Zn3   S    
C10   O11   A    
C27   H17   S    
C18   O6    S    
O1    Zn1   S    
C30   C34   A    
C4    C6    S    
C26   H15   S    
C6    H22   S    
C28   H20   S    
C19   H25   S    
C25   C26   S    
C15   I4    S    
C2    C31   A    
C25   O9    S    
C29   C30   A    
C11   O12   A    
C18   H23   S    
C31   C32   A    
C21   H5    S    
C22   H6    S    
C33   C34   A    
C21   H3    S    
C7    I1    S    
C5    C14   S    
O3    Zn4   S    
C8    I2    S    
C12   O10   S    
C17   O8    S    
C24   H10   S    
C14   O3    A    
C22   C24   S    
C22   O8    S    
C27   O10   S    
C25   H11   S    
C3    C15   A    
C27   H18   S    
C5    C30   A    
O12   Zn4   S    
O1    Zn2   S    
C1    C7    S    
C23   O9    S    
C28   H19   S    
C6    C7    D    
C11   O18   A    
O16   Zn1   S    
O1    Zn3   S    
C32   C33   A    
C3    O6    S    
C29   C31   A    
C19   H27   S    
C8    C11   S    
C1    O13   A    
C20   O7    S    
C20   H28   S    
O15   Zn4   S    
C20   H2    S    
O17   Zn2   S    
C4    O16   A    
C20   C21   S    
C13   C16   S    
C27   C28   S    
C24   H9    S    
C19   H26   S    
O13   Zn2   S    
C3    C16   A    
C13   O2    A    
