data_mof_unit_32168.cif
_audit_creation_date              2012-12-10T16:48:42-0500
_audit_creation_method            fapswitch 2.2
_symmetry_space_group_name_H-M    P1
_symmetry_Int_Tables_number       1
_space_group_crystal_system       triclinic
_cell_length_a                    7.735903
_cell_length_b                    8.672722
_cell_length_c                    10.464478
_cell_angle_alpha                 88.948068
_cell_angle_beta                  97.423117
_cell_angle_gamma                 93.708423
_cell_volume                      694.698561348

loop_
_atom_site_label
_atom_site_type_symbol
_atom_type_description
_atom_site_fract_x
_atom_site_fract_y
_atom_site_fract_z
_atom_type_partial_charge
C1    C     C_R   0.547077 0.794301 0.507603 0.939119
C2    C     C_R   0.458491 0.206043 0.515513 0.965769
C3    C     C_R   0.571397 0.501454 0.738015 0.909635
C4    C     C_R   0.431728 0.514255 0.262135 0.935658
C5    C     C_2   0.609722 0.525870 0.876711 -0.003790
C6    C     C_2   0.405013 0.545929 0.123938 -0.010231
C7    C     C_2   0.529640 0.638602 0.931512 0.220341
C8    C     C_2   0.526675 0.638525 0.070869 0.208025
C9    C     C_2   0.576308 0.955251 0.535886 -0.041236
C10   C     C_2   0.435856 0.043821 0.537718 -0.025971
H1    H     H_    0.986069 0.382617 0.407039 0.192571
H2    H     H_    0.013965 0.617433 0.592949 0.187710
N1    N     N_2   0.940600 0.458860 0.467170 -0.170823
N2    N     N_2   0.059400 0.541140 0.532830 -0.170939
O1    O     O_R   0.391630 0.738350 0.508060 -0.621748
O2    O     O_R   0.608370 0.261650 0.491940 -0.617730
O3    O     O_R   0.674540 0.711990 0.487010 -0.623444
O4    O     O_R   0.325460 0.288010 0.512990 -0.624343
O5    O     O_R   0.411370 0.508250 0.688780 -0.617372
O6    O     O_R   0.588630 0.491750 0.311220 -0.613094
O7    O     O_R   0.694270 0.481880 0.667740 -0.620212
O8    O     O_R   0.305730 0.518120 0.332260 -0.610688
Zn1   Zn    Zn3+2 0.311100 0.517600 0.514050 0.918586
Zn2   Zn    Zn3+2 0.688900 0.482400 0.485950 0.919176
C11   C     C_3   0.663279 0.743837 0.148724 -0.886619
H3    H     H_    0.724897 0.828764 0.084903 0.234835
H4    H     H_    0.602138 0.809819 0.219038 0.227063
H5    H     H_    0.769007 0.676515 0.199487 0.263390
C12   C     C_3   0.436530 0.765302 0.855438 -0.923058
H6    H     H_    0.408618 0.858257 0.920098 0.241674
H7    H     H_    0.519832 0.818167 0.785643 0.231824
H8    H     H_    0.309449 0.718897 0.805088 0.252358
C13   C     C_3   0.251248 0.464601 0.043015 -0.961474
H9    H     H_    0.167812 0.394743 0.104084 0.243705
H10   H     H_    0.170168 0.551148 0.988745 0.261282
H11   H     H_    0.297356 0.385678 0.974082 0.257561
C14   C     C_3   0.726115 0.417024 0.956208 -0.963377
H12   H     H_    0.779771 0.334442 0.894027 0.247480
H13   H     H_    0.837123 0.484030 0.011763 0.261940
H14   H     H_    0.651064 0.349247 0.023972 0.254554
C15   C     C_3   0.766426 0.013773 0.570445 -0.892657
H15   H     H_    0.848616 0.919655 0.610804 0.232527
H16   H     H_    0.820640 0.060848 0.483485 0.261497
H17   H     H_    0.779376 0.101827 0.647461 0.253195
C16   C     C_3   0.248533 0.983528 0.553427 -0.880765
H18   H     H_    0.165099 0.074447 0.579102 0.245576
H19   H     H_    0.182366 0.931474 0.462340 0.258869
H20   H     H_    0.248038 0.900277 0.634856 0.253648

loop_
_geom_bond_atom_site_label_1
_geom_bond_atom_site_label_2
_ccdc_geom_bond_type
N2    Zn1   S    
O5    Zn1   S    
C3    O5    A    
C14   H12   S    
C1    O1    A    
C5    C14   S    
C11   H4    S    
C2    O2    A    
C15   H15   S    
C15   H16   S    
C1    O3    A    
C6    C13   S    
C12   H7    S    
C10   C16   S    
O1    Zn1   S    
C13   H9    S    
C7    C8    S    
O2    Zn2   S    
N1    N2    D    
C11   H5    S    
C8    C11   S    
H1    N1    S    
C12   H6    S    
C7    C12   S    
C4    C6    S    
C13   H10   S    
H2    N2    S    
C12   H8    S    
C16   H19   S    
C15   H17   S    
C3    O7    A    
O3    Zn2   S    
C2    O4    A    
O7    Zn2   S    
O4    Zn1   S    
C2    C10   S    
C13   H11   S    
C1    C9    S    
C14   H13   S    
C9    C10   D    
C16   H20   S    
C5    C7    D    
C14   H14   S    
C4    O8    A    
O8    Zn1   S    
C6    C8    D    
C11   H3    S    
C16   H18   S    
C9    C15   S    
O6    Zn2   S    
N1    Zn2   S    
C3    C5    S    
C4    O6    A    
