data_mof_unit_58487.cif
_audit_creation_date              2012-12-10T17:13:35-0500
_audit_creation_method            fapswitch 2.2
_symmetry_space_group_name_H-M    P1
_symmetry_Int_Tables_number       1
_space_group_crystal_system       triclinic
_cell_length_a                    10.748222
_cell_length_b                    12.998997
_cell_length_c                    11.654212
_cell_angle_alpha                 100.055998
_cell_angle_beta                  93.571268
_cell_angle_gamma                 91.025296
_cell_volume                      1599.46747312

loop_
_atom_site_label
_atom_site_type_symbol
_atom_type_description
_atom_site_fract_x
_atom_site_fract_y
_atom_site_fract_z
_atom_type_partial_charge
C1    C     C_R   0.501814 0.299121 0.478350 0.820414
C2    C     C_3   0.877657 0.499649 0.498664 0.144829
C3    C     C_3   0.935843 0.603634 0.569143 -0.384811
C4    C     C_3   0.919625 0.485579 0.371925 -0.382021
C5    C     C_R   0.496395 0.815571 0.536630 -0.107928
C6    C     C_R   0.509100 0.186009 0.465926 -0.038952
C7    C     C_R   0.513828 0.014502 0.345520 -0.221268
C8    C     C_R   0.511110 0.122708 0.355385 -0.195385
C9    C     C_R   0.512820 0.140734 0.566304 -0.257429
C10   C     C_R   0.510040 0.032875 0.556774 0.151795
C11   C     C_R   0.511248 0.969112 0.445884 0.173020
C12   C     C_R   0.259578 0.498138 0.500107 0.769187
C13   C     C_R   0.507391 0.861158 0.436941 -0.298784
C14   C     C_R   0.487437 0.880428 0.647525 -0.005531
C15   C     C_R   0.499158 0.988540 0.656401 -0.277262
C16   C     C_R   0.371892 0.410567 0.022757 -0.352874
C17   C     C_R   0.385461 0.417911 0.144789 0.081753
C18   C     C_R   0.556876 0.537307 0.156512 0.011667
C19   C     C_R   0.547084 0.532025 0.033804 0.063713
C20   C     C_R   0.452961 0.468040 0.966204 0.067894
C21   C     C_R   0.442882 0.463066 0.843569 0.017824
C22   C     C_R   0.615116 0.581489 0.855079 0.119283
C23   C     C_R   0.498256 0.701240 0.522103 0.799535
C24   C     C_R   0.628651 0.588931 0.977119 -0.346761
C25   C     C_R   0.740190 0.500863 0.499491 0.764057
C26   C     C_3   0.070420 0.408139 0.561466 -0.124702
C27   C     C_3   0.926082 0.407164 0.554702 -0.402019
C28   C     C_3   0.079633 0.602851 0.568709 -0.421928
C29   C     C_3   0.062182 0.488312 0.372880 -0.372388
C30   C     C_3   0.121456 0.497134 0.499833 0.123949
Cu1   Cu    Cu3+1 0.509350 0.507730 0.615930 0.934915
Cu2   Cu    Cu3+1 0.490650 0.492270 0.384070 0.925049
H1    H     H_    0.100255 0.432346 0.655877 0.125472
H2    H     H_    0.882556 0.549047 0.327648 0.165494
H3    H     H_    0.113442 0.668942 0.528551 0.154863
H4    H     H_    0.900410 0.670798 0.530429 0.154097
H5    H     H_    0.511978 0.812710 0.351614 0.156395
H6    H     H_    0.514701 0.966446 0.259650 0.130044
H7    H     H_    0.493211 0.038542 0.740707 0.136107
H8    H     H_    0.509829 0.156626 0.276807 0.155199
H9    H     H_    0.511365 0.189146 0.652012 0.151015
H10   H     H_    0.371286 0.413747 0.790642 0.109326
H11   H     H_    0.678185 0.625881 0.812283 0.117209
H12   H     H_    0.702002 0.639082 0.026630 0.127646
H13   H     H_    0.322464 0.373415 0.187559 0.121575
H14   H     H_    0.628307 0.586993 0.209507 0.113756
H15   H     H_    0.884999 0.332638 0.503557 0.155895
H16   H     H_    0.893795 0.412843 0.644513 0.162087
H17   H     H_    0.120592 0.615608 0.660307 0.161648
H18   H     H_    0.908304 0.614831 0.660908 0.163707
H19   H     H_    0.092285 0.557363 0.335678 0.171428
H20   H     H_    0.095170 0.419447 0.313807 0.157427
H21   H     H_    0.882158 0.409947 0.320403 0.164574
N1    N     N_R   0.523430 0.519360 0.790130 -0.176340
N2    N     N_R   0.476570 0.480640 0.209880 -0.177434
O1    O     O_R   0.506640 0.354460 0.582000 -0.588329
O2    O     O_R   0.490840 0.341410 0.386200 -0.589020
O3    O     O_R   0.325590 0.506510 0.597900 -0.593766
O4    O     O_R   0.309790 0.493450 0.402100 -0.593244
O5    O     O_R   0.509160 0.658590 0.613800 -0.573040
O6    O     O_R   0.493360 0.645540 0.418000 -0.587235
O7    O     O_R   0.690210 0.506550 0.597900 -0.597091
O8    O     O_R   0.674410 0.493490 0.402100 -0.593592
C31   C     C_R   0.457648 0.840244 0.754530 0.145939
C32   C     C_R   0.539121 0.861338 0.855409 -0.172018
C33   C     C_R   0.508339 0.826932 0.957565 -0.152381
C34   C     C_R   0.396396 0.771098 0.959688 -0.099558
C35   C     C_R   0.314469 0.750399 0.859982 -0.131699
C36   C     C_R   0.344193 0.785746 0.758092 -0.095614
H22   H     H_    0.626294 0.904278 0.854802 0.122276
H23   H     H_    0.571590 0.843010 0.034929 0.119212
H24   H     H_    0.373272 0.743785 0.038552 0.123407
H25   H     H_    0.227640 0.707451 0.861859 0.110632
H26   H     H_    0.279264 0.770634 0.681865 0.094493
C37   C     C_R   0.119275 0.298568 0.523632 0.113057
C38   C     C_R   0.088394 0.239144 0.411836 -0.148718
C39   C     C_R   0.126368 0.136003 0.383452 -0.151373
C40   C     C_R   0.191401 0.089340 0.467185 -0.087599
C41   C     C_R   0.219119 0.145985 0.579276 -0.129236
C42   C     C_R   0.185515 0.250216 0.606842 -0.156149
H27   H     H_    0.030042 0.269666 0.347840 0.118808
H28   H     H_    0.102254 0.091262 0.297316 0.123335
H29   H     H_    0.218823 0.008896 0.445759 0.128925
H30   H     H_    0.266660 0.109107 0.645227 0.129843
H31   H     H_    0.207630 0.291847 0.694760 0.099114
H32   H     H_    0.298595 0.360387 0.973163 0.130590

loop_
_geom_bond_atom_site_label_1
_geom_bond_atom_site_label_2
_ccdc_geom_bond_type
C27   H16   S    
C4    H21   S    
C19   C20   A    
C6    C9    A    
C7    C8    A    
C22   N1    A    
C39   C40   A    
C7    C11   A    
C26   C27   S    
C42   H31   S    
C3    H4    S    
Cu1   O3    S    
C3    C28   S    
C1    O1    A    
C17   H13   S    
Cu2   O6    S    
C18   C19   A    
C10   C15   A    
C21   N1    A    
C32   H22   S    
C34   H24   S    
C25   O8    A    
C12   O4    A    
C40   H29   S    
Cu1   Cu2   S    
C28   H3    S    
C16   C17   A    
C2    C27   S    
Cu1   O1    S    
C37   C42   A    
C17   N2    A    
Cu2   N2    S    
C13   H5    S    
C4    C29   S    
C12   O3    A    
C33   C34   A    
C16   H32   S    
Cu1   O7    S    
Cu2   O2    S    
C18   H14   S    
C9    C10   A    
C3    H18   S    
C23   O5    A    
C4    H2    S    
C34   C35   A    
C38   C39   A    
C40   C41   A    
C35   C36   A    
C6    C8    A    
C35   H25   S    
C1    C6    S    
Cu1   O5    S    
C2    C4    S    
C37   C38   A    
C29   C30   S    
C1    O2    A    
C28   H17   S    
C26   H1    S    
C33   H23   S    
C5    C23   S    
C16   C20   A    
C14   C31   S    
C26   C37   S    
C36   H26   S    
C31   C36   A    
C15   H7    S    
C5    C14   A    
C18   N2    A    
C26   C30   S    
C24   H12   S    
C22   C24   A    
C29   H19   S    
C27   H15   S    
C21   H10   S    
C12   C30   S    
C5    C13   A    
Cu2   O8    S    
C38   H27   S    
C9    H9    S    
C31   C32   A    
C28   C30   S    
C2    C3    S    
C11   C13   A    
C41   H30   S    
C39   H28   S    
C7    H6    S    
C19   C24   A    
C2    C25   S    
C25   O7    A    
Cu1   N1    S    
C10   C11   A    
C41   C42   A    
C23   O6    A    
C20   C21   A    
C32   C33   A    
C14   C15   A    
C8    H8    S    
Cu2   O4    S    
C22   H11   S    
C29   H20   S    
