data_mof_unit_60482.cif
_audit_creation_date              2012-12-10T18:09:50-0500
_audit_creation_method            fapswitch 2.2
_symmetry_space_group_name_H-M    P1
_symmetry_Int_Tables_number       1
_space_group_crystal_system       triclinic
_cell_length_a                    18.365976
_cell_length_b                    18.366016
_cell_length_c                    59.924437
_cell_angle_alpha                 90.053288
_cell_angle_beta                  90.053315
_cell_angle_gamma                 89.999031
_cell_volume                      20213.0829075

loop_
_atom_site_label
_atom_site_type_symbol
_atom_type_description
_atom_site_fract_x
_atom_site_fract_y
_atom_site_fract_z
_atom_type_partial_charge
C1    C     C_R   0.499997 0.000092 0.810435 0.522565
C2    C     C_R   0.508471 0.936306 0.440860 0.015521
C3    C     C_R   0.859699 0.640301 0.750000 0.514617
C4    C     C_R   0.359702 0.859679 0.249996 0.514760
C5    C     C_R   0.640298 0.140321 0.750004 0.514769
C6    C     C_R   0.859683 0.640317 0.250000 0.515000
C7    C     C_R   0.140317 0.359683 0.750000 0.514646
C8    C     C_R   0.756717 0.189806 0.735851 -0.126979
C9    C     C_R   0.243283 0.810194 0.264150 -0.127848
C10   C     C_R   0.810132 0.756749 0.735858 -0.127842
C11   C     C_R   0.189868 0.243251 0.264142 -0.127842
C12   C     C_R   0.243175 0.810111 0.735845 -0.128072
C13   C     C_R   0.931864 0.511743 0.559387 0.021554
C14   C     C_R   0.756826 0.189889 0.264154 -0.126772
C15   C     C_R   0.189825 0.243206 0.735839 -0.127276
C16   C     C_R   0.810175 0.756794 0.264161 -0.127659
C17   C     C_R   0.756794 0.810174 0.264161 -0.127275
C18   C     C_R   0.243206 0.189825 0.735838 -0.127659
C19   C     C_R   0.810195 0.243283 0.264149 -0.126980
C20   C     C_R   0.189806 0.756716 0.735850 -0.127845
C21   C     C_R   0.243251 0.189868 0.264142 -0.127840
C22   C     C_R   0.756749 0.810132 0.735858 -0.127843
C23   C     C_R   0.189889 0.756825 0.264155 -0.128070
C24   C     C_R   0.064302 0.515152 0.440757 0.016243
C25   C     C_R   0.810111 0.243174 0.735846 -0.126769
C26   C     C_R   0.256717 0.689805 0.235851 -0.126973
C27   C     C_R   0.743283 0.310194 0.764150 -0.127837
C28   C     C_R   0.310132 0.256749 0.235858 -0.127856
C29   C     C_R   0.689868 0.743251 0.764142 -0.127851
C30   C     C_R   0.743174 0.310111 0.235846 -0.128060
C31   C     C_R   0.256826 0.689889 0.764154 -0.126764
C32   C     C_R   0.689826 0.743206 0.235839 -0.127286
C33   C     C_R   0.310175 0.256794 0.764161 -0.127669
C34   C     C_R   0.256794 0.310174 0.764161 -0.127283
C35   C     C_R   0.485068 0.935643 0.559243 0.016248
C36   C     C_R   0.743206 0.689825 0.235839 -0.127664
C37   C     C_R   0.310194 0.743283 0.764149 -0.126972
C38   C     C_R   0.689806 0.256717 0.235850 -0.127828
C39   C     C_R   0.743251 0.689868 0.764142 -0.127848
C40   C     C_R   0.256749 0.310132 0.235858 -0.127852
C41   C     C_R   0.689889 0.256825 0.764155 -0.128059
C42   C     C_R   0.310111 0.743174 0.235846 -0.126758
C43   C     C_R   0.803660 0.303633 0.749995 0.041234
C44   C     C_R   0.196340 0.696366 0.250005 0.041247
C45   C     C_R   0.696350 0.803650 0.750000 0.041411
C46   C     C_R   0.488038 0.068103 0.440614 0.021558
C47   C     C_R   0.303650 0.196349 0.250000 0.041523
C48   C     C_R   0.196367 0.696340 0.750005 0.041233
C49   C     C_R   0.803634 0.303660 0.249995 0.041246
C50   C     C_R   0.303644 0.196356 0.750000 0.041091
C51   C     C_R   0.696357 0.803643 0.250000 0.040943
C52   C     C_R   0.803643 0.696356 0.250000 0.041091
C53   C     C_R   0.196357 0.303643 0.750000 0.040944
C54   C     C_R   0.696367 0.196340 0.250005 0.041233
C55   C     C_R   0.303634 0.803660 0.749995 0.041246
C56   C     C_R   0.196350 0.303650 0.250000 0.041411
C57   C     C_R   0.063728 0.491741 0.559139 0.015520
C58   C     C_R   0.803651 0.696349 0.750000 0.041524
C59   C     C_R   0.303660 0.803633 0.249995 0.041234
C60   C     C_R   0.696340 0.196366 0.750005 0.041248
C61   C     C_R   0.497236 0.066398 0.582999 0.456136
C62   C     C_R   0.505321 0.937244 0.417313 0.417848
C63   C     C_R   0.933472 0.505788 0.582881 0.428736
C64   C     C_R   0.063219 0.509699 0.417247 0.453587
C65   C     C_R   0.490515 0.936743 0.582753 0.453560
C66   C     C_R   0.494002 0.066518 0.417120 0.428848
C67   C     C_R   0.062781 0.494884 0.582687 0.417946
C68   C     C_R   0.931102 0.507530 0.440530 0.019437
C69   C     C_R   0.933587 0.502548 0.417002 0.456114
C70   C     C_R   0.997419 0.566412 0.082998 0.456124
C71   C     C_R   0.005152 0.437225 0.917313 0.417939
C72   C     C_R   0.433449 0.005154 0.082884 0.428407
C73   C     C_R   0.563103 0.010341 0.917248 0.453665
C74   C     C_R   0.990338 0.436776 0.082753 0.453580
C75   C     C_R   0.994176 0.566529 0.917119 0.428764
C76   C     C_R   0.562858 0.995501 0.082686 0.418243
C77   C     C_R   0.433549 0.001888 0.917004 0.456058
C78   C     C_R   0.431188 0.000041 0.629859 0.243074
C79   C     C_R   0.992435 0.568895 0.059470 0.019448
C80   C     C_R   0.434559 0.001169 0.370493 0.274912
C81   C     C_R   0.998952 0.432290 0.629804 0.251762
C82   C     C_R   0.998887 0.436087 0.370721 0.260984
C83   C     C_R   0.563913 0.001105 0.629278 0.260986
C84   C     C_R   0.567710 0.001143 0.370196 0.251767
C85   C     C_R   0.998767 0.565440 0.629507 0.274913
C86   C     C_R   0.999942 0.568811 0.370141 0.243087
C87   C     C_R   0.931190 0.500062 0.129859 0.243081
C88   C     C_R   0.934560 0.501224 0.870493 0.274911
C89   C     C_R   0.499248 0.932288 0.129804 0.251747
C90   C     C_R   0.008297 0.436280 0.940860 0.015534
C91   C     C_R   0.498863 0.936083 0.870721 0.260974
C92   C     C_R   0.063914 0.501108 0.129278 0.260980
C93   C     C_R   0.067711 0.501066 0.870196 0.251763
C94   C     C_R   0.498571 0.065436 0.129507 0.274914
C95   C     C_R   0.499896 0.068808 0.870141 0.243124
C96   C     C_R   0.432750 0.999729 0.653301 -0.145862
C97   C     C_R   0.434583 0.000647 0.347027 -0.148648
C98   C     C_R   0.999613 0.433590 0.653117 -0.078553
C99   C     C_R   0.999225 0.435334 0.347228 -0.148381
C100  C     C_R   0.564666 0.000773 0.652772 -0.148377
C101  C     C_R   0.431773 0.011080 0.059389 0.021552
C102  C     C_R   0.566410 0.000469 0.346883 -0.078552
C103  C     C_R   0.999287 0.565417 0.652972 -0.148652
C104  C     C_R   0.000261 0.567250 0.346699 -0.145864
C105  C     C_R   0.932750 0.499743 0.153301 -0.145865
C106  C     C_R   0.934583 0.500703 0.847028 -0.148653
C107  C     C_R   0.499870 0.933590 0.153117 -0.078557
C108  C     C_R   0.499217 0.935333 0.847228 -0.148399
C109  C     C_R   0.064666 0.500770 0.152772 -0.148385
C110  C     C_R   0.066410 0.500402 0.846883 -0.078553
C111  C     C_R   0.499081 0.065415 0.152972 -0.148668
C112  C     C_R   0.499989 0.999946 0.189566 0.517781
C113  C     C_R   0.564135 0.015812 0.940757 0.016229
C114  C     C_R   0.500233 0.067248 0.846700 -0.145874
C115  C     C_R   0.496930 0.000771 0.617940 0.325778
C116  C     C_R   0.501086 0.001387 0.382105 0.271657
C117  C     C_R   0.998629 0.498913 0.617895 0.271654
C118  C     C_R   0.999213 0.503069 0.382060 0.325751
C119  C     C_R   0.996932 0.500786 0.117940 0.325754
C120  C     C_R   0.001087 0.501376 0.882105 0.271652
C121  C     C_R   0.498683 0.998910 0.117895 0.271642
C122  C     C_R   0.499168 0.003065 0.882061 0.325654
C123  C     C_R   0.489105 0.002411 0.547475 -0.095345
C124  C     C_R   0.984886 0.435691 0.059243 0.016245
C125  C     C_R   0.497361 0.002347 0.452616 -0.094120
C126  C     C_R   0.997649 0.502635 0.547384 -0.094119
C127  C     C_R   0.997549 0.510890 0.452525 -0.095352
C128  C     C_R   0.989112 0.502447 0.047475 -0.095347
C129  C     C_R   0.997366 0.502353 0.952616 -0.094121
C130  C     C_R   0.497642 0.002618 0.047385 -0.094117
C131  C     C_R   0.497431 0.010872 0.952527 -0.095370
C132  C     C_R   0.988220 0.568132 0.940614 0.021568
C133  C     C_R   0.563829 0.992376 0.059139 0.015529
C134  C     C_R   0.431019 0.006837 0.940533 0.019419
C135  C     C_R   0.492675 0.135255 0.547493 0.255484
C136  C     C_R   0.521010 0.871557 0.453066 0.259319
C137  C     C_R   0.866735 0.525382 0.547466 0.260153
C138  C     C_R   0.129852 0.523428 0.452943 0.258056
C139  C     C_R   0.477013 0.870067 0.547057 0.258048
C140  C     C_R   0.000054 0.500012 0.810434 0.517784
C141  C     C_R   0.474182 0.133185 0.452535 0.260156
C142  C     C_R   0.128516 0.479416 0.546933 0.259296
C143  C     C_R   0.864718 0.506875 0.452509 0.255483
C144  C     C_R   0.993055 0.635279 0.047491 0.255488
C145  C     C_R   0.020659 0.371499 0.953067 0.259333
C146  C     C_R   0.366508 0.024067 0.047470 0.260165
C147  C     C_R   0.629601 0.024754 0.952942 0.258058
C148  C     C_R   0.976648 0.370136 0.047057 0.258034
C149  C     C_R   0.974543 0.633253 0.952534 0.260173
C150  C     C_R   0.628733 0.980698 0.046930 0.259259
C151  C     C_R   0.999908 0.500002 0.189565 0.522565
C152  C     C_R   0.364648 0.005502 0.952513 0.255484
C153  C     C_R   0.499250 0.000131 0.664891 -0.033158
C154  C     C_R   0.500305 0.000299 0.335106 -0.052825
C155  C     C_R   0.999705 0.499694 0.664894 -0.052825
C156  C     C_R   0.999865 0.500750 0.335109 -0.033160
C157  C     C_R   0.999250 0.500135 0.164891 -0.033163
C158  C     C_R   0.000305 0.500296 0.835106 -0.052826
C159  C     C_R   0.499720 0.999694 0.164894 -0.052825
C160  C     C_R   0.499855 0.000749 0.835109 -0.033174
C161  C     C_R   0.988785 0.569273 0.988140 -0.017497
C162  C     C_R   0.999998 0.500092 0.310435 0.522568
C163  C     C_R   0.991550 0.435866 0.011843 -0.017300
C164  C     C_R   0.430394 0.007624 0.988100 -0.016459
C165  C     C_R   0.563948 0.001036 0.011753 -0.017439
C166  C     C_R   0.999650 0.436055 0.988246 -0.017426
C167  C     C_R   0.991643 0.569525 0.011903 -0.016456
C168  C     C_R   0.564045 0.009143 0.988157 -0.017308
C169  C     C_R   0.430622 0.010488 0.011863 -0.017513
C170  C     C_R   0.488595 0.069241 0.488140 -0.017501
C171  C     C_R   0.491729 0.935840 0.511843 -0.017302
C172  C     C_R   0.930473 0.508322 0.488097 -0.016459
C173  C     C_R   0.999988 0.499946 0.689566 0.517784
C174  C     C_R   0.063947 0.500389 0.511754 -0.017433
C175  C     C_R   0.499827 0.936053 0.488246 -0.017429
C176  C     C_R   0.491450 0.069499 0.511904 -0.016458
C177  C     C_R   0.064132 0.508490 0.488157 -0.017305
C178  C     C_R   0.930722 0.511178 0.511860 -0.017506
C179  C     C_R   0.995379 0.502590 0.976386 0.023142
C180  C     C_R   0.990504 0.502654 0.023689 0.024775
C181  C     C_R   0.497245 0.009477 0.976312 0.024775
C182  C     C_R   0.497376 0.004602 0.023615 0.023138
C183  C     C_R   0.495372 0.002577 0.476386 0.023142
C184  C     C_R   0.500054 0.000013 0.310434 0.517786
C185  C     C_R   0.490497 0.002624 0.523690 0.024773
C186  C     C_R   0.997342 0.509498 0.476311 0.024772
C187  C     C_R   0.997410 0.504622 0.523614 0.023141
C188  C     C_R   0.977271 0.633499 0.975725 -0.071610
C189  C     C_R   0.982290 0.370716 0.023929 -0.071042
C190  C     C_R   0.365213 0.003427 0.975703 -0.072953
C191  C     C_R   0.628445 0.987314 0.023819 -0.071151
C192  C     C_R   0.014049 0.371710 0.976178 -0.071119
C193  C     C_R   0.995139 0.634743 0.024301 -0.072952
C194  C     C_R   0.629088 0.019102 0.976070 -0.071036
C195  C     C_R   0.499908 0.000002 0.689565 0.522567
C196  C     C_R   0.366283 0.021327 0.024279 -0.071624
C197  C     C_R   0.476906 0.133436 0.475726 -0.071610
C198  C     C_R   0.482652 0.870664 0.523928 -0.071040
C199  C     C_R   0.865255 0.504791 0.475699 -0.072940
C200  C     C_R   0.128301 0.486026 0.523822 -0.071137
C201  C     C_R   0.514402 0.871749 0.476177 -0.071126
C202  C     C_R   0.494761 0.134726 0.524302 -0.072941
C203  C     C_R   0.129276 0.517785 0.476071 -0.071037
C204  C     C_R   0.866490 0.522655 0.524275 -0.071614
C205  C     C_R   0.640301 0.859699 0.750000 0.514352
C206  C     C_R   0.492243 0.068868 0.559470 0.019447
C207  C     C_R   0.359699 0.140301 0.250000 0.514614
C208  C     C_R   0.140321 0.640298 0.750004 0.514757
C209  C     C_R   0.859679 0.359702 0.249996 0.514766
C210  C     C_R   0.359683 0.140317 0.750000 0.514997
C211  C     C_R   0.640317 0.859682 0.250000 0.514643
C212  C     C_R   0.859702 0.359679 0.749996 0.514758
C213  C     C_R   0.140298 0.640321 0.250004 0.514766
C214  C     C_R   0.640321 0.140298 0.250004 0.514759
C215  C     C_R   0.359679 0.859702 0.749996 0.514764
C216  C     C_R   0.140301 0.359699 0.250000 0.514351
H1    H     H_    0.762757 0.143531 0.724787 0.143831
H2    H     H_    0.237111 0.143568 0.724767 0.143151
H3    H     H_    0.856469 0.237243 0.275213 0.143833
H4    H     H_    0.143531 0.762756 0.724787 0.142702
H5    H     H_    0.237185 0.143646 0.275198 0.142696
H6    H     H_    0.762815 0.856354 0.724802 0.142936
H7    H     H_    0.143686 0.762945 0.275220 0.142513
H8    H     H_    0.856314 0.237054 0.724781 0.144967
H9    H     H_    0.262757 0.643531 0.224787 0.143838
H10   H     H_    0.737243 0.356468 0.775213 0.142707
H11   H     H_    0.356354 0.262814 0.224801 0.142681
H12   H     H_    0.237243 0.856468 0.275213 0.142698
H13   H     H_    0.643646 0.737185 0.775198 0.142929
H14   H     H_    0.737054 0.356314 0.224780 0.142523
H15   H     H_    0.262946 0.643686 0.775219 0.144972
H16   H     H_    0.643568 0.737111 0.224767 0.144613
H17   H     H_    0.356432 0.262888 0.775233 0.143145
H18   H     H_    0.262889 0.356432 0.775232 0.144617
H19   H     H_    0.737112 0.643569 0.224767 0.143149
H20   H     H_    0.356469 0.737243 0.775213 0.143839
H21   H     H_    0.643531 0.262757 0.224787 0.142720
H22   H     H_    0.737186 0.643646 0.775198 0.142689
H23   H     H_    0.856354 0.762814 0.724801 0.142693
H24   H     H_    0.262815 0.356354 0.224802 0.142930
H25   H     H_    0.643687 0.262945 0.775220 0.142522
H26   H     H_    0.356314 0.737054 0.224781 0.144979
H27   H     H_    0.616266 0.001069 0.661539 0.137171
H28   H     H_    0.617713 0.000294 0.337974 0.176601
H29   H     H_    0.999358 0.616765 0.661879 0.137178
H30   H     H_    0.000764 0.618085 0.337551 0.138421
H31   H     H_    0.381915 0.999223 0.662449 0.138421
H32   H     H_    0.383235 0.000514 0.338121 0.137177
H33   H     H_    0.999847 0.382288 0.662026 0.176600
H34   H     H_    0.143646 0.237185 0.275198 0.142935
H35   H     H_    0.998935 0.383734 0.338461 0.137173
H36   H     H_    0.116267 0.501057 0.161539 0.137173
H37   H     H_    0.117713 0.500178 0.837974 0.176602
H38   H     H_    0.498959 0.116763 0.161879 0.137179
H39   H     H_    0.500732 0.118083 0.837552 0.138423
H40   H     H_    0.881915 0.499243 0.162448 0.138425
H41   H     H_    0.883235 0.500621 0.838121 0.137177
H42   H     H_    0.500288 0.882288 0.162026 0.176599
H43   H     H_    0.498944 0.883733 0.838460 0.137176
H44   H     H_    0.965349 0.684906 0.983592 0.151762
H45   H     H_    0.237054 0.856313 0.724780 0.142512
H46   H     H_    0.974788 0.318999 0.015690 0.153543
H47   H     H_    0.312730 0.998183 0.983558 0.154473
H48   H     H_    0.679530 0.976698 0.015561 0.152941
H49   H     H_    0.025206 0.320738 0.984434 0.152885
H50   H     H_    0.999819 0.687283 0.016448 0.154473
H51   H     H_    0.680724 0.027158 0.984308 0.153519
H52   H     H_    0.314750 0.032703 0.016413 0.151815
H53   H     H_    0.464842 0.184810 0.483593 0.151783
H54   H     H_    0.475295 0.818926 0.515690 0.153540
H55   H     H_    0.812719 0.500083 0.483552 0.154482
H56   H     H_    0.762947 0.143686 0.275219 0.144965
H57   H     H_    0.179279 0.474898 0.515565 0.152917
H58   H     H_    0.525699 0.820807 0.484433 0.152898
H59   H     H_    0.499292 0.187279 0.516450 0.154482
H60   H     H_    0.180989 0.525317 0.484309 0.153532
H61   H     H_    0.815076 0.534547 0.516408 0.151800
H62   H     H_    0.669543 0.001887 0.627384 0.330278
H63   H     H_    0.628573 0.004016 0.396924 0.343724
H64   H     H_    0.998668 0.671207 0.627993 0.326931
H65   H     H_    0.000686 0.674644 0.371113 0.329955
H66   H     H_    0.325356 0.999285 0.628887 0.329958
H67   H     H_    0.143568 0.237111 0.724767 0.144619
H68   H     H_    0.328791 0.001140 0.372007 0.326927
H69   H     H_    0.996219 0.371425 0.603075 0.343731
H70   H     H_    0.998119 0.330457 0.372616 0.330279
H71   H     H_    0.169544 0.501871 0.127384 0.330284
H72   H     H_    0.128575 0.503825 0.896925 0.343740
H73   H     H_    0.498073 0.171202 0.127992 0.326940
H74   H     H_    0.500609 0.174642 0.871113 0.329955
H75   H     H_    0.825357 0.499324 0.128887 0.329966
H76   H     H_    0.828792 0.501300 0.872007 0.326928
H77   H     H_    0.496939 0.871417 0.103072 0.343762
H78   H     H_    0.856432 0.762888 0.275233 0.143150
H79   H     H_    0.498128 0.830453 0.872614 0.330282
H80   H     H_    0.447990 0.201433 0.568002 0.362914
H81   H     H_    0.581251 0.818863 0.432460 0.360087
H82   H     H_    0.813624 0.582301 0.568822 0.367154
H83   H     H_    0.187178 0.578632 0.432240 0.364916
H84   H     H_    0.422000 0.812552 0.567758 0.364914
H85   H     H_    0.417092 0.186107 0.431178 0.367143
H86   H     H_    0.181412 0.419345 0.567537 0.360095
H87   H     H_    0.798385 0.551338 0.432001 0.362923
H88   H     H_    0.948557 0.701589 0.067999 0.362852
H89   H     H_    0.762889 0.856431 0.275233 0.144621
H90   H     H_    0.080759 0.318638 0.932462 0.360057
H91   H     H_    0.312836 0.080470 0.068822 0.367136
H92   H     H_    0.686352 0.080535 0.932235 0.364973
H93   H     H_    0.921475 0.312778 0.067759 0.364965
H94   H     H_    0.917593 0.686330 0.931178 0.367101
H95   H     H_    0.682234 0.921143 0.067529 0.360084
H96   H     H_    0.297848 0.049288 0.932011 0.362880
N1    N     N_R   0.495253 0.001301 0.593949 -0.346896
N2    N     N_R   0.500309 0.001732 0.406114 -0.391139
N3    N     N_R   0.998279 0.499690 0.593886 -0.391138
N4    N     N_R   0.998676 0.504746 0.406052 -0.346915
N5    N     N_R   0.995255 0.501322 0.093948 -0.346910
N6    N     N_R   0.000310 0.501726 0.906114 -0.391143
N7    N     N_R   0.498316 0.999685 0.093886 -0.391136
N8    N     N_R   0.498612 0.004740 0.906053 -0.346976
O1    O     O_3   0.500000 0.000000 0.750000 -0.437426
O2    O     O_R   0.500000 0.060550 0.200300 -0.539243
O3    O     O_3   0.297621 0.006900 0.942241 -0.620241
O4    O     O_R   0.060550 0.500000 0.799700 -0.542911
O5    O     O_R   0.939450 0.500000 0.200300 -0.542475
O6    O     O_R   1.000000 0.560550 0.299700 -0.542476
O7    O     O_R   1.000000 0.439450 0.700300 -0.542909
O8    O     O_R   0.439450 0.000000 0.299700 -0.539244
O9    O     O_R   0.560550 0.000000 0.700300 -0.540312
O10   O     O_R   0.000000 0.439450 0.299700 -0.540312
O11   O     O_R   1.000000 0.560550 0.700300 -0.539243
O12   O     O_R   0.560550 0.000000 0.299700 -0.542910
O13   O     O_3   0.500000 1.000000 0.250000 -0.437801
O14   O     O_R   0.439450 0.000000 0.700300 -0.542475
O15   O     O_R   0.585450 0.853690 0.762850 -0.546408
O16   O     O_R   0.414550 0.146310 0.237150 -0.546516
O17   O     O_R   0.146310 0.585450 0.762850 -0.545312
O18   O     O_R   0.853690 0.414550 0.237150 -0.546616
O19   O     O_R   0.414550 0.146310 0.762850 -0.546341
O20   O     O_R   0.585450 0.853690 0.237150 -0.545658
O21   O     O_R   0.853690 0.414550 0.762850 -0.546630
O22   O     O_R   0.146310 0.585450 0.237150 -0.546031
O23   O     O_R   0.585450 0.146310 0.237150 -0.546616
O24   O     O_3   1.000000 0.500000 0.750000 -0.437801
O25   O     O_R   0.414550 0.853690 0.762850 -0.546030
O26   O     O_R   0.146310 0.414550 0.237150 -0.546407
O27   O     O_R   0.853690 0.585450 0.762850 -0.546504
O28   O     O_R   0.414550 0.853690 0.237150 -0.545298
O29   O     O_R   0.585450 0.146310 0.762850 -0.546611
O30   O     O_R   0.853690 0.585450 0.237150 -0.546335
O31   O     O_R   0.146310 0.414550 0.762850 -0.545644
O32   O     O_R   0.085450 0.353690 0.262850 -0.546404
O33   O     O_R   0.914550 0.646310 0.737150 -0.546502
O34   O     O_R   0.646310 0.085450 0.262850 -0.545320
O35   O     O_3   1.000000 0.500000 0.250000 -0.437426
O36   O     O_R   0.353690 0.914550 0.737150 -0.546622
O37   O     O_R   0.914550 0.646310 0.262850 -0.546334
O38   O     O_R   0.085450 0.353690 0.737150 -0.545643
O39   O     O_R   0.353690 0.914550 0.262850 -0.546637
O40   O     O_R   0.646310 0.085450 0.737150 -0.546034
O41   O     O_R   0.085450 0.646310 0.737150 -0.546632
O42   O     O_R   0.914550 0.353690 0.262850 -0.546033
O43   O     O_R   0.646310 0.914550 0.737150 -0.546404
O44   O     O_R   0.353690 0.085450 0.262850 -0.546498
O45   O     O_R   0.914550 0.353690 0.737150 -0.545314
O46   O     O_R   0.500000 0.060550 0.799700 -0.542476
O47   O     O_R   0.085450 0.646310 0.262850 -0.546619
O48   O     O_R   0.353690 0.085450 0.737150 -0.546333
O49   O     O_R   0.646310 0.914550 0.262850 -0.545638
O50   O     O_2   0.505914 0.128011 0.594971 -0.430564
O51   O     O_2   0.505853 0.874548 0.405574 -0.431640
O52   O     O_2   0.871113 0.504723 0.594749 -0.432579
O53   O     O_2   0.125884 0.506967 0.405555 -0.432094
O54   O     O_2   0.493448 0.874088 0.594445 -0.432117
O55   O     O_2   0.494871 0.128882 0.405253 -0.432557
O56   O     O_2   0.125480 0.494550 0.594426 -0.431644
O57   O     O_R   0.500000 0.939450 0.200300 -0.542909
O58   O     O_2   0.872002 0.493672 0.405030 -0.430534
O59   O     O_2   0.006261 0.628002 0.094970 -0.430534
O60   O     O_2   0.005521 0.374527 0.905574 -0.431628
O61   O     O_2   0.371109 0.003500 0.094754 -0.432640
O62   O     O_2   0.625792 0.008222 0.905556 -0.432042
O63   O     O_2   0.993102 0.374113 0.094445 -0.432124
O64   O     O_2   0.995206 0.628888 0.905252 -0.432573
O65   O     O_2   0.625560 0.995761 0.094424 -0.431641
O66   O     O_2   0.372051 0.992416 0.905033 -0.430429
O67   O     O_3   0.627467 0.001711 0.617001 -0.643136
O68   O     O_R   0.939450 0.500000 0.799700 -0.539244
O69   O     O_3   0.634939 0.001792 0.380549 -0.664977
O70   O     O_3   0.998525 0.629509 0.617468 -0.649274
O71   O     O_3   0.000170 0.633594 0.381850 -0.670036
O72   O     O_3   0.366406 0.999800 0.618150 -0.670047
O73   O     O_3   0.370490 0.001333 0.382532 -0.649309
O74   O     O_3   0.998397 0.365060 0.619450 -0.664974
O75   O     O_3   0.998289 0.372532 0.382998 -0.643118
O76   O     O_3   0.127469 0.501703 0.117002 -0.643113
O77   O     O_3   0.134940 0.501638 0.880550 -0.664957
O78   O     O_3   0.498086 0.129503 0.117468 -0.649174
O79   O     O_R   0.060550 0.500000 0.200300 -0.540314
O80   O     O_3   0.500088 0.133592 0.881850 -0.669981
O81   O     O_3   0.866407 0.499837 0.118150 -0.670026
O82   O     O_3   0.870491 0.501452 0.882532 -0.649283
O83   O     O_3   0.498981 0.865058 0.119449 -0.664946
O84   O     O_3   0.498285 0.872526 0.882997 -0.643045
O85   O     O_3   0.490356 0.202253 0.557767 -0.620282
O86   O     O_3   0.541932 0.807143 0.443189 -0.625493
O87   O     O_3   0.802281 0.543812 0.557747 -0.621780
O88   O     O_3   0.195690 0.538565 0.443001 -0.622906
O89   O     O_3   0.462099 0.804178 0.556998 -0.622900
O90   O     O_R   0.500000 0.939450 0.799700 -0.540315
O91   O     O_3   0.455538 0.197578 0.442254 -0.621809
O92   O     O_3   0.193001 0.458707 0.556810 -0.625466
O93   O     O_3   0.797711 0.508967 0.442235 -0.620266
O94   O     O_3   0.990928 0.702285 0.057765 -0.620287
O95   O     O_3   0.041405 0.307026 0.943190 -0.625511
O96   O     O_3   0.301876 0.041855 0.057752 -0.621750
O97   O     O_3   0.695278 0.040567 0.942999 -0.622940
O98   O     O_3   0.961547 0.304290 0.056999 -0.622918
O99   O     O_3   0.956075 0.697696 0.942253 -0.621842
O100  O     O_3   0.693425 0.960631 0.056805 -0.625426
Zn1   Zn    Zn3+2 0.586770 1.000000 0.731050 0.947071
Zn2   Zn    Zn3+2 0.913230 0.500000 0.768950 0.946795
Zn3   Zn    Zn3+2 0.500000 0.086770 0.231050 0.946796
Zn4   Zn    Zn3+2 0.500000 0.913230 0.768950 0.947063
Zn5   Zn    Zn3+2 0.913230 0.500000 0.231050 0.945994
Zn6   Zn    Zn3+2 0.086770 0.500000 0.768950 0.949716
Zn7   Zn    Zn3+2 0.500000 0.913230 0.231050 0.949717
Zn8   Zn    Zn3+2 0.500000 0.086770 0.768950 0.945990
Zn9   Zn    Zn3+2 0.413230 0.000000 0.268950 0.946796
Zn10  Zn    Zn3+2 0.000000 0.586770 0.731050 0.946796
Zn11  Zn    Zn3+2 1.000000 0.413230 0.268950 0.947068
Zn12  Zn    Zn3+2 0.413230 1.000000 0.731050 0.945989
Zn13  Zn    Zn3+2 0.586770 0.000000 0.268950 0.949715
Zn14  Zn    Zn3+2 1.000000 0.413230 0.731050 0.949716
Zn15  Zn    Zn3+2 1.000000 0.586770 0.268950 0.945991
Zn16  Zn    Zn3+2 0.086770 0.500000 0.231050 0.947066

loop_
_geom_bond_atom_site_label_1
_geom_bond_atom_site_label_2
_ccdc_geom_bond_type
C100  C153  A    
C28   C47   A    
C3    O33   A    
C74   O63   S    
O90   Zn4   S    
C170  C176  A    
C36   H19   S    
H74   O80   S    
C21   H5    S    
C107  H42   S    
C175  C183  A    
C126  C187  A    
C92   C119  A    
H95   O100  S    
C66   O55   S    
C71   N6    A    
C92   C109  A    
C72   C101  A    
C28   C40   A    
C92   O76   S    
C81   C117  A    
H91   O96   S    
C93   O77   S    
C30   C38   A    
C68   C143  A    
C89   O83   S    
C152  C190  A    
C35   C139  A    
O4    Zn6   S    
C80   C116  A    
C78   C96   A    
C91   C122  A    
C31   H15   S    
O36   Zn12  S    
C24   C127  A    
C128  C180  A    
C93   C120  A    
O15   Zn4   S    
C173  O7    A    
C74   N5    A    
C150  O100  S    
O16   Zn3   S    
C85   C103  A    
C93   C110  A    
C101  C130  A    
C131  C134  A    
H62   O67   S    
C167  C180  A    
C62   O51   S    
C213  O22   A    
C140  O4    A    
C69   N4    A    
C141  C197  A    
C70   O59   S    
C46   C141  A    
C77   O66   S    
H63   O69   S    
C99   H35   S    
C33   C50   A    
C42   H26   S    
C177  C186  A    
C119  N5    S    
C29   C45   A    
C184  O8    A    
C123  C185  A    
C114  H39   S    
C83   C115  A    
C22   H6    S    
C19   C49   A    
C13   C63   A    
C62   N2    A    
C99   C156  A    
C48   C208  S    
C97   C154  A    
O34   Zn13  S    
C85   C117  A    
C174  C177  A    
C194  H51   S    
C135  C206  A    
O35   Zn5   S    
C95   C122  A    
O57   Zn7   S    
C30   C49   A    
O24   Zn2   S    
C83   C100  A    
C102  H28   S    
C82   C118  A    
C197  H53   S    
C15   C53   A    
C61   O50   S    
C199  H55   S    
C54   C214  S    
C198  H54   S    
O13   Zn9   S    
C70   C79   A    
C14   C19   A    
C207  O44   A    
C98   H33   S    
C76   C133  A    
C149  O99   S    
C137  C204  A    
H90   O95   S    
C90   C145  A    
H96   O3    S    
C24   C138  A    
C39   C58   A    
C112  O2    A    
C16   C17   A    
H88   O94   S    
C204  H61   S    
C189  H46   S    
C9    H12   S    
C63   N3    A    
H93   O98   S    
O13   Zn13  S    
C169  C182  A    
C22   C45   A    
C149  C188  A    
C215  O36   A    
C16   H78   S    
C6    C52   S    
C11   C56   A    
C121  N7    S    
C15   C18   A    
O49   Zn13  S    
C32   H16   S    
C122  N8    S    
C82   O75   S    
C80   C97   A    
C84   C102  A    
C76   O65   S    
C94   C111  A    
O27   Zn2   S    
C86   C104  A    
C25   C43   A    
C26   C44   A    
C103  H29   S    
C57   C142  A    
C172  C199  A    
C63   O52   S    
C32   C36   A    
C10   C58   A    
O68   Zn2   S    
C161  C188  A    
O30   Zn5   S    
C55   C215  S    
C65   N1    A    
O28   Zn7   S    
C200  H57   S    
O39   Zn9   S    
C8    H1    S    
C87   O81   S    
C140  C158  S    
C90   C129  A    
O23   Zn3   S    
O42   Zn11  S    
C216  O32   A    
H85   O91   S    
C161  C179  A    
C96   H31   S    
C36   C52   A    
C150  C191  A    
C10   H23   S    
C84   C116  A    
O14   Zn12  S    
C167  C193  A    
C116  N2    S    
C164  C190  A    
C136  C201  A    
C176  C202  A    
C78   C115  A    
C9    C23   A    
C140  O68   A    
C152  O3    S    
C77   N8    A    
C78   O72   S    
C11   C21   A    
C41   H25   S    
C4    O28   A    
C190  H47   S    
C3    C58   S    
C87   C119  A    
O37   Zn15  S    
C174  C187  A    
C136  O86   S    
C87   C105  A    
O44   Zn9   S    
O22   Zn16  S    
O8    Zn9   S    
H77   O83   S    
C100  H27   S    
C114  C160  A    
C161  C167  A    
H76   O82   S    
C23   H7    S    
C168  C181  A    
C104  H30   S    
C145  C192  A    
C196  H52   S    
C77   C134  A    
C17   H89   S    
C18   H2    S    
C4    O39   A    
C33   H17   S    
C75   C132  A    
C26   C42   A    
C75   O64   S    
C117  N3    S    
C6    O37   A    
C172  C178  A    
C118  N4    S    
C214  O23   A    
C5    C60   S    
C133  C150  A    
C41   C60   A    
C42   C59   A    
C203  H60   S    
C67   O56   S    
C61   C206  A    
C211  O20   A    
C144  C193  A    
C191  H48   S    
C35   C123  A    
C5    O40   A    
C29   H13   S    
O35   Zn16  S    
C40   H24   S    
C71   C90   A    
C145  O95   S    
C91   O84   S    
C216  O26   A    
C143  O93   S    
C192  H49   S    
C84   O69   S    
C56   C216  S    
C12   C55   A    
C64   O53   S    
C37   C55   A    
C2    C125  A    
C71   O60   S    
C112  O57   A    
C146  O96   S    
C50   C210  S    
C139  O89   S    
C108  H43   S    
C135  O85   S    
C2    C62   A    
C170  C197  A    
C213  O47   A    
C74   C124  A    
O43   Zn1   S    
C8    C25   A    
O32   Zn11  S    
C1    O46   A    
C82   C99   A    
C46   C125  A    
C212  O45   A    
O20   Zn7   S    
C17   C51   A    
C139  C198  A    
C176  C185  A    
C109  H36   S    
C76   N7    A    
C10   C22   A    
H69   O74   S    
C124  C148  A    
O1    Zn4   S    
O2    Zn3   S    
C193  H50   S    
C151  C157  S    
C46   C66   A    
C171  C198  A    
C214  O34   A    
C14   H56   S    
C81   C98   A    
C35   C65   A    
C95   C114  A    
C144  O94   S    
C73   C113  A    
C147  C194  A    
H75   O81   S    
C111  C159  A    
O40   Zn1   S    
C105  C157  A    
C68   C69   A    
C40   C56   A    
C106  H41   S    
C5    O29   A    
C177  C203  A    
H94   O99   S    
C88   C120  A    
C7    O31   A    
C211  O49   A    
C110  C158  A    
H92   O97   S    
C124  C128  A    
C129  C132  A    
C148  O98   S    
C61   N1    A    
C209  O18   A    
O18   Zn5   S    
C109  C157  A    
C24   C64   A    
O47   Zn15  S    
C132  C149  A    
C28   H11   S    
C66   N2    A    
C1    O90   A    
O26   Zn16  S    
C11   H34   S    
O1    Zn8   S    
C44   C213  S    
C163  C166  A    
O9    Zn1   S    
O12   Zn13  S    
C88   O82   S    
C137  O87   S    
C23   C44   A    
C123  C206  A    
C32   C51   A    
C195  O9    A    
C138  C203  A    
C162  O6    A    
C96   C153  A    
C153  C195  S    
O13   Zn7   S    
C134  C152  A    
C188  H44   S    
C86   C118  A    
C43   C212  S    
C68   C127  A    
C20   C48   A    
C178  C187  A    
C103  C155  A    
O48   Zn12  S    
C67   N3    A    
H73   O78   S    
C130  C133  A    
O21   Zn2   S    
C80   O73   S    
C205  O43   A    
C75   N6    A    
C212  O21   A    
C18   C50   A    
H87   O93   S    
H64   O70   S    
C98   C155  A    
C45   C205  S    
H70   O75   S    
C142  C200  A    
C208  O41   A    
C1    C160  S    
H68   O73   S    
C16   C52   A    
C6    O30   A    
C7    O38   A    
C210  O48   A    
C65   O54   S    
C91   C108  A    
O24   Zn14  S    
H86   O92   S    
C174  C200  A    
C85   O70   S    
C113  C147  A    
C102  C154  A    
C8    C60   A    
C131  C181  A    
C89   C121  A    
C162  O10   A    
C165  C191  A    
C166  C192  A    
C12   H45   S    
C81   O74   S    
H65   O71   S    
H66   O72   S    
C89   C107  A    
C94   O78   S    
C94   C121  A    
C27   C43   A    
C95   O80   S    
O35   Zn11  S    
C34   C53   A    
C49   C209  S    
C209  O42   A    
C26   H9    S    
C105  H40   S    
C9    C59   A    
H71   O76   S    
H83   O88   S    
C208  O17   A    
C79   C128  A    
O29   Zn8   S    
C83   O67   S    
C112  C159  S    
C178  C204  A    
C170  C183  A    
C125  C183  A    
C15   H67   S    
C173  O11   A    
C97   H32   S    
H84   O89   S    
C25   H8    S    
C129  C179  A    
C151  O79   A    
O7    Zn14  S    
O79   Zn16  S    
O6    Zn15  S    
C110  H37   S    
C207  O16   A    
O1    Zn1   S    
C127  C186  A    
C210  O19   A    
O45   Zn14  S    
C135  C202  A    
C172  C186  A    
C38   C54   A    
H79   O84   S    
C164  C181  A    
C120  N6    S    
C151  O5    A    
O24   Zn10  S    
C201  H58   S    
C155  C173  S    
C111  H38   S    
C156  C162  S    
C168  C194  A    
O11   Zn10  S    
C20   H4    S    
C12   C20   A    
C164  C169  A    
C64   N4    A    
C69   O58   S    
C57   C67   A    
C169  C196  A    
C31   C37   A    
O41   Zn10  S    
C101  C146  A    
O24   Zn6   S    
C86   O71   S    
C175  C201  A    
C163  C189  A    
C130  C182  A    
C57   C126  A    
H81   O86   S    
C142  O92   S    
C106  C158  A    
C171  C175  A    
C2    C136  A    
C154  C184  S    
C13   C137  A    
O25   Zn4   S    
O35   Zn15  S    
C171  C185  A    
C88   C106  A    
C27   C41   A    
C72   N7    A    
C79   C144  A    
O19   Zn8   S    
C29   C39   A    
C33   C34   A    
O5    Zn5   S    
O17   Zn6   S    
C104  C156  A    
H82   O87   S    
H72   O77   S    
C195  O14   A    
C184  O12   A    
C14   C54   A    
C165  C168  A    
C205  O15   A    
O1    Zn12  S    
O38   Zn14  S    
C73   N8    A    
C19   H3    S    
C13   C126  A    
C146  C196  A    
C34   H18   S    
C37   H20   S    
C3    O27   A    
C148  C189  A    
O33   Zn10  S    
C113  C131  A    
C165  C182  A    
C70   N5    A    
C107  C159  A    
C27   H10   S    
C108  C160  A    
O13   Zn3   S    
C143  C199  A    
C72   O61   S    
C47   C207  S    
C31   C48   A    
C138  O88   S    
C30   H14   S    
O10   Zn11  S    
C38   H21   S    
C4    C59   S    
H80   O85   S    
C215  O25   A    
C115  N1    S    
O31   Zn6   S    
C51   C211  S    
C202  H59   S    
C147  O97   S    
C163  C180  A    
C7    C53   S    
C141  O91   S    
C166  C179  A    
C21   C47   A    
C39   H22   S    
C73   O62   S    
O46   Zn8   S    
