data_mof_unit_67536.cif
_audit_creation_date              2013-03-05T15:41:21-0500
_audit_creation_method            fapswitch 2.2
_symmetry_space_group_name_H-M    P1
_symmetry_Int_Tables_number       1
_space_group_crystal_system       triclinic
_cell_length_a                    10.764266
_cell_length_b                    8.858178
_cell_length_c                    7.604079
_cell_angle_alpha                 102.193694
_cell_angle_beta                  94.452868
_cell_angle_gamma                 95.645711
_cell_volume                      701.647353416

loop_
_atom_site_label
_atom_site_type_symbol
_atom_site_description
_atom_site_fract_x
_atom_site_fract_y
_atom_site_fract_z
_atom_type_partial_charge
O1    O     O_R   0.509190 0.286130 0.619780 -0.519667
O2    O     O_R   0.490810 0.713870 0.380220 -0.505626
O3    O     O_R   0.485310 0.256770 0.308360 -0.624753
O4    O     O_R   0.514690 0.743230 0.691640 -0.630941
C1    C     C_R   0.497677 0.200969 0.453840 0.785708
C2    C     C_R   0.507020 0.799270 0.545665 0.822719
O5    O     O_R   0.328790 0.514640 0.655680 -0.548568
O6    O     O_R   0.671210 0.485360 0.344320 -0.548071
O7    O     O_R   0.304910 0.485280 0.344260 -0.633390
O8    O     O_R   0.695090 0.514720 0.655740 -0.642871
C3    C     C_R   0.260056 0.498486 0.501826 0.808837
C4    C     C_R   0.740080 0.501649 0.498427 0.799683
Cu1   Cu    Cu3+1 0.514140 0.517380 0.684380 0.980268
Cu2   Cu    Cu3+1 0.485860 0.482620 0.315620 0.993471
N1    N     N_2   0.464560 0.456420 0.038510 -0.198443
N2    N     N_2   0.535440 0.543580 0.961490 -0.201771
C5    C     C_3   0.046366 0.501821 0.668665 0.019102
C6    C     C_3   0.954239 0.497661 0.332604 0.019559
C7    C     C_3   0.947628 0.374101 0.552927 -0.233082
C8    C     C_3   0.052799 0.625985 0.448487 -0.232004
H1    H     H_    0.903465 0.270574 0.595401 0.184288
H2    H     H_    0.096627 0.729595 0.405924 0.185992
C9    C     C_3   0.877011 0.502045 0.495090 -0.122521
C10   C     C_3   0.123373 0.498050 0.506302 -0.120490
C11   C     C_3   0.974976 0.628227 0.611533 0.035344
C12   C     C_3   0.025798 0.371741 0.390460 0.036181
C13   C     C_2   0.502363 0.033739 0.427387 0.180850
C14   C     C_2   0.513785 0.967234 0.571876 0.195739
C15   C     C_2   0.091298 0.490123 0.853963 0.331814
H3    H     H_    0.071135 0.380821 0.894573 0.090127
O9    O     O_2   0.152017 0.600260 0.958799 -0.614677
C16   C     C_2   0.909076 0.504743 0.145829 0.329986
H4    H     H_    0.928941 0.612369 0.101620 0.089268
O10   O     O_2   0.848698 0.392458 0.043806 -0.633204
C17   C     C_2   0.946304 0.772475 0.733103 0.343527
H5    H     H_    0.904448 0.764401 0.855973 0.046364
O11   O     O_2   0.970486 0.898628 0.695265 -0.541432
C18   C     C_2   0.058703 0.226578 0.276121 0.347331
H6    H     H_    0.096743 0.230294 0.149489 0.053190
O12   O     O_2   0.043467 0.104554 0.326219 -0.550306
C19   C     C_2   0.348501 0.374128 0.952780 0.696716
H7    H     H_    0.268442 0.377367 0.029084 0.017341
O13   O     O_2   0.339886 0.279390 0.810234 -0.554046
C20   C     C_2   0.652945 0.621634 0.046622 0.675014
H8    H     H_    0.732481 0.616618 0.969565 0.021153
O14   O     O_2   0.663964 0.714255 0.190916 -0.543524
O15   O     O_3   0.515153 0.945569 0.256043 -0.594763
C21   C     C_3   0.419607 0.950911 0.118806 0.085829
H9    H     H_    0.424603 0.849196 0.006885 0.206799
H10   H     H_    0.439573 0.053602 0.059925 0.209452
C22   C     C_3   0.285206 0.937197 0.171284 -0.410954
H11   H     H_    0.264233 0.826000 0.214380 0.258339
H12   H     H_    0.272658 0.034370 0.284551 0.223225
C23   C     C_3   0.194474 0.943273 0.009257 -0.680069
H13   H     H_    0.207910 0.059500 0.976298 0.232227
H14   H     H_    0.096875 0.919277 0.041283 0.272181
H15   H     H_    0.210788 0.856417 0.887420 0.279736
O16   O     O_3   0.514726 0.051380 0.748166 -0.618787
C24   C     C_3   0.639647 0.105976 0.824534 0.120029
H16   H     H_    0.634359 0.207575 0.936615 0.218568
H17   H     H_    0.699490 0.148536 0.727480 0.139476
C25   C     C_3   0.700714 0.981498 0.901173 -0.419725
H18   H     H_    0.632748 0.919348 0.969574 0.267448
H19   H     H_    0.730457 0.896341 0.788401 0.212236
C26   C     C_3   0.812894 0.049350 0.037850 -0.704189
H20   H     H_    0.887518 0.104052 0.970875 0.279193
H21   H     H_    0.849951 0.955060 0.094227 0.255738
H22   H     H_    0.784762 0.135786 0.151766 0.277827

loop_
_geom_bond_atom_site_label_1
_geom_bond_atom_site_label_2
_geom_bond_distance
_ccdc_geom_bond_type
C7    C9    1.543981 S    
O7    Cu2   1.978539 S    
C15   H3    1.084096 S    
C14   O16   1.388167 S    
C5    C15   1.481798 S    
C19   H7    1.074997 S    
N2    C20   1.417288 S    
C25   H19   1.106241 S    
O15   C21   1.418735 S    
C6    C12   1.534531 S    
C1    C13   1.458704 S    
O6    C4    1.310052 A    
C22   C23   1.525217 S    
C5    C11   1.534925 S    
C16   H4    1.083555 S    
C26   H22   1.111064 S    
C21   H10   1.105735 S    
C24   H16   1.110484 S    
C15   O9    1.216389 D    
C18   O12   1.220319 D    
O2    C2    1.312757 A    
Cu1   Cu2   2.744927 S    
O5    C3    1.307913 A    
C19   O13   1.213501 D    
C4    C9    1.475822 S    
C25   H18   1.099847 S    
O3    Cu2   1.989101 S    
O8    C4    1.312007 A    
C11   C17   1.485074 S    
O1    C1    1.315993 A    
N1    N2    1.290634 D    
C13   C14   1.354998 D    
C21   H9    1.109824 S    
C7    H1    1.111067 S    
C10   C12   1.529623 S    
C6    C8    1.545512 S    
O7    C3    1.313044 A    
C18   H6    1.080710 S    
O2    Cu2   1.997421 S    
C23   H14   1.107191 S    
C24   H17   1.115939 S    
C5    C10   1.536056 S    
O1    Cu1   1.997420 S    
C8    C11   1.547068 S    
C22   H12   1.108498 S    
C22   H11   1.110261 S    
C8    C10   1.543595 S    
C3    C10   1.473972 S    
O5    Cu1   1.987332 S    
C9    C11   1.533102 S    
C6    C16   1.481150 S    
C20   H8    1.073626 S    
N1    C19   1.417985 S    
O4    C2    1.308421 A    
C26   H20   1.109323 S    
Cu1   N2    2.062645 S    
C13   O15   1.394881 S    
O4    Cu1   1.989102 S    
C7    C12   1.545537 S    
C23   H13   1.108627 S    
C12   C18   1.483241 S    
C24   C25   1.530403 S    
O6    Cu2   1.987334 S    
C17   H5    1.080887 S    
C20   O14   1.213036 D    
C25   C26   1.515911 S    
C5    C7    1.543282 S    
O16   C24   1.418247 S    
Cu2   N1    2.062645 S    
C26   H21   1.109402 S    
O8    Cu1   1.978539 S    
C21   C22   1.530540 S    
C2    C14   1.452547 S    
C6    C9    1.537772 S    
C17   O11   1.220462 D    
C8    H2    1.110704 S    
O3    C1    1.306479 A    
C23   H15   1.109886 S    
C16   O10   1.217422 D    
