data_mof_unit_41556.cif
_audit_creation_date              2012-12-10T20:28:15-0500
_audit_creation_method            fapswitch 2.2
_symmetry_space_group_name_H-M    P1
_symmetry_Int_Tables_number       1
_space_group_crystal_system       triclinic
_cell_length_a                    18.555177
_cell_length_b                    18.934221
_cell_length_c                    19.01807
_cell_angle_alpha                 110.404544
_cell_angle_beta                  109.294162
_cell_angle_gamma                 109.424305
_cell_volume                      5097.52671669

loop_
_atom_site_label
_atom_site_type_symbol
_atom_type_description
_atom_site_fract_x
_atom_site_fract_y
_atom_site_fract_z
_atom_type_partial_charge
C1    C     C_R   0.381865 0.501253 0.380721 0.894030
C2    C     C_R   0.823691 0.823146 0.576334 -0.204706
C3    C     C_R   0.314522 0.309773 0.831928 0.442813
C4    C     C_R   0.323169 0.250928 0.857584 -0.229127
C5    C     C_R   0.076081 0.316527 0.825880 -0.258366
C6    C     C_R   0.996638 0.314354 0.811174 -0.083532
C7    C     C_R   0.915955 0.246801 0.735078 -0.026936
C8    C     C_R   0.916479 0.180998 0.672521 -0.032236
C9    C     C_R   0.997356 0.183631 0.687613 -0.120609
C10   C     C_1   0.368773 0.496902 0.686022 0.254252
C11   C     C_1   0.848739 0.497060 0.744714 0.149987
C12   C     C_1   0.110986 0.835195 0.131364 0.152938
C13   C     C_R   0.810919 0.812230 0.495922 -0.090740
C14   C     C_1   0.097625 0.121622 0.816928 0.164830
C15   C     C_1   0.832948 0.107876 0.595903 0.245547
C16   C     C_R   0.734417 0.740120 0.417621 0.047017
C17   C     C_R   0.675156 0.676747 0.422501 -0.261987
C18   C     C_R   0.688189 0.687630 0.503038 -0.092624
C19   C     C_R   0.761673 0.762773 0.581256 -0.014552
C20   C     C_R   0.629817 0.715218 0.276794 -0.295961
C21   C     C_R   0.606416 0.704420 0.194104 0.387726
C22   C     C_R   0.669075 0.711372 0.165916 0.376599
C23   C     C_R   0.622525 0.620490 0.502610 0.867153
C24   C     C_R   0.820576 0.819388 0.838952 -0.030487
C25   C     C_R   0.750515 0.722910 0.219129 -0.250016
C26   C     C_R   0.771757 0.731317 0.300236 -0.182659
C27   C     C_R   0.712480 0.729515 0.330647 0.060206
C28   C     C_R   0.453212 0.806711 0.523475 -0.148418
C29   C     C_R   0.383557 0.723671 0.454275 -0.144483
C30   C     C_R   0.399232 0.668349 0.397396 0.138446
C31   C     C_R   0.484993 0.697496 0.409869 -0.107893
C32   C     C_R   0.554333 0.780951 0.478671 -0.121328
C33   C     C_R   0.538561 0.835316 0.535684 -0.099448
C34   C     C_R   0.260961 0.578371 0.256251 -0.226294
C35   C     C_R   0.076737 0.248747 0.767602 0.011406
C36   C     C_R   0.619222 0.500224 0.619651 0.952403
C37   C     C_R   0.190232 0.497937 0.184348 -0.073751
C38   C     C_R   0.181847 0.418433 0.176958 0.050960
C39   C     C_R   0.246552 0.421837 0.242862 -0.180345
C40   C     C_R   0.317405 0.502382 0.314822 -0.087577
C41   C     C_R   0.324958 0.581632 0.322614 0.000985
C42   C     C_R   0.051586 0.270440 0.110641 -0.256196
C43   C     C_R   0.980473 0.188903 0.038512 0.290700
C44   C     C_R   0.966145 0.168970 0.954265 0.330040
C45   C     C_R   0.025662 0.229119 0.945643 -0.259647
C46   C     C_R   0.777651 0.202708 0.743753 -0.066296
C47   C     C_R   0.095850 0.309646 0.017638 -0.205327
C48   C     C_R   0.378119 0.380169 0.498895 0.909406
C49   C     C_R   0.108394 0.331662 0.100538 0.060621
C50   C     C_R   0.283402 0.558137 0.631609 -0.170554
C51   C     C_R   0.295149 0.486083 0.616823 -0.015736
C52   C     C_R   0.239875 0.407978 0.534109 -0.073699
C53   C     C_R   0.172436 0.404571 0.467521 0.444581
C54   C     C_R   0.162273 0.477930 0.484297 -0.190248
C55   C     C_R   0.217187 0.553939 0.565742 -0.206559
C56   C     C_R   0.186738 0.262840 0.519387 -0.139015
C57   C     C_R   0.691102 0.187181 0.713519 -0.066522
C58   C     C_R   0.189535 0.186442 0.503652 -0.070398
C59   C     C_R   0.257454 0.176234 0.492742 0.003204
C60   C     C_R   0.745739 0.816853 0.785497 -0.015976
C61   C     C_R   0.318344 0.241216 0.491120 -0.234936
C62   C     C_R   0.313136 0.315918 0.502228 -0.070513
C63   C     C_R   0.248332 0.328867 0.519320 0.052213
C64   C     C_R   0.341233 0.109390 0.546337 -0.123608
C65   C     C_R   0.353745 0.038214 0.534810 -0.145684
C66   C     C_R   0.292682 0.956718 0.458916 -0.121427
C67   C     C_R   0.218712 0.946158 0.394781 -0.105258
C68   C     C_R   0.657871 0.214687 0.657454 -0.083504
C69   C     C_R   0.205312 0.016951 0.406428 -0.137737
C70   C     C_R   0.266808 0.099153 0.482293 0.121124
C71   C     C_2   0.727103 0.437433 0.770336 0.363625
C72   C     C_R   0.726832 0.799758 0.701831 -0.021305
C73   C     C_2   0.815509 0.477459 0.799041 -0.295997
C74   C     C_2   0.666607 0.428851 0.691331 -0.240989
C75   C     C_2   0.682747 0.500901 0.687576 -0.303014
C76   C     C_R   0.999196 0.877985 0.380540 0.854314
C77   C     C_R   0.878820 0.878448 0.497656 0.867792
C78   C     C_R   0.998864 0.119542 0.619975 0.871866
C79   C     C_R   0.711403 0.258254 0.632004 -0.139822
C80   C     C_R   0.121152 0.119297 0.500196 0.862792
C81   C     C_R   0.999677 0.380156 0.880023 0.865716
C82   C     C_R   0.123261 0.498943 0.120740 0.859481
C83   C     C_R   0.002664 0.620053 0.122602 0.872581
C84   C     C_R   0.779303 0.779057 0.668925 0.104532
C85   C     C_R   0.882220 0.496197 0.880598 0.931764
C86   C     C_R   0.132313 0.786727 0.555487 -0.153886
C87   C     C_R   0.118203 0.789826 0.479967 -0.102096
C88   C     C_R   0.032063 0.743732 0.408661 0.135434
C89   C     C_R   0.960674 0.692354 0.412691 -0.166437
C90   C     C_R   0.797901 0.273714 0.661937 -0.164287
C91   C     C_R   0.974944 0.689717 0.488441 -0.110805
C92   C     C_R   0.060680 0.737072 0.559890 -0.108152
C93   C     C_R   0.018083 0.685886 0.264700 -0.249801
C94   C     C_R   0.001758 0.685888 0.187818 -0.057575
C95   C     C_R   0.982244 0.746556 0.172937 0.000823
C96   C     C_R   0.855298 0.783539 0.723719 -0.153246
C97   C     C_R   0.980332 0.808291 0.236727 -0.250586
C98   C     C_R   0.998481 0.809992 0.314957 -0.109459
C99   C     C_R   0.016846 0.747838 0.329195 -0.002221
C100  C     C_R   0.018119 0.778234 0.066717 0.075531
C101  C     C_R   0.831303 0.245437 0.717499 0.066195
C102  C     C_R   0.990435 0.757792 0.980699 -0.138630
C103  C     C_R   0.901042 0.701629 0.916891 -0.200041
C104  C     C_R   0.838295 0.668703 0.938995 -0.104747
C105  C     C_R   0.865422 0.687124 0.023985 -0.046029
C106  C     C_R   0.955323 0.740211 0.087823 0.007102
C107  C     C_R   0.251558 0.190427 0.853399 -0.253133
C108  C     C_R   0.876768 0.805600 0.808863 -0.155484
C109  C     C_R   0.170504 0.187969 0.823361 0.076895
C110  C     C_R   0.160591 0.246523 0.795960 0.029929
C111  C     C_R   0.233477 0.307542 0.801115 -0.248675
H1    H     H_    0.836757 0.835150 0.904614 0.172432
H2    H     H_    0.241726 0.361475 0.238171 0.183585
H3    H     H_    0.704043 0.830875 0.809849 0.151550
H4    H     H_    0.062527 0.287062 0.174962 0.260920
H5    H     H_    0.017578 0.213101 0.882408 0.205163
H6    H     H_    0.140613 0.355030 0.008953 0.143999
H7    H     H_    0.208703 0.610062 0.577682 0.161592
H8    H     H_    0.326286 0.618265 0.694300 0.151243
H9    H     H_    0.111562 0.476713 0.434238 0.186684
H10   H     H_    0.671582 0.802948 0.662962 0.140636
H11   H     H_    0.135711 0.270669 0.531137 0.157427
H12   H     H_    0.798282 0.725746 0.197953 0.200168
H13   H     H_    0.370338 0.233567 0.481406 0.158332
H14   H     H_    0.389674 0.172579 0.604874 0.144800
H15   H     H_    0.411226 0.046456 0.584323 0.133639
H16   H     H_    0.302850 0.901814 0.449631 0.125256
H17   H     H_    0.172336 0.883217 0.335709 0.154652
H18   H     H_    0.148254 0.008202 0.355831 0.122058
H19   H     H_    0.605165 0.367404 0.642274 0.145628
H20   H     H_    0.898984 0.771956 0.701076 0.135675
H21   H     H_    0.738124 0.564119 0.741945 0.126107
H22   H     H_    0.071660 0.734875 0.618446 0.130567
H23   H     H_    0.835100 0.740731 0.339967 0.130506
H24   H     H_    0.198739 0.822908 0.610620 0.129590
H25   H     H_    0.174024 0.828631 0.477277 0.123745
H26   H     H_    0.894279 0.654010 0.357177 0.134176
H27   H     H_    0.919604 0.650679 0.491615 0.141175
H28   H     H_    0.031918 0.637571 0.274332 0.153057
H29   H     H_    0.965148 0.855262 0.225409 0.190229
H30   H     H_    0.038122 0.783913 0.962640 0.131301
H31   H     H_    0.937717 0.813068 0.851713 0.135992
H32   H     H_    0.880453 0.682817 0.849997 0.143342
H33   H     H_    0.768915 0.626528 0.889807 0.184520
H34   H     H_    0.592372 0.899751 0.589020 0.155870
H35   H     H_    0.816796 0.657608 0.039617 0.207173
H36   H     H_    0.385233 0.251582 0.880606 0.187137
H37   H     H_    0.259273 0.144989 0.873197 0.159998
H38   H     H_    0.227057 0.353235 0.781160 0.176621
H39   H     H_    0.136989 0.368073 0.886401 0.164964
H40   H     H_    0.881653 0.880410 0.635979 0.190750
H41   H     H_    0.801920 0.179425 0.785573 0.191519
H42   H     H_    0.649564 0.153347 0.733122 0.149419
H43   H     H_    0.590808 0.202568 0.634050 0.119465
H44   H     H_    0.685598 0.279286 0.588373 0.147149
H45   H     H_    0.440925 0.849050 0.567344 0.132755
H46   H     H_    0.837860 0.305079 0.639629 0.152216
H47   H     H_    0.617088 0.619444 0.363093 0.165061
H48   H     H_    0.583582 0.713072 0.299988 0.201527
H49   H     H_    0.578877 0.742203 0.983266 0.385985
H50   H     H_    0.008855 0.128741 0.168993 0.357697
H51   H     H_    0.963750 0.019207 0.901462 0.343086
H52   H     H_    0.158844 0.232152 0.324263 0.366160
H53   H     H_    0.540970 0.318187 0.730179 0.335440
H54   H     H_    0.506855 0.429717 0.964783 0.360627
H55   H     H_    0.374740 0.635118 0.129529 0.384863
H56   H     H_    0.317551 0.702386 0.445046 0.126055
H57   H     H_    0.497575 0.655922 0.365698 0.119193
H58   H     H_    0.620235 0.803801 0.487676 0.155198
H59   H     H_    0.265564 0.638752 0.261165 0.159054
N1    N     N_1   0.429545 0.507371 0.741187 -0.030267
N2    N     N_1   0.875253 0.512627 0.701611 -0.195169
N3    N     N_1   0.185443 0.880843 0.183184 -0.196121
N4    N     N_1   0.039297 0.067281 0.810785 -0.159023
N5    N     N_1   0.766379 0.049640 0.535104 -0.174354
O1    O     O_R   0.408620 0.551720 0.460350 -0.611853
O2    O     O_R   0.952100 0.356700 0.912170 -0.619212
O3    O     O_R   0.145980 0.551740 0.094190 -0.625666
O4    O     O_R   0.409320 0.448300 0.357580 -0.620421
O5    O     O_R   0.042530 0.448320 0.094220 -0.602913
O6    O     O_R   0.054350 0.643370 0.094170 -0.626279
O7    O     O_R   0.950900 0.539950 0.094200 -0.596432
O8    O     O_R   0.963910 0.551750 0.912120 -0.623550
O9    O     O_R   0.860470 0.448330 0.912150 -0.541309
O10   O     O_R   0.591270 0.643330 0.551380 -0.641136
O11   O     O_R   0.591970 0.539910 0.448620 -0.616368
O12   O     O_R   0.949210 0.908400 0.357560 -0.613799
O13   O     O_R   0.590680 0.551700 0.642420 -0.615635
O14   O     O_R   0.591380 0.448280 0.539650 -0.618317
O15   O     O_R   0.408030 0.460090 0.551380 -0.628907
O16   O     O_R   0.408730 0.356670 0.448620 -0.622145
O17   O     O_R   0.051990 0.908360 0.460320 -0.612413
O18   O     O_2   0.737180 0.750403 0.071111 -0.336522
O19   O     O_2   0.598568 0.612040 0.994845 -0.203024
O20   O     O_3   0.593650 0.756099 0.043233 -0.456808
O21   O     O_2   0.827920 0.120200 0.035959 -0.189775
O22   O     O_2   0.887515 0.023686 0.001657 -0.287432
O23   O     O_R   0.959770 0.908340 0.551360 -0.624093
O24   O     O_3   0.961962 0.144230 0.161975 -0.437180
O25   O     O_2   0.793353 0.044222 0.859059 -0.227133
O26   O     O_2   0.866842 0.075939 0.779323 -0.340174
O27   O     O_3   0.903588 0.990011 0.851267 -0.500696
O28   O     O_2   0.044154 0.235990 0.366109 -0.276679
O29   O     O_2   0.041628 0.328591 0.303809 -0.260619
O30   O     O_3   0.161838 0.283995 0.320884 -0.612925
O31   O     O_2   0.686197 0.333989 0.836083 -0.303682
O32   O     O_2   0.724565 0.485111 0.920045 -0.255734
O33   O     O_3   0.571083 0.378344 0.779973 -0.428686
O34   O     O_R   0.856990 0.908380 0.448600 -0.602750
O35   O     O_2   0.393773 0.350612 0.747909 -0.273699
O36   O     O_2   0.406413 0.470921 0.865941 -0.242340
O37   O     O_3   0.500503 0.400719 0.906765 -0.443031
O38   O     O_2   0.503018 0.764471 0.135533 -0.237934
O39   O     O_2   0.459260 0.613997 0.036800 -0.209656
O40   O     O_3   0.432839 0.644503 0.167280 -0.590721
O41   O     O_R   0.050790 0.091560 0.642400 -0.620315
O42   O     O_R   0.948010 0.091600 0.539640 -0.613000
O43   O     O_R   0.143010 0.091580 0.551350 -0.610848
O44   O     O_R   0.040230 0.091620 0.448600 -0.588594
O45   O     O_R   0.055540 0.460120 0.912140 -0.619933
S1    S     S_3+6 0.650212 0.706262 0.066150 0.082730
S2    S     S_3+6 0.911353 0.116002 0.057265 0.098764
S3    S     S_3+6 0.878686 0.068821 0.858185 0.047446
S4    S     S_3+6 0.101039 0.310808 0.362123 0.014569
S5    S     S_3+6 0.678701 0.408398 0.829792 0.070382
S6    S     S_3+6 0.404820 0.385505 0.837140 0.075088
S7    S     S_3+6 0.498419 0.681789 0.129930 0.069999
Zn1   Zn    Zn3+2 0.499530 0.569060 0.568620 0.971545
Zn2   Zn    Zn3+2 0.500470 0.430940 0.431380 0.984670
Zn3   Zn    Zn3+2 0.068630 0.999950 0.568590 0.988663
Zn4   Zn    Zn3+2 0.931370 0.000000 0.431370 1.061024
Zn5   Zn    Zn3+2 0.072290 0.569090 0.003150 0.995293
Zn6   Zn    Zn3+2 0.934150 0.430980 0.003190 1.084141

loop_
_geom_bond_atom_site_label_1
_geom_bond_atom_site_label_2
_ccdc_geom_bond_type
C14   C109  S    
C46   H41   S    
C87   C88   A    
C1    O1    A    
C93   C94   A    
C54   H9    S    
C72   H10   S    
C34   C37   A    
C107  C109  A    
C60   H3    S    
C92   H22   S    
C24   H1    S    
C32   H58   S    
C80   O44   A    
C108  H31   S    
C97   C98   A    
H52   O30   S    
C7    C8    A    
C47   C49   A    
C38   C49   S    
C53   C54   A    
C52   C53   A    
C53   S4    S    
O17   Zn3   S    
C26   C27   A    
C62   C63   A    
H51   O27   S    
C61   H13   S    
C76   O17   A    
C28   C29   A    
C95   C106  S    
C37   C38   A    
C68   H43   S    
C78   O42   A    
C80   O43   A    
C30   C31   A    
C9    C35   A    
C60   C72   A    
O6    Zn5   S    
C76   C98   S    
O37   S6    S    
O39   S7    D    
C66   H16   S    
C83   O6    A    
C1    O4    A    
C18   C19   A    
O34   Zn4   S    
C2    C13   A    
C110  C111  A    
O43   Zn3   S    
C79   C90   A    
C26   H23   S    
O7    Zn6   S    
C54   C55   A    
O32   S5    D    
C4    C107  A    
C3    C111  A    
C16   C17   A    
C48   O16   A    
C22   C25   A    
O41   Zn3   S    
C104  H33   S    
C30   C41   S    
C24   C108  A    
C102  H30   S    
C64   C70   A    
O4    Zn2   S    
C77   O23   A    
C93   C99   A    
C97   H29   S    
C48   O15   A    
C61   C62   A    
C1    C40   S    
C77   O34   A    
H55   O40   S    
O12   Zn4   S    
C68   C79   A    
O18   S1    D    
C66   C67   A    
C96   C108  A    
C11   N2    T    
C85   O8    A    
C6    C81   S    
C21   C22   A    
O29   S4    D    
O35   S6    D    
C102  C103  A    
C34   C41   A    
O1    Zn1   S    
C10   C51   S    
C111  H38   S    
C104  C105  A    
C22   S1    S    
C50   C51   A    
C45   C47   A    
C38   C39   A    
C21   S7    S    
C46   C101  A    
C13   C77   S    
C59   C61   A    
C74   C75   D    
H50   O24   S    
C18   C23   S    
C43   S2    S    
O22   S2    D    
H53   O33   S    
C78   O41   A    
C91   C92   A    
C71   C73   D    
O45   Zn5   S    
C86   C87   A    
C8    C9    A    
O2    Zn6   S    
C59   C70   S    
C39   H2    S    
C10   N1    T    
C81   O45   A    
C57   H42   S    
O36   S6    D    
C5    H39   S    
C36   O14   A    
C83   O7    A    
C103  H32   S    
C31   H57   S    
C36   O13   A    
C56   H11   S    
O14   Zn2   S    
C43   C44   A    
C90   C101  A    
O3    Zn5   S    
C29   C30   A    
C93   H28   S    
C36   C75   S    
O33   S5    S    
C23   O11   A    
C91   H27   S    
C86   H24   S    
C48   C62   S    
C31   C32   A    
C24   C60   A    
C82   O3    A    
O31   S5    D    
C100  C102  A    
C17   C18   A    
C56   C63   A    
C94   C95   A    
C44   S3    S    
C20   C21   A    
C17   H47   S    
C25   H12   S    
C3    S6    S    
C73   C85   S    
C72   C84   A    
C35   C110  S    
C33   H34   S    
C96   H20   S    
C40   C41   A    
C76   O12   A    
O5    Zn6   S    
C64   H14   S    
C8    C15   S    
C89   H26   S    
O19   S1    D    
C46   C57   A    
C11   C73   S    
O15   Zn1   S    
C37   C82   S    
C58   C59   A    
C89   C91   A    
C42   C43   A    
O26   S3    D    
C57   C68   A    
C19   C84   S    
C84   C96   A    
O23   Zn3   S    
C39   C40   A    
C75   H21   S    
C23   O10   A    
C20   H48   S    
C2    H40   S    
O11   Zn2   S    
O38   S7    D    
C32   C33   A    
C83   C94   S    
C2    C19   A    
O25   S3    D    
C87   H25   S    
C44   C45   A    
O44   Zn4   S    
O13   Zn1   S    
C52   C63   S    
C34   H59   S    
C28   C33   A    
C71   C74   S    
H49   O20   S    
C95   C97   A    
H54   O37   S    
C6    C7    A    
C4    H36   S    
C20   C27   A    
C58   C80   S    
O16   Zn2   S    
C85   O9    A    
C105  C106  A    
O30   S4    S    
C100  C106  A    
C50   C55   A    
C15   N5    T    
C65   H15   S    
C29   H56   S    
C90   H46   S    
C74   H19   S    
C25   C26   A    
C81   O2    A    
C51   C52   A    
C14   N4    T    
C86   C92   A    
C109  C110  A    
O42   Zn4   S    
C107  H37   S    
O10   Zn1   S    
C45   H5    S    
C5    C6    A    
C16   C27   S    
C105  H35   S    
C5    C35   A    
C64   C65   A    
C56   C58   A    
O28   S4    D    
O27   S3    S    
O40   S7    S    
C9    C78   S    
C65   C66   A    
O20   S1    S    
C69   C70   A    
O9    Zn6   S    
C12   C100  S    
C88   C99   S    
C42   C49   A    
C79   H44   S    
C50   H8    S    
C42   H4    S    
C47   H6    S    
C88   C89   A    
C69   H18   S    
C98   C99   A    
C7    C101  S    
C13   C16   A    
C82   O5    A    
C103  C104  A    
C28   H45   S    
O24   S2    S    
C67   C69   A    
C67   H17   S    
O8    Zn5   S    
C71   S5    S    
O21   S2    D    
C3    C4    A    
C12   N3    T    
C55   H7    S    
