data_mof_unit_63060.cif
_audit_creation_date              2013-03-05T16:13:53-0500
_audit_creation_method            fapswitch 2.2
_symmetry_space_group_name_H-M    P1
_symmetry_Int_Tables_number       1
_space_group_crystal_system       triclinic
_cell_length_a                    37.283588
_cell_length_b                    30.431532
_cell_length_c                    21.698962
_cell_angle_alpha                 90.001224
_cell_angle_beta                  54.523529
_cell_angle_gamma                 90.0002
_cell_volume                      20049.0439159

loop_
_atom_site_label
_atom_site_type_symbol
_atom_site_description
_atom_site_fract_x
_atom_site_fract_y
_atom_site_fract_z
_atom_type_partial_charge
O1    O     O_R   0.064270 0.537190 0.435730 -0.576331
O2    O     O_R   0.935730 0.537190 0.564270 -0.576159
O3    O     O_R   0.564270 0.037190 0.435730 -0.576229
O4    O     O_R   0.435730 0.037190 0.564270 -0.576292
O5    O     O_R   0.064260 0.462790 0.435740 -0.579798
O6    O     O_R   0.935740 0.462790 0.564260 -0.579704
O7    O     O_R   0.564260 0.962790 0.435740 -0.579756
O8    O     O_R   0.435740 0.962790 0.564260 -0.579790
C1    C     C_R   0.085015 0.499949 0.414920 0.802664
C2    C     C_R   0.914985 0.499949 0.585056 0.801994
C3    C     C_R   0.585016 0.999948 0.414942 0.802208
C4    C     C_R   0.414984 0.999949 0.585068 0.802444
O9    O     O_R   1.000000 0.537190 0.590180 -0.569500
O10   O     O_R   0.000000 0.537190 0.409820 -0.569713
O11   O     O_R   0.500000 0.037190 0.590180 -0.569613
O12   O     O_R   0.500000 0.037190 0.409820 -0.569537
O13   O     O_R   0.999990 0.462790 0.590190 -0.584300
O14   O     O_R   0.000010 0.462790 0.409810 -0.584273
O15   O     O_R   0.499990 0.962790 0.590190 -0.584279
O16   O     O_R   0.500010 0.962790 0.409810 -0.584287
C5    C     C_R   0.999089 0.499984 0.619796 0.786559
C6    C     C_R   0.000892 0.499981 0.380225 0.787062
C7    C     C_R   0.499098 0.999982 0.619785 0.786857
C8    C     C_R   0.500909 0.999982 0.380207 0.786690
Cu1   Cu    Cu3+1 1.000000 0.544040 0.500000 1.018094
Cu2   Cu    Cu3+1 0.500000 0.044040 0.500000 1.017999
Cu3   Cu    Cu3+1 1.000000 0.455940 0.500000 0.999974
Cu4   Cu    Cu3+1 0.500000 0.955940 0.500000 0.999946
C9    C     C_R   0.911131 0.631251 0.754056 0.329865
C10   C     C_R   0.088886 0.630772 0.247364 0.329388
C11   C     C_R   0.411039 0.130964 0.753452 0.329606
C12   C     C_R   0.588967 0.131115 0.246060 0.329775
C13   C     C_R   0.942356 0.603695 0.750569 -0.147792
C14   C     C_R   0.057627 0.603396 0.250606 -0.146265
C15   C     C_R   0.442307 0.103516 0.750040 -0.147026
C16   C     C_R   0.557708 0.103610 0.249556 -0.147539
H1    H     H_    0.969898 0.617931 0.747812 0.186704
H2    H     H_    0.029870 0.617780 0.254227 0.186504
H3    H     H_    0.469954 0.117845 0.746839 0.186616
H4    H     H_    0.530136 0.117890 0.252462 0.186676
C17   C     C_R   0.938420 0.557939 0.750104 0.045938
C18   C     C_R   0.061790 0.557620 0.249795 0.045354
C19   C     C_R   0.438284 0.057747 0.750188 0.045641
C20   C     C_R   0.561650 0.057847 0.249844 0.045836
C21   C     C_R   0.902492 0.539735 0.754537 -0.182597
C22   C     C_R   0.097959 0.539216 0.244330 -0.184826
C23   C     C_R   0.402237 0.039420 0.755155 -0.183811
C24   C     C_R   0.597613 0.039585 0.245228 -0.183049
H5    H     H_    0.898683 0.504403 0.755308 0.143349
H6    H     H_    0.101900 0.503870 0.242659 0.144826
H7    H     H_    0.398382 0.004077 0.756358 0.144132
H8    H     H_    0.601420 0.004248 0.244331 0.143632
C25   C     C_R   0.870855 0.566968 0.759260 -0.136312
C26   C     C_R   0.129641 0.566277 0.239795 -0.136526
C27   C     C_R   0.370550 0.066547 0.759836 -0.136520
C28   C     C_R   0.629287 0.066768 0.240481 -0.136439
H9    H     H_    0.843033 0.551994 0.763983 0.197710
H10   H     H_    0.157642 0.551160 0.234285 0.197942
H11   H     H_    0.342639 0.051484 0.764974 0.197830
H12   H     H_    0.657137 0.051750 0.235610 0.197755
C29   C     C_R   0.874893 0.612953 0.758375 -0.025610
C30   C     C_R   0.125388 0.612275 0.241965 -0.024948
C31   C     C_R   0.374668 0.112544 0.758337 -0.025205
C32   C     C_R   0.625247 0.112759 0.241543 -0.025453
C33   C     C_R   0.972370 0.528466 0.810921 -0.213340
C34   C     C_R   0.027741 0.528362 0.189005 -0.212964
C35   C     C_R   0.472302 0.028402 0.810970 -0.213135
C36   C     C_R   0.527662 0.028433 0.189054 -0.213261
H13   H     H_    0.951609 0.550791 0.857629 0.156059
H14   H     H_    0.048598 0.550616 0.142235 0.156390
H15   H     H_    0.451482 0.050681 0.857721 0.156246
H16   H     H_    0.548452 0.050734 0.142325 0.156140
C37   C     C_R   0.999869 0.498973 0.814439 -0.081654
C38   C     C_R   0.000130 0.498977 0.185573 -0.082048
C39   C     C_R   0.499870 0.998975 0.814432 -0.081885
C40   C     C_R   0.500129 0.998972 0.185565 -0.081746
C41   C     C_R   0.026088 0.469036 0.755096 -0.016211
C42   C     C_R   0.973796 0.469130 0.245020 -0.016006
C43   C     C_R   0.526161 0.969095 0.755020 -0.016095
C44   C     C_R   0.473875 0.969065 0.244942 -0.016165
C45   C     C_R   0.025114 0.469887 0.691963 -0.221368
C46   C     C_R   0.974745 0.469982 0.308178 -0.221583
C47   C     C_R   0.525201 0.969947 0.691874 -0.221470
C48   C     C_R   0.474846 0.969916 0.308078 -0.221407
H17   H     H_    0.045488 0.447060 0.645917 0.164768
H18   H     H_    0.954289 0.447228 0.354301 0.164604
H19   H     H_    0.545626 0.947167 0.645777 0.164670
H20   H     H_    0.454447 0.947113 0.354149 0.164724
C49   C     C_R   0.998081 0.499813 0.687813 -0.071267
C50   C     C_R   0.001882 0.499807 0.312235 -0.071133
C51   C     C_R   0.498101 0.999811 0.687786 -0.071186
C52   C     C_R   0.501913 0.999811 0.312196 -0.071231
C53   C     C_R   0.970866 0.528966 0.748258 0.039866
C54   C     C_R   0.029222 0.528841 0.251689 0.039373
C55   C     C_R   0.470809 0.028890 0.748297 0.039607
C56   C     C_R   0.529164 0.028928 0.251720 0.039774
C57   C     C_R   0.097738 0.442688 0.723898 -0.088347
C58   C     C_R   0.902081 0.442958 0.276277 -0.088386
C59   C     C_R   0.597859 0.942858 0.723753 -0.088384
C60   C     C_R   0.402198 0.942785 0.276175 -0.088350
H21   H     H_    0.112342 0.473372 0.694382 0.148996
H22   H     H_    0.887543 0.473663 0.305771 0.148971
H23   H     H_    0.612420 0.973554 0.694242 0.148986
H24   H     H_    0.387621 0.973479 0.305677 0.148998
C61   C     C_R   0.124183 0.411301 0.726259 -0.222939
C62   C     C_R   0.875572 0.411656 0.273909 -0.222925
C63   C     C_R   0.624350 0.911526 0.726105 -0.222904
C64   C     C_R   0.375724 0.911426 0.273831 -0.222922
H25   H     H_    0.158843 0.418222 0.698472 0.139319
H26   H     H_    0.840929 0.418662 0.301675 0.139306
H27   H     H_    0.659001 0.918499 0.698313 0.139330
H28   H     H_    0.341070 0.918380 0.301618 0.139331
C65   C     C_R   0.106215 0.371261 0.763618 0.020020
C66   C     C_R   0.893457 0.371599 0.236551 0.019970
C67   C     C_R   0.606437 0.871478 0.763474 0.019935
C68   C     C_R   0.393657 0.871375 0.236487 0.019974
C69   C     C_R   0.061189 0.363033 0.799069 -0.075710
C70   C     C_R   0.938461 0.363259 0.201134 -0.075734
C71   C     C_R   0.561422 0.863181 0.798928 -0.075744
C72   C     C_R   0.438676 0.863104 0.201038 -0.075745
H29   H     H_    0.047289 0.332005 0.827794 0.208646
H30   H     H_    0.952295 0.332213 0.172428 0.208621
H31   H     H_    0.547566 0.832143 0.827647 0.208630
H32   H     H_    0.452548 0.832066 0.172331 0.208642
C73   C     C_R   0.033992 0.394578 0.797827 -0.039979
C74   C     C_R   0.965722 0.394715 0.202386 -0.039789
C75   C     C_R   0.534180 0.894669 0.797694 -0.039845
C76   C     C_R   0.465902 0.894620 0.202262 -0.039913
C77   C     C_R   0.052727 0.434845 0.759594 0.021881
C78   C     C_R   0.947074 0.435010 0.240589 0.022143
C79   C     C_R   0.552857 0.934951 0.759467 0.022055
C80   C     C_R   0.447203 0.934901 0.240475 0.021956
C81   C     C_R   0.201412 0.465826 0.263253 0.397370
C82   C     C_R   0.798588 0.465926 0.736884 0.397843
C83   C     C_R   0.701416 0.965839 0.263278 0.397763
C84   C     C_R   0.298584 0.965801 0.736663 0.397612
C85   C     C_R   0.155497 0.466094 0.311862 -0.229866
C86   C     C_R   0.844504 0.466184 0.688275 -0.229579
C87   C     C_R   0.655501 0.966108 0.311875 -0.229570
C88   C     C_R   0.344500 0.966074 0.688068 -0.229647
H33   H     H_    0.137130 0.440779 0.306237 0.189171
H34   H     H_    0.862872 0.440939 0.694042 0.189012
H35   H     H_    0.637137 0.940807 0.306213 0.189128
H36   H     H_    0.362863 0.940745 0.693671 0.189188
C89   C     C_R   0.133209 0.499624 0.365503 -0.116906
C90   C     C_R   0.866793 0.499622 0.634449 -0.117305
C91   C     C_R   0.633209 0.999619 0.365552 -0.117339
C92   C     C_R   0.366790 0.999621 0.634467 -0.117221
C93   C     C_R   0.157170 0.533074 0.370493 -0.157900
C94   C     C_R   0.842835 0.532988 0.629260 -0.158121
C95   C     C_R   0.657167 0.033049 0.370599 -0.158167
C96   C     C_R   0.342830 0.033085 0.629502 -0.158101
H37   H     H_    0.140436 0.559311 0.411468 0.172865
H38   H     H_    0.859572 0.559152 0.588135 0.173089
H39   H     H_    0.640430 0.059270 0.411605 0.173129
H40   H     H_    0.359565 0.059334 0.588558 0.173069
C97   C     C_R   0.203027 0.532389 0.323601 -0.168288
C98   C     C_R   0.796976 0.532311 0.676160 -0.169358
C99   C     C_R   0.703025 0.032369 0.323704 -0.169099
C100  C     C_R   0.296972 0.032401 0.676393 -0.168757
H41   H     H_    0.220931 0.558004 0.329710 0.169666
H42   H     H_    0.779073 0.557857 0.669906 0.169662
H43   H     H_    0.720928 0.057971 0.329840 0.169752
H44   H     H_    0.279068 0.058031 0.670318 0.169764
C101  C     C_R   0.225657 0.498764 0.269897 0.008118
C102  C     C_R   0.774344 0.498777 0.730056 0.008092
C103  C     C_R   0.725657 0.998763 0.269961 0.008026
C104  C     C_R   0.274342 0.998759 0.730055 0.008026
C105  C     C_R   0.297316 0.537252 0.184762 -0.108345
C106  C     C_R   0.702685 0.537308 0.814994 -0.108399
C107  C     C_R   0.797312 0.037252 0.184800 -0.108427
C108  C     C_R   0.202686 0.037228 0.815307 -0.108428
H45   H     H_    0.279084 0.566574 0.190548 0.205727
H46   H     H_    0.720920 0.566664 0.809040 0.205120
H47   H     H_    0.779076 0.066572 0.190592 0.205310
H48   H     H_    0.220920 0.066534 0.809590 0.205498
C109  C     C_R   0.343375 0.538504 0.141732 -0.014762
C110  C     C_R   0.656624 0.538551 0.858046 -0.014661
C111  C     C_R   0.843373 0.038502 0.141734 -0.014638
C112  C     C_R   0.156626 0.038482 0.858365 -0.014658
C113  C     C_R   0.366790 0.499730 0.133373 -0.176362
C114  C     C_R   0.633209 0.499735 0.866624 -0.176315
C115  C     C_R   0.866790 0.999730 0.133378 -0.176381
C116  C     C_R   0.133211 0.999728 0.866622 -0.176411
C117  C     C_R   0.343693 0.460760 0.171490 -0.034043
C118  C     C_R   0.656304 0.460724 0.828712 -0.034020
C119  C     C_R   0.843695 0.960763 0.171517 -0.034039
C120  C     C_R   0.156308 0.960780 0.828388 -0.034036
C121  C     C_R   0.297517 0.461118 0.216622 -0.044106
C122  C     C_R   0.702480 0.461083 0.783562 -0.044064
C123  C     C_R   0.797520 0.961121 0.216670 -0.044064
C124  C     C_R   0.202483 0.961138 0.783242 -0.044087
H49   H     H_    0.279379 0.431946 0.247939 0.202954
H50   H     H_    0.720615 0.431874 0.752401 0.202934
H51   H     H_    0.779383 0.931950 0.247993 0.202908
H52   H     H_    0.220623 0.931983 0.751848 0.202907
C125  C     C_R   0.274286 0.498779 0.222010 0.032668
C126  C     C_R   0.725714 0.498795 0.777952 0.032712
C127  C     C_R   0.774286 0.998781 0.222066 0.032718
C128  C     C_R   0.225714 0.998776 0.777946 0.032712
O17   O     O_R   0.962800 0.435700 0.037190 -0.585707
O18   O     O_R   0.037200 0.435700 0.962810 -0.585687
O19   O     O_R   0.462800 0.935700 0.037190 -0.585693
O20   O     O_R   0.537200 0.935700 0.962810 -0.585710
C129  C     C_R   1.000000 0.414975 0.999999 0.795195
C130  C     C_R   0.500000 0.914974 0.000004 0.795162
O21   O     O_R   0.962790 0.499970 0.947030 -0.581483
O22   O     O_R   0.037210 0.499970 0.052970 -0.581540
O23   O     O_R   0.462790 0.999970 0.947030 -0.581517
O24   O     O_R   0.537210 0.999970 0.052970 -0.581499
O25   O     O_R   0.037190 0.499990 0.872630 -0.577137
O26   O     O_R   0.962810 0.499990 0.127370 -0.577081
O27   O     O_R   0.537190 0.999990 0.872630 -0.577094
O28   O     O_R   0.462810 0.999990 0.127370 -0.577121
C131  C     C_R   0.999969 0.499451 0.881182 0.779252
C132  C     C_R   0.000032 0.499462 0.118821 0.779212
C133  C     C_R   0.499968 0.999456 0.881180 0.779219
C134  C     C_R   0.500031 0.999451 0.118819 0.779231
Cu5   Cu    Cu3+1 0.955940 0.499960 0.044050 0.984852
Cu6   Cu    Cu3+1 0.044060 0.499960 0.955950 0.984737
Cu7   Cu    Cu3+1 0.455940 0.999960 0.044050 0.984793
Cu8   Cu    Cu3+1 0.544060 0.999960 0.955950 0.984837
O29   O     O_R   0.962790 0.564230 0.037210 -0.576223
O30   O     O_R   0.037210 0.564230 0.962790 -0.576264
O31   O     O_R   0.462790 0.064230 0.037210 -0.576241
O32   O     O_R   0.537210 0.064230 0.962790 -0.576220
C135  C     C_R   0.999999 0.584843 0.999998 0.726639
C136  C     C_R   0.500000 0.084843 0.000000 0.726649
O33   O     O_R   0.499980 0.435740 0.052200 -0.582128
O34   O     O_R   0.500020 0.435740 0.947800 -0.582082
O35   O     O_R   0.999980 0.935740 0.052200 -0.582114
O36   O     O_R   0.000020 0.935740 0.947800 -0.582122
C137  C     C_R   0.499999 0.414917 0.000000 0.755484
C138  C     C_R   0.000000 0.914917 0.999999 0.755505
O37   O     O_R   0.435720 0.500010 0.116470 -0.574160
O38   O     O_R   0.564280 0.500010 0.883530 -0.574113
O39   O     O_R   0.935720 0.000010 0.116470 -0.574153
O40   O     O_R   0.064280 0.000010 0.883530 -0.574158
O41   O     O_R   0.435720 0.500010 0.012080 -0.568940
O42   O     O_R   0.564280 0.500010 0.987920 -0.568932
O43   O     O_R   0.935720 0.000010 0.012080 -0.568937
O44   O     O_R   0.064280 0.000010 0.987920 -0.568955
C139  C     C_R   0.415087 0.499950 0.084921 0.735371
C140  C     C_R   0.584913 0.499955 0.915079 0.735303
C141  C     C_R   0.915087 0.999951 0.084922 0.735359
C142  C     C_R   0.084914 0.999949 0.915078 0.735382
Cu9   Cu    Cu3+1 0.499990 0.500000 0.061810 1.000585
Cu10  Cu    Cu3+1 0.500010 0.500000 0.938190 1.000535
Cu11  Cu    Cu3+1 0.999990 1.000000 0.061810 1.000539
Cu12  Cu    Cu3+1 0.000010 0.000000 0.938190 1.000609
O45   O     O_R   0.500000 0.564270 0.052190 -0.588666
O46   O     O_R   0.500000 0.564270 0.947810 -0.588781
O47   O     O_R   1.000000 0.064270 0.052190 -0.588787
O48   O     O_R   0.000000 0.064270 0.947810 -0.588722
C143  C     C_R   0.500002 0.585239 0.999997 0.716738
C144  C     C_R   0.999999 0.085240 0.000002 0.716866
C145  C     C_R   0.038660 0.298088 0.975440 -0.074540
C146  C     C_R   0.961328 0.298092 0.024575 -0.075031
C147  C     C_R   0.538680 0.798090 0.975397 -0.074854
C148  C     C_R   0.461330 0.798085 0.024649 -0.074847
H53   H     H_    0.068938 0.280780 0.955600 0.175877
H54   H     H_    0.931048 0.280787 0.044421 0.176088
H55   H     H_    0.568969 0.780787 0.955505 0.176045
H56   H     H_    0.431045 0.780778 0.044540 0.175982
C149  C     C_R   0.038724 0.343774 0.975111 -0.124367
C150  C     C_R   0.961271 0.343777 0.024891 -0.124421
C151  C     C_R   0.538738 0.843776 0.975074 -0.124429
C152  C     C_R   0.461268 0.843771 0.024963 -0.124367
H57   H     H_    0.069013 0.360930 0.955662 0.172784
H58   H     H_    0.930983 0.360937 0.044337 0.173139
H59   H     H_    0.569033 0.860936 0.955580 0.172992
H60   H     H_    0.430972 0.860927 0.044452 0.172899
C153  C     C_R   0.999999 0.366914 0.999999 -0.081387
C154  C     C_R   0.500002 0.866913 0.000013 -0.081262
C155  C     C_R   0.999993 0.274977 0.000008 0.060162
C156  C     C_R   0.500007 0.774974 0.000024 0.060227
C157  C     C_R   0.480642 0.703844 0.970844 -0.093934
C158  C     C_R   0.519390 0.703833 0.029147 -0.093910
C159  C     C_R   0.980682 0.203844 0.970748 -0.093962
C160  C     C_R   0.019299 0.203847 0.029280 -0.094023
H61   H     H_    0.465717 0.722237 0.948381 0.188118
H62   H     H_    0.534320 0.722217 0.051610 0.188093
H63   H     H_    0.965800 0.222232 0.948203 0.188106
H64   H     H_    0.034178 0.222238 0.051829 0.188112
C161  C     C_R   0.479706 0.657884 0.971035 -0.024538
C162  C     C_R   0.520332 0.657872 0.028918 -0.024408
C163  C     C_R   0.979745 0.157883 0.970953 -0.024480
C164  C     C_R   0.020236 0.157887 0.029081 -0.024530
C165  C     C_R   0.500013 0.634032 0.999983 -0.196737
C166  C     C_R   0.999994 0.134036 0.000012 -0.196773
C167  C     C_R   0.500011 0.726733 0.000010 0.013396
C168  C     C_R   0.999992 0.226738 0.000011 0.013423
C169  C     C_R   0.015604 0.702258 0.933138 -0.106726
C170  C     C_R   0.984383 0.702261 0.066857 -0.106914
C171  C     C_R   0.515592 0.202258 0.933148 -0.106799
C172  C     C_R   0.484411 0.202260 0.066851 -0.106744
H65   H     H_    0.028149 0.720242 0.881288 0.183240
H66   H     H_    0.971836 0.720246 0.118707 0.183192
H67   H     H_    0.528124 0.220242 0.881303 0.183200
H68   H     H_    0.471880 0.220245 0.118696 0.183219
C173  C     C_R   0.015425 0.656197 0.932277 -0.009988
C174  C     C_R   0.984564 0.656200 0.067719 -0.010108
C175  C     C_R   0.515411 0.156197 0.932288 -0.010047
C176  C     C_R   0.484590 0.156199 0.067712 -0.010005
C177  C     C_R   0.999998 0.633011 0.999997 -0.177085
C178  C     C_R   0.500000 0.133010 0.000000 -0.177080
C179  C     C_R   0.999994 0.725476 0.999997 0.000075
C180  C     C_R   0.500001 0.225476 1.000000 0.000082
C181  C     C_R   0.511614 0.297505 0.041836 -0.124846
C182  C     C_R   0.488389 0.297503 0.958162 -0.124972
C183  C     C_R   0.011590 0.797502 0.041861 -0.125055
C184  C     C_R   0.988404 0.797504 0.958133 -0.124869
H69   H     H_    0.521440 0.280399 0.073576 0.152037
H70   H     H_    0.478563 0.280396 0.926421 0.151940
H71   H     H_    0.021401 0.780396 0.073623 0.151812
H72   H     H_    0.978592 0.780399 0.926370 0.152090
C185  C     C_R   0.511363 0.343315 0.042181 -0.147224
C186  C     C_R   0.488638 0.343313 0.957816 -0.147302
C187  C     C_R   0.011342 0.843313 0.042207 -0.147331
C188  C     C_R   0.988655 0.843315 0.957788 -0.147263
H73   H     H_    0.520609 0.360494 0.074715 0.168119
H74   H     H_    0.479392 0.360491 0.925283 0.168089
H75   H     H_    0.020573 0.860490 0.074762 0.168077
H76   H     H_    0.979424 0.860493 0.925233 0.168148
C189  C     C_R   0.500000 0.366592 0.999999 -0.049238
C190  C     C_R   0.999999 0.866592 0.999998 -0.049240
C191  C     C_R   0.500001 0.274115 0.999999 0.104140
C192  C     C_R   0.999996 0.774115 0.999996 0.104168
C193  C     C_2   0.841261 0.641282 0.762215 0.428032
H77   H     H_    0.843713 0.676773 0.762165 0.142876
O49   O     O_2   0.810181 0.625274 0.765390 -0.538186
C194  C     C_2   0.159055 0.640412 0.238367 0.427280
H78   H     H_    0.156330 0.675911 0.239744 0.142884
O50   O     O_2   0.190473 0.624233 0.233904 -0.538840
C195  C     C_2   0.340989 0.140757 0.762115 0.427533
H79   H     H_    0.343564 0.176255 0.761400 0.142886
O51   O     O_2   0.309728 0.124643 0.765992 -0.538677
C196  C     C_2   0.658917 0.141034 0.237682 0.427830
H80   H     H_    0.656436 0.176528 0.237950 0.142897
O52   O     O_2   0.690061 0.124975 0.234245 -0.538435
C197  C     C_2   0.135006 0.338320 0.764646 0.364664
H81   H     H_    0.169492 0.345773 0.738326 0.087108
O53   O     O_2   0.120768 0.302480 0.794439 -0.535408
C198  C     C_2   0.864606 0.338759 0.235477 0.364853
H82   H     H_    0.830132 0.346286 0.261821 0.087129
O54   O     O_2   0.878783 0.302925 0.205607 -0.535393
C199  C     C_2   0.635272 0.838601 0.764514 0.364841
H83   H     H_    0.669752 0.846099 0.738160 0.087155
O55   O     O_2   0.621075 0.802766 0.794364 -0.535342
C200  C     C_2   0.364838 0.838467 0.235467 0.364723
H84   H     H_    0.330357 0.845949 0.261801 0.087137
O56   O     O_2   0.379049 0.802624 0.205662 -0.535410
C201  C     C_2   0.986481 0.385022 0.835731 0.352198
H85   H     H_    0.964949 0.409251 0.836352 0.095988
O57   O     O_2   0.970691 0.349748 0.866702 -0.529991
C202  C     C_2   0.013207 0.385038 0.164523 0.351992
H86   H     H_    0.034790 0.409198 0.163909 0.095898
O58   O     O_2   0.028918 0.349738 0.133586 -0.530084
C203  C     C_2   0.486682 0.885039 0.835599 0.352074
H87   H     H_    0.465116 0.909222 0.836217 0.095922
O59   O     O_2   0.470942 0.849754 0.866571 -0.530034
C204  C     C_2   0.513404 0.885019 0.164360 0.352131
H88   H     H_    0.534958 0.909223 0.163730 0.095953
O60   O     O_2   0.529163 0.849734 0.133402 -0.529999
Cl1   Cl    Cl    0.226864 0.425335 0.192010 -0.569110
Cl2   Cl    Cl    0.773136 0.425569 0.808355 -0.568901
Cl3   Cl    Cl    0.726875 0.925368 0.192003 -0.568932
Cl4   Cl    Cl    0.273125 0.925275 0.807840 -0.569072
C205  C     C_2   0.366461 0.580931 0.108889 0.401612
H89   H     H_    0.400731 0.584513 0.087630 0.025082
O61   O     O_2   0.347292 0.612653 0.106333 -0.505845
C206  C     C_2   0.633535 0.581001 0.890707 0.401395
H90   H     H_    0.599245 0.584534 0.912068 0.025215
O62   O     O_2   0.652723 0.612795 0.893005 -0.505957
C207  C     C_2   0.866459 0.080924 0.108841 0.401633
H91   H     H_    0.900737 0.084504 0.087531 0.025091
O63   O     O_2   0.847282 0.112642 0.106296 -0.505958
C208  C     C_2   0.133539 0.080893 0.891341 0.401711
H92   H     H_    0.099272 0.084496 0.912600 0.025056
O64   O     O_2   0.152706 0.112579 0.894011 -0.505937
C209  C     C_2   0.367263 0.419467 0.164264 0.412810
H93   H     H_    0.402930 0.418063 0.128523 0.062219
O65   O     O_2   0.347025 0.386186 0.198145 -0.508601
C210  C     C_2   0.632729 0.419390 0.836160 0.412862
H94   H     H_    0.597062 0.418002 0.871857 0.062025
O66   O     O_2   0.652965 0.386058 0.802512 -0.508556
C211  C     C_2   0.867268 0.919471 0.164291 0.412873
H95   H     H_    0.902934 0.918064 0.128523 0.062220
O67   O     O_2   0.847032 0.886195 0.198199 -0.508593
C212  C     C_2   0.132738 0.919507 0.835512 0.412813
H96   H     H_    0.097072 0.918090 0.871307 0.062306
O68   O     O_2   0.152977 0.886256 0.801483 -0.508649
Cl5   Cl    Cl    0.918655 0.688431 0.753341 -0.586453
Cl6   Cl    Cl    0.081062 0.687986 0.249785 -0.586624
Cl7   Cl    Cl    0.418678 0.188168 0.751921 -0.586626
Cl8   Cl    Cl    0.581435 0.188307 0.247010 -0.586528
C213  C     C_2   0.455654 0.636556 0.943121 0.451700
H97   H     H_    0.442567 0.603675 0.959994 0.093216
O69   O     O_2   0.449344 0.656169 0.901090 -0.503517
C214  C     C_2   0.544417 0.636527 0.056754 0.451772
H98   H     H_    0.557521 0.603654 0.039804 0.093026
O70   O     O_2   0.550737 0.656115 0.098792 -0.503581
C215  C     C_2   0.955744 0.136551 0.942948 0.451709
H99   H     H_    0.942596 0.103694 0.959899 0.093199
O71   O     O_2   0.949542 0.156135 0.900758 -0.503547
C216  C     C_2   0.044224 0.136560 0.057116 0.451649
H100  H     H_    0.057364 0.103700 0.040193 0.093297
O72   O     O_2   0.050421 0.156154 0.099304 -0.503568
C217  C     C_2   0.030424 0.632856 0.860745 0.386717
H101  H     H_    0.028385 0.597381 0.859376 0.066899
O73   O     O_2   0.045066 0.653098 0.802069 -0.521637
C218  C     C_2   0.969557 0.632862 0.139256 0.386827
H102  H     H_    0.971607 0.597389 0.140623 0.066965
O74   O     O_2   0.954895 0.653106 0.197938 -0.521696
C219  C     C_2   0.530396 0.132856 0.860763 0.386785
H103  H     H_    0.528355 0.097382 0.859396 0.066909
O75   O     O_2   0.545027 0.153098 0.802091 -0.521694
C220  C     C_2   0.469609 0.132860 0.139236 0.386756
H104  H     H_    0.471646 0.097385 0.140604 0.066886
O76   O     O_2   0.454984 0.153104 0.197906 -0.521665

loop_
_geom_bond_atom_site_label_1
_geom_bond_atom_site_label_2
_geom_bond_distance
_ccdc_geom_bond_type
C59   H23   1.083434 S    
Cu11  O47   1.966924 S    
C44   C80   1.480232 S    
C27   H11   1.082044 S    
C14   C18   1.400613 A    
C148  H56   1.083048 S    
O39   Cu11  1.962068 S    
C81   C85   1.395468 A    
O25   Cu6   1.967702 S    
C98   C102  1.405583 A    
C106  C110  1.400418 A    
O43   C141  1.295648 A    
C215  O71   1.221656 D    
C170  H66   1.083190 S    
C110  C206  1.484556 S    
C213  O69   1.221649 D    
C76   C204  1.485852 S    
C169  C179  1.400923 A    
Cu7   O31   1.966864 S    
C60   H24   1.083433 S    
O31   C136  1.292234 A    
C206  H90   1.083074 S    
C93   H37   1.083209 S    
O48   C144  1.299910 A    
C90   C94   1.399384 A    
C105  H45   1.083980 S    
C96   H40   1.083206 S    
C109  C205  1.484514 S    
C159  H63   1.084154 S    
O4    C4    1.296596 A    
C104  C128  1.476500 S    
C183  C192  1.405137 A    
C84   C88   1.395452 A    
C57   C61   1.394904 A    
C75   C203  1.485858 S    
C171  C180  1.400921 A    
C201  O57   1.221170 D    
C171  C175  1.401896 A    
C182  C186  1.394115 A    
C187  H75   1.083023 S    
C145  C155  1.401822 A    
C145  C149  1.390296 A    
O17   Cu5   1.966586 S    
C195  O51   1.221548 D    
C181  H69   1.082790 S    
C212  O68   1.221378 D    
O16   Cu4   1.967891 S    
C172  C180  1.400925 A    
O13   C5    1.292234 A    
O7    Cu4   1.962175 S    
C116  C120  1.416130 A    
O41   Cu10  1.963480 S    
C118  C122  1.402169 A    
O15   C7    1.292180 A    
C102  C126  1.476587 S    
C158  C167  1.391993 A    
O27   Cu8   1.967702 S    
C42   C46   1.391548 A    
C187  C190  1.403281 A    
C173  C177  1.416680 A    
C36   H16   1.085024 S    
O36   C138  1.297505 A    
O9    C5    1.292600 A    
C147  C156  1.401829 A    
C36   C56   1.393089 A    
O37   C139  1.292947 A    
C110  C114  1.415442 A    
C73   C201  1.485852 S    
C12   Cl8   1.761145 S    
Cu10  O46   1.966915 S    
C209  H93   1.083756 S    
O8    Cu4   1.962170 S    
C145  H53   1.083054 S    
C16   C20   1.400759 A    
C173  C217  1.489614 S    
C179  C192  1.480132 S    
C211  H95   1.083753 S    
C188  H76   1.083026 S    
C174  C218  1.489613 S    
C182  H70   1.082790 S    
C121  C125  1.399932 A    
C113  C117  1.416115 A    
C162  C165  1.430582 A    
O44   Cu11  1.963474 S    
O3    Cu2   1.962470 S    
C103  C127  1.476523 S    
C48   H20   1.084826 S    
C210  O66   1.221367 D    
C207  H91   1.083067 S    
C60   C80   1.401560 A    
C71   H31   1.083380 S    
C47   C51   1.399512 A    
C147  H55   1.083054 S    
C58   C62   1.394904 A    
O23   C133  1.290092 A    
C180  C191  1.480141 S    
C30   C194  1.483622 S    
C34   H14   1.085010 S    
C107  H47   1.083982 S    
C99   C103  1.405559 A    
O35   C138  1.297511 A    
C100  C104  1.405548 A    
C200  H84   1.085539 S    
C75   C79   1.416028 A    
O3    C3    1.296599 A    
O40   C142  1.292945 A    
C195  H79   1.083839 S    
C73   C77   1.416022 A    
C24   H8    1.083390 S    
C152  C154  1.402538 A    
C203  H87   1.084336 S    
C17   C21   1.400319 A    
O41   C139  1.295641 A    
C208  H92   1.083052 S    
C39   C43   1.408107 A    
C20   C24   1.400292 A    
C164  C166  1.430651 A    
C157  H61   1.084152 S    
O24   Cu8   1.968032 S    
C9    C13   1.400714 A    
O38   Cu10  1.962067 S    
C111  C207  1.484531 S    
C219  H103  1.083836 S    
O42   C140  1.295640 A    
C67   C199  1.478324 S    
Cu11  Cu12  2.681995 S    
C12   C16   1.400726 A    
C61   C65   1.400098 A    
C218  H102  1.083835 S    
C155  C168  1.467981 S    
C18   C22   1.400226 A    
O29   C135  1.292228 A    
C176  C220  1.489617 S    
C204  H88   1.084335 S    
C39   C133  1.450575 S    
C150  C153  1.402549 A    
C34   C38   1.397823 A    
C161  C165  1.430610 A    
C52   C56   1.411358 A    
C70   H30   1.083376 S    
O18   Cu6   1.966590 S    
C160  H64   1.084155 S    
O5    Cu3   1.962175 S    
C25   C29   1.406430 A    
C152  H60   1.082976 S    
C184  C192  1.405132 A    
C27   C31   1.406446 A    
O42   Cu9   1.963474 S    
C40   C44   1.408063 A    
C219  O75   1.221379 D    
C118  C210  1.488614 S    
C148  C152  1.390301 A    
C9    Cl5   1.761153 S    
C163  C215  1.490857 S    
C176  C178  1.416675 A    
C21   C25   1.395814 A    
O40   Cu12  1.962067 S    
C35   C55   1.393066 A    
C193  O49   1.221531 D    
C107  C111  1.400395 A    
C146  H54   1.083052 S    
C8    C52   1.454353 S    
C105  C109  1.400379 A    
C220  O76   1.221379 D    
C197  O53   1.221044 D    
C117  C209  1.488618 S    
C9    C29   1.413280 A    
C60   C64   1.394900 A    
C10   C14   1.400760 A    
O13   Cu3   1.967878 S    
C11   C31   1.413324 A    
C194  H78   1.083838 S    
C12   C32   1.413289 A    
O28   C134  1.289048 A    
C97   C101  1.405563 A    
C124  C128  1.399921 A    
C157  C161  1.399024 A    
C101  C125  1.476552 S    
C68   C72   1.404872 A    
C159  C163  1.399021 A    
C91   C95   1.399408 A    
O5    C1    1.294551 A    
Cu7   Cu8   2.675507 S    
C20   C56   1.478501 S    
C185  H73   1.083021 S    
O8    C4    1.294542 A    
C43   C79   1.480245 S    
C82   C102  1.412052 A    
C31   C195  1.483628 S    
O15   Cu4   1.967878 S    
C2    C90   1.463531 S    
O46   C143  1.299845 A    
C65   C69   1.404876 A    
C149  C153  1.402540 A    
C188  C190  1.403280 A    
C35   C39   1.397730 A    
C169  C173  1.401898 A    
C146  C150  1.390295 A    
C105  C125  1.398484 A    
C185  C189  1.403281 A    
C172  C176  1.401896 A    
C61   H25   1.083250 S    
C37   C41   1.408032 A    
O14   C6    1.292140 A    
C63   H27   1.083249 S    
C92   C96   1.399415 A    
C198  O54   1.221048 D    
C214  H98   1.079868 S    
C211  O67   1.221362 D    
O47   C144  1.299884 A    
O1    Cu1   1.962470 S    
C117  C121  1.402171 A    
C157  C167  1.391982 A    
Cu9   O45   1.966924 S    
C36   C40   1.397678 A    
C67   C71   1.404869 A    
C95   H39   1.083209 S    
C120  C124  1.402167 A    
O10   C6    1.292609 A    
C42   C78   1.480242 S    
C143  C165  1.484855 S    
C213  H97   1.079819 S    
C119  C211  1.488620 S    
C19   C23   1.400278 A    
C86   C90   1.401300 A    
C109  C113  1.415436 A    
C137  C189  1.470601 S    
C122  H50   1.083422 S    
C206  O62   1.221383 D    
C108  C128  1.398461 A    
C99   H43   1.083263 S    
C49   C53   1.411413 A    
C123  H51   1.083423 S    
C51   C55   1.411262 A    
C148  C156  1.401839 A    
C121  H49   1.083419 S    
C164  C216  1.490874 S    
C198  H82   1.085541 S    
C159  C168  1.391955 A    
O17   C129  1.293627 A    
C48   C52   1.399539 A    
C69   C73   1.407901 A    
C45   H17   1.084828 S    
C113  C139  1.466415 S    
C205  O61   1.221375 D    
O35   Cu11  1.966636 S    
Cu12  O48   1.966915 S    
C47   H19   1.084824 S    
O23   Cu7   1.968030 S    
C106  C126  1.398499 A    
C44   C48   1.391540 A    
C136  C178  1.465814 S    
C201  H85   1.084338 S    
O34   Cu10  1.966644 S    
C175  C219  1.489615 S    
C32   C196  1.483635 S    
O44   C142  1.295652 A    
C81   Cl1   1.762311 S    
C124  H52   1.083425 S    
C85   C89   1.401331 A    
C205  H89   1.083070 S    
C183  H71   1.082792 S    
C26   H10   1.082073 S    
C74   C78   1.416033 A    
C11   Cl7   1.761136 S    
C129  C153  1.462552 S    
C114  C118  1.416100 A    
C149  H57   1.082972 S    
C156  C167  1.468035 S    
C151  H59   1.082970 S    
C17   C53   1.478558 S    
C40   C134  1.450518 S    
O18   C129  1.293642 A    
C183  C187  1.394112 A    
C19   C55   1.478378 S    
C184  C188  1.394112 A    
C22   C26   1.395791 A    
C65   C197  1.478324 S    
C138  C190  1.470607 S    
C45   C49   1.399558 A    
C108  C112  1.400383 A    
C94   H38   1.083211 S    
C50   C54   1.411135 A    
C175  C178  1.416675 A    
C84   Cl4   1.762311 S    
O12   Cu2   1.967880 S    
O19   C130  1.293648 A    
C186  H74   1.083025 S    
C120  C212  1.488614 S    
O1    C1    1.296579 A    
C86   H34   1.083648 S    
C199  H83   1.085541 S    
C25   H9    1.082004 S    
O38   C140  1.292936 A    
C23   H7    1.083392 S    
C170  C179  1.400918 A    
C26   C30   1.406462 A    
C46   H18   1.084818 S    
C13   H1    1.083679 S    
C64   H28   1.083250 S    
C15   H3    1.083673 S    
C160  C164  1.399019 A    
C10   Cl6   1.761113 S    
O28   Cu7   1.967697 S    
C81   C101  1.412034 A    
O45   C143  1.299903 A    
C21   H5    1.083396 S    
C161  C213  1.490895 S    
C58   C78   1.401561 A    
O21   C131  1.290074 A    
C6    C50   1.454232 S    
C163  C166  1.430638 A    
C200  O56   1.221047 D    
C106  H46   1.083976 S    
C135  C177  1.465817 S    
C10   C30   1.413357 A    
C11   C15   1.400733 A    
C208  O64   1.221398 D    
C181  C191  1.405138 A    
O30   C135  1.292242 A    
C97   H41   1.083260 S    
Cu5   Cu6   2.675507 S    
C122  C126  1.399939 A    
C85   H33   1.083642 S    
C94   C98   1.392747 A    
O20   Cu8   1.966590 S    
C146  C155  1.401820 A    
C18   C54   1.478229 S    
Cu2   Cu4   2.681018 S    
O43   Cu12  1.963480 S    
C88   H36   1.083640 S    
C123  C127  1.399920 A    
C114  C140  1.466391 S    
O6    C2    1.294522 A    
O4    Cu2   1.962480 S    
C72   C76   1.407896 A    
C212  H96   1.083756 S    
O26   Cu5   1.967697 S    
C59   C63   1.394901 A    
C83   C87   1.395456 A    
C46   C50   1.399480 A    
C13   C17   1.400790 A    
C64   C68   1.400100 A    
C218  O74   1.221382 D    
C58   H22   1.083434 S    
C43   C47   1.391545 A    
C3    C91   1.463572 S    
C204  O60   1.221175 D    
C33   H13   1.085030 S    
C1    C89   1.463571 S    
C95   C99   1.392743 A    
O2    Cu1   1.962480 S    
C35   H15   1.085022 S    
O10   Cu1   1.967880 S    
C169  H65   1.083190 S    
C170  C174  1.401894 A    
C147  C151  1.390305 A    
Cu5   O29   1.966864 S    
C28   H12   1.082010 S    
C172  H68   1.083190 S    
C38   C42   1.408164 A    
C209  O65   1.221366 D    
C216  H100  1.079824 S    
C37   C131  1.450480 S    
C93   C97   1.392715 A    
C89   C93   1.399393 A    
O22   Cu6   1.968032 S    
O25   C131  1.289036 A    
C96   C100  1.392732 A    
C151  C154  1.402553 A    
C193  H77   1.083844 S    
C215  H99   1.079839 S    
C210  H94   1.083750 S    
C88   C92   1.401338 A    
C144  C166  1.484940 S    
C33   C37   1.397644 A    
C197  H81   1.085543 S    
O7    C3    1.294529 A    
C174  C177  1.416677 A    
C87   C91   1.401324 A    
C160  C168  1.391947 A    
C62   C66   1.400106 A    
C196  O52   1.221546 D    
C83   Cl3   1.762312 S    
C115  C119  1.416121 A    
Cu8   O32   1.966859 S    
C100  H44   1.083262 S    
C162  C214  1.490867 S    
O19   Cu7   1.966586 S    
O34   C137  1.297512 A    
C115  C141  1.466419 S    
C69   H29   1.083385 S    
C107  C127  1.398476 A    
C181  C185  1.394115 A    
C217  H101  1.083835 S    
C182  C191  1.405136 A    
O26   C132  1.289099 A    
C41   C45   1.391539 A    
C217  O73   1.221382 D    
C119  C123  1.402165 A    
C171  H67   1.083189 S    
C34   C54   1.393021 A    
O11   C7    1.292604 A    
O12   C8    1.292597 A    
O33   C137  1.297504 A    
O9    Cu1   1.967889 S    
C87   H35   1.083640 S    
C76   C80   1.416023 A    
O37   Cu9   1.962068 S    
C111  C115  1.415448 A    
C207  O63   1.221374 D    
C130  C154  1.462579 S    
O39   C141  1.292940 A    
O16   C8    1.292219 A    
C16   H4    1.083679 S    
C214  O70   1.221648 D    
C150  H58   1.082975 S    
O27   C133  1.289064 A    
O11   Cu2   1.967889 S    
C41   C77   1.480240 S    
C84   C104  1.412014 A    
C112  C208  1.484503 S    
C184  H72   1.082790 S    
C186  C189  1.403275 A    
O33   Cu9   1.966636 S    
C202  O58   1.221173 D    
C199  O55   1.221047 D    
O6    Cu3   1.962170 S    
C28   C32   1.406433 A    
C203  O59   1.221171 D    
C82   Cl2   1.762314 S    
C63   C67   1.400104 A    
C66   C70   1.404868 A    
O20   C130  1.293636 A    
O32   C136  1.292233 A    
C68   C200  1.478325 S    
C7    C51   1.454305 S    
O36   Cu12  1.966644 S    
O2    C2    1.296582 A    
C66   C198  1.478326 S    
Cu6   O30   1.966859 S    
C112  C116  1.415448 A    
C15   C19   1.400699 A    
C23   C27   1.395794 A    
C220  H104  1.083837 S    
C62   H26   1.083253 S    
C24   C28   1.395813 A    
C83   C103  1.412022 A    
C38   C132  1.450642 S    
C14   H2    1.083671 S    
C116  C142  1.466427 S    
C158  C162  1.399032 A    
O14   Cu3   1.967891 S    
C5    C49   1.454401 S    
C82   C86   1.395470 A    
Cu9   Cu10  2.681995 S    
Cu1   Cu3   2.681018 S    
C22   H6    1.083385 S    
O21   Cu5   1.968030 S    
O24   C134  1.290090 A    
C59   C79   1.401559 A    
C4    C92   1.463591 S    
C57   C77   1.401557 A    
C33   C53   1.393111 A    
C202  H86   1.084329 S    
C216  O72   1.221652 D    
C74   C202  1.485863 S    
C98   H42   1.083264 S    
C108  H48   1.083983 S    
C194  O50   1.221586 D    
O22   C132  1.290098 A    
C196  H80   1.083842 S    
C158  H62   1.084145 S    
C70   C74   1.407885 A    
C29   C193  1.483632 S    
C57   H21   1.083431 S    
C72   H32   1.083383 S    
C71   C75   1.407895 A    
