data_mof_unit_51248.cif
_audit_creation_date              2012-12-11T16:37:24-0500
_audit_creation_method            fapswitch 2.2
_symmetry_space_group_name_H-M    P1
_symmetry_Int_Tables_number       1
_space_group_crystal_system       triclinic
_cell_length_a                    19.299316
_cell_length_b                    6.938191
_cell_length_c                    17.89646
_cell_angle_alpha                 89.949739
_cell_angle_beta                  108.811685
_cell_angle_gamma                 90.16011
_cell_volume                      2268.36294617

loop_
_atom_site_label
_atom_site_type_symbol
_atom_type_description
_atom_site_fract_x
_atom_site_fract_y
_atom_site_fract_z
_atom_type_partial_charge
O1    O     O_R   0.561710 0.369960 0.440200 -0.545757
O2    O     O_R   0.061710 0.630040 0.940200 -0.533378
O3    O     O_R   0.412630 0.033330 0.406330 -0.546100
O4    O     O_R   0.912630 0.966670 0.906330 -0.538938
O5    O     O_R   0.438290 0.869790 0.559800 -0.548925
O6    O     O_R   0.938290 0.130210 0.059800 -0.532740
C1    C     C_R   0.383058 0.202954 0.386015 0.683968
C2    C     C_R   0.885022 0.796719 0.882953 0.697989
O7    O     O_R   0.559570 0.039810 0.430640 -0.535145
O8    O     O_R   0.059570 0.960190 0.930640 -0.540423
O9    O     O_R   0.586280 0.876320 0.584290 -0.522620
O10   O     O_R   0.086280 0.123680 0.084290 -0.537273
C3    C     C_R   0.583401 0.209795 0.417906 0.736939
C4    C     C_R   0.078639 0.791143 0.913123 0.695880
O11   O     O_R   0.413720 0.363440 0.415710 -0.541337
O12   O     O_R   0.913720 0.636560 0.915710 -0.541111
O13   O     O_3   0.508590 0.205630 0.550380 -0.365753
O14   O     O_3   0.008590 0.794370 0.050380 -0.368666
V1    V     V_3+5 0.498410 0.928130 0.490650 1.416608
V2    V     V_3+5 0.998410 0.071870 0.990650 1.409342
O15   O     O_R   0.587370 0.546990 0.593670 -0.536835
O16   O     O_R   0.087370 0.453010 0.093670 -0.542969
C5    C     C_R   0.615175 0.716834 0.617017 0.723195
C6    C     C_R   0.116034 0.282941 0.116488 0.693465
O17   O     O_R   0.440430 0.540520 0.569360 -0.543404
O18   O     O_R   0.940430 0.459480 0.069360 -0.541930
C7    C     C_R   0.413289 0.708398 0.577550 0.687330
C8    C     C_R   0.918793 0.290366 0.083855 0.700134
V3    V     V_3+5 0.501590 0.428960 0.509350 1.411891
V4    V     V_3+5 0.001590 0.571040 0.009350 1.402324
O19   O     O_3   0.491410 0.701330 0.449620 -0.376175
O20   O     O_3   0.991410 0.298670 0.949620 -0.369576
C9    C     C_R   0.260569 0.881856 0.654707 -0.196233
C10   C     C_R   0.752332 0.213975 0.150282 -0.194333
H1    H     H_    0.224914 0.003680 0.648539 0.135663
H2    H     H_    0.694411 0.182346 0.124811 0.132408
C11   C     C_R   0.304623 0.870732 0.605769 0.146943
C12   C     C_R   0.795415 0.228455 0.100352 0.140141
C13   C     C_R   0.356119 0.717493 0.617583 -0.115817
C14   C     C_R   0.870294 0.277698 0.132915 -0.086405
C15   C     C_R   0.350991 0.564498 0.667244 -0.248340
C16   C     C_R   0.900892 0.302321 0.214711 -0.230178
H3    H     H_    0.386071 0.440135 0.672424 0.128460
H4    H     H_    0.958992 0.332536 0.239378 0.106283
C17   C     C_R   0.301356 0.567633 0.710322 0.169494
C18   C     C_R   0.858587 0.280101 0.265290 0.166947
C19   C     C_R   0.259938 0.737655 0.709361 0.053932
C20   C     C_R   0.782365 0.241657 0.232174 0.033535
C21   C     C_R   0.242384 0.714134 0.842361 -0.130008
C22   C     C_R   0.726776 0.392800 0.326630 -0.121491
H5    H     H_    0.298722 0.669151 0.867026 0.110839
H6    H     H_    0.757941 0.520295 0.323486 0.111553
C23   C     C_R   0.196539 0.702572 0.889132 0.091910
C24   C     C_R   0.681967 0.388437 0.375417 0.137426
C25   C     C_R   0.125766 0.783136 0.861906 -0.061468
C26   C     C_R   0.635946 0.223649 0.371864 -0.093200
C27   C     C_R   0.100090 0.855727 0.784531 -0.193411
C28   C     C_R   0.640391 0.068024 0.323099 -0.173576
H7    H     H_    0.045588 0.916041 0.761774 0.127078
H8    H     H_    0.606447 0.941408 0.318966 0.136514
C29   C     C_R   0.142571 0.838778 0.734175 -0.167766
C30   C     C_R   0.688206 0.072598 0.278689 -0.165081
H9    H     H_    0.119093 0.882296 0.673109 0.124712
H10   H     H_    0.690797 0.949228 0.242639 0.122598
C31   C     C_R   0.214611 0.766814 0.762653 0.063744
C32   C     C_R   0.732356 0.234230 0.280673 0.064624
C33   C     C_R   0.806076 0.624144 0.761102 0.072133
C34   C     C_R   0.291221 0.401858 0.285263 0.049965
C35   C     C_R   0.818426 0.782758 0.812417 -0.102445
C36   C     C_R   0.311476 0.222517 0.322562 -0.051806
C37   C     C_R   0.764513 0.927059 0.794404 -0.158108
C38   C     C_R   0.262372 0.067574 0.296572 -0.182366
H11   H     H_    0.771600 0.053060 0.831551 0.124414
H12   H     H_    0.273804 0.929601 0.326249 0.118540
C39   C     C_R   0.698278 0.903153 0.731744 -0.112414
C40   C     C_R   0.198440 0.088879 0.230682 -0.147953
H13   H     H_    0.656730 0.013318 0.722013 0.129952
H14   H     H_    0.161846 0.966590 0.212771 0.126908
C41   C     C_R   0.684250 0.735369 0.684410 -0.143647
C42   C     C_R   0.183271 0.263211 0.187034 -0.059207
C43   C     C_R   0.741312 0.601943 0.698121 0.114362
C44   C     C_R   0.232545 0.415847 0.214851 0.023791
C45   C     C_3   0.740972 0.389268 0.709960 0.099670
C46   C     C_3   0.282391 0.512255 0.176291 0.102381
C47   C     C_3   0.811559 0.413923 0.778770 -0.410346
C48   C     C_3   0.339388 0.529250 0.256716 -0.359694
H15   H     H_    0.693739 0.340563 0.727838 0.095477
H16   H     H_    0.262287 0.653349 0.148455 0.109769
H17   H     H_    0.860466 0.348432 0.769098 0.210278
H18   H     H_    0.393499 0.464695 0.262146 0.202141
H19   H     H_    0.805154 0.381552 0.837034 0.135464
H20   H     H_    0.343156 0.676295 0.282329 0.144748
Br1   Br    Br    0.755125 0.249936 0.621926 -0.602751
Br2   Br    Br    0.319818 0.329046 0.115775 -0.623142
C49   C     C_3   0.292079 0.022238 0.541064 -0.354486
C50   C     C_3   0.213087 0.020815 0.485072 -0.789129
H21   H     H_    0.198114 0.874693 0.459518 0.230343
H22   H     H_    0.174158 0.065309 0.515820 0.226617
H23   H     H_    0.207729 0.124155 0.436102 0.219752
H24   H     H_    0.305271 0.167129 0.568496 0.178982
H25   H     H_    0.326004 0.000167 0.502799 0.190514
C51   C     C_3   0.759396 0.191458 0.013001 -0.369377
C52   C     C_3   0.746961 0.975938 0.996762 -0.742546
H26   H     H_    0.800275 0.899619 0.012398 0.228068
H27   H     H_    0.713769 0.914061 0.031425 0.224881
H28   H     H_    0.716958 0.952370 0.933221 0.205270
H29   H     H_    0.705970 0.267580 0.992191 0.174740
H30   H     H_    0.792586 0.248504 0.977462 0.155542
C53   C     C_3   0.292542 0.383872 0.752909 -0.359703
C54   C     C_3   0.212889 0.316760 0.730416 -0.753773
H31   H     H_    0.178923 0.410838 0.754122 0.243972
H32   H     H_    0.187760 0.309061 0.665264 0.222443
H33   H     H_    0.211767 0.173529 0.756923 0.223752
H34   H     H_    0.323909 0.264524 0.737634 0.175797
H35   H     H_    0.316185 0.399222 0.817660 0.176403
C55   C     C_3   0.897490 0.287529 0.353720 -0.361771
C56   C     C_3   0.900094 0.089066 0.391553 -0.717732
H36   H     H_    0.844316 0.037753 0.386566 0.234931
H37   H     H_    0.926408 0.983240 0.362749 0.219071
H38   H     H_    0.932594 0.097631 0.455184 0.220415
H39   H     H_    0.954881 0.338031 0.366518 0.172249
H40   H     H_    0.871469 0.392549 0.382763 0.179189
C57   C     C_3   0.219917 0.576058 0.960861 -0.336910
C58   C     C_3   0.192358 0.369667 0.937459 -0.602664
H41   H     H_    0.136096 0.368432 0.894356 0.211255
H42   H     H_    0.229196 0.294930 0.910393 0.218114
H43   H     H_    0.190462 0.286890 0.989706 0.233715
H44   H     H_    0.280537 0.576596 0.986049 0.218972
H45   H     H_    0.198991 0.631387 0.007601 0.175539
C59   C     C_3   0.683638 0.557500 0.430726 -0.319277
C60   C     C_3   0.750538 0.690476 0.449176 -0.752834
H46   H     H_    0.801859 0.605310 0.470133 0.241336
H47   H     H_    0.749595 0.776417 0.396626 0.216771
H48   H     H_    0.749714 0.793123 0.496497 0.249491
H49   H     H_    0.633490 0.645485 0.405705 0.182595
H50   H     H_    0.683999 0.500195 0.488663 0.225868

loop_
_geom_bond_atom_site_label_1
_geom_bond_atom_site_label_2
_ccdc_geom_bond_type
C28   C30   A    
C45   H15   S    
C34   C48   S    
C49   C50   S    
O4    C2    A    
C60   H48   S    
V1    O19   S    
C1    C36   S    
C47   H19   S    
C57   C58   S    
C13   C15   A    
O9    V1    S    
C2    C35   S    
C22   C24   A    
C21   C31   A    
C12   C14   A    
C46   C48   S    
O3    C1    A    
C56   H37   S    
C17   C53   S    
C27   H7    S    
C8    C14   S    
O12   V4    S    
C45   Br1   S    
C50   H23   S    
O13   V3    S    
C55   C56   S    
C11   C49   S    
C35   C37   A    
C16   C18   A    
O9    C5    A    
C29   H9    S    
O7    C3    A    
C54   H31   S    
C30   H10   S    
O13   V1    S    
O5    C7    A    
O7    V1    S    
O6    C8    A    
C59   H49   S    
O8    V2    S    
C21   H5    S    
C50   H22   S    
C22   H6    S    
O3    V1    S    
O14   V4    S    
V4    O20   S    
C10   H2    S    
C38   C40   A    
C3    C26   S    
C17   C19   A    
C4    C25   S    
C2    O12   A    
C57   H45   S    
C15   H3    S    
C16   H4    S    
C43   C45   S    
C6    C42   S    
O11   V3    S    
C18   C20   A    
C23   C25   A    
O17   V3    S    
C24   C59   S    
C24   C26   A    
C33   C47   S    
C55   H39   S    
C30   C32   A    
C40   C42   A    
C42   C44   A    
C48   H18   S    
C56   H38   S    
C7    C13   S    
C37   H11   S    
C47   H17   S    
C49   H24   S    
O15   V3    S    
C9    C11   A    
C33   C35   A    
C39   H13   S    
V3    O19   S    
C50   H21   S    
O10   V2    S    
O1    V3    S    
C51   H29   S    
C52   H27   S    
C46   Br2   S    
C51   H30   S    
C22   C32   A    
C54   H33   S    
C55   H40   S    
C53   H34   S    
C58   H43   S    
C38   H12   S    
C45   C47   S    
C33   C43   A    
C44   C46   S    
O15   C5    A    
C23   C57   S    
C9    C19   A    
O16   C6    A    
O1    C3    A    
C60   H46   S    
C58   H42   S    
V2    O20   S    
O16   V4    S    
C10   C12   A    
O18   C8    A    
C59   H50   S    
C46   H16   S    
C40   H14   S    
C14   C16   A    
C60   H47   S    
C27   C29   A    
O5    V1    S    
O17   C7    A    
O6    V2    S    
O10   C6    A    
C41   C43   A    
C18   C55   S    
O2    V4    S    
C34   C44   A    
C25   C27   A    
C59   C60   S    
C12   C51   S    
C48   H20   S    
C53   C54   S    
C37   C39   A    
C57   H44   S    
C39   C41   A    
C21   C23   A    
C1    O11   A    
C9    H1    S    
C26   C28   A    
C52   H28   S    
O14   V2    S    
C51   C52   S    
O2    C4    A    
C54   H32   S    
C53   H35   S    
O4    V2    S    
C29   C31   A    
C10   C20   A    
C11   C13   A    
C52   H26   S    
C34   C36   A    
C15   C17   A    
C36   C38   A    
C20   C32   S    
C5    C41   S    
C56   H36   S    
C28   H8    S    
C19   C31   S    
C49   H25   S    
O8    C4    A    
C58   H41   S    
O18   V4    S    
