data_mof_unit_10069.cif
_audit_creation_date              2012-12-10T18:05:48-0500
_audit_creation_method            fapswitch 2.2
_symmetry_space_group_name_H-M    P1
_symmetry_Int_Tables_number       1
_space_group_crystal_system       triclinic
_cell_length_a                    12.573054
_cell_length_b                    13.099239
_cell_length_c                    14.99964
_cell_angle_alpha                 90.44705
_cell_angle_beta                  102.49509
_cell_angle_gamma                 82.214326
_cell_volume                      2389.065579

loop_
_atom_site_label
_atom_site_type_symbol
_atom_type_description
_atom_site_fract_x
_atom_site_fract_y
_atom_site_fract_z
_atom_type_partial_charge
C1    C     C_R   0.438210 0.691702 0.490640 0.850201
C2    C     C_R   0.411027 0.471062 0.798689 -0.249733
C3    C     C_R   0.500612 0.501277 0.769256 -0.073021
C4    C     C_R   0.500454 0.500274 0.673138 0.883649
C5    C     C_R   0.589298 0.532966 0.831460 -0.267024
C6    C     C_R   0.701652 0.066498 0.639996 0.208657
C7    C     C_R   0.597782 0.200090 0.532560 -0.104213
C8    C     C_R   0.297819 0.840925 0.421309 -0.007093
C9    C     C_R   0.270975 0.946829 0.405260 -0.193865
C10   C     C_R   0.345150 0.013064 0.443008 -0.211461
C11   C     C_R   0.446237 0.975141 0.502551 0.106009
C12   C     C_R   0.587990 0.534707 0.109178 0.116444
C13   C     C_R   0.464133 0.871533 0.531933 0.083749
C14   C     C_R   0.529814 0.037051 0.534399 0.046520
C15   C     C_R   0.620533 0.001600 0.606944 0.153941
C16   C     C_R   0.561299 0.308638 0.511618 0.877211
C17   C     C_R   0.626205 0.903339 0.645276 -0.251240
C18   C     C_R   0.549141 0.839490 0.608425 -0.207535
C19   C     C_R   0.525893 0.132908 0.494023 -0.262014
C20   C     C_R   0.687758 0.166792 0.603356 -0.197064
C21   C     C_R   0.397169 0.802255 0.483546 -0.167883
C22   C     C_R   0.091840 0.337870 0.382468 -0.315187
C23   C     C_R   0.318439 0.443915 0.012624 -0.226020
C24   C     C_R   0.799279 0.627399 0.610647 -0.031720
C25   C     C_R   0.906730 0.643992 0.645355 -0.264898
C26   C     C_R   0.992980 0.586882 0.613687 0.214804
C27   C     C_R   0.967678 0.520550 0.537818 -0.018751
C28   C     C_R   0.499306 0.500457 0.326842 0.876803
C29   C     C_R   0.856923 0.500961 0.510366 0.185133
C30   C     C_R   0.045392 0.470530 0.489338 -0.017531
C31   C     C_R   0.015380 0.391278 0.427278 0.191620
C32   C     C_R   0.908641 0.367743 0.408543 -0.289595
C33   C     C_R   0.830083 0.423908 0.447485 -0.197195
C34   C     C_R   0.319182 0.443310 0.920121 -0.218661
C35   C     C_R   0.149884 0.499549 0.495024 -0.037537
C36   C     C_R   0.196725 0.364970 0.397538 0.010673
C37   C     C_R   0.587413 0.533460 0.201244 -0.261279
C38   C     C_R   0.498141 0.502309 0.230603 -0.075251
C39   C     C_R   0.408374 0.472965 0.168128 -0.279122
C40   C     C_R   0.407558 0.473853 0.075700 0.120914
C41   C     C_R   0.497901 0.504473 0.046080 0.063005
C42   C     C_3   0.800013 0.032505 0.715955 -0.950422
C43   C     C_R   0.221256 0.773650 0.370376 0.137421
C44   C     C_R   0.122091 0.765216 0.396575 -0.161018
C45   C     C_R   0.408981 0.472801 0.890440 0.116543
C46   C     C_R   0.050509 0.700130 0.349700 -0.146132
C47   C     C_R   0.077462 0.643297 0.276510 -0.114739
C48   C     C_R   0.175596 0.652150 0.249541 -0.116407
C49   C     C_R   0.247317 0.717339 0.296074 -0.098808
C50   C     C_3   0.106235 0.586394 0.673674 -0.942503
C51   C     C_R   0.498538 0.504098 0.953405 0.059636
C52   C     C_R   0.589066 0.534305 0.923770 0.121405
C53   C     C_R   0.677801 0.565002 0.986800 -0.221049
C54   C     C_R   0.677326 0.565096 0.079375 -0.220897
H1    H     H_    0.656715 0.556664 0.249856 0.167950
H2    H     H_    0.339669 0.448496 0.191288 0.157215
H3    H     H_    0.175308 0.566682 0.530378 0.155612
H4    H     H_    0.733876 0.667515 0.639087 0.142355
H5    H     H_    0.923091 0.696578 0.701260 0.152239
H6    H     H_    0.748779 0.404409 0.427758 0.216688
H7    H     H_    0.248691 0.420586 0.034878 0.143177
H8    H     H_    0.249929 0.419605 0.871898 0.149544
H9    H     H_    0.343027 0.445454 0.750418 0.164322
H10   H     H_    0.658322 0.556697 0.808245 0.158527
H11   H     H_    0.747516 0.588399 0.964545 0.143779
H12   H     H_    0.690881 0.874031 0.702811 0.155517
H13   H     H_    0.746751 0.588497 0.127604 0.144168
H14   H     H_    0.743490 0.220391 0.632947 0.162269
H15   H     H_    0.772375 0.015593 0.779073 0.242492
H16   H     H_    0.848678 0.962424 0.695710 0.242330
H17   H     H_    0.854987 0.092907 0.731677 0.246104
H18   H     H_    0.100976 0.808063 0.453807 0.131583
H19   H     H_    0.974633 0.693006 0.370653 0.137118
H20   H     H_    0.022329 0.592392 0.240751 0.124073
H21   H     H_    0.196105 0.608420 0.192642 0.124024
H22   H     H_    0.323471 0.723157 0.275009 0.111747
H23   H     H_    0.463715 0.159697 0.434229 0.147170
H24   H     H_    0.158497 0.511649 0.671051 0.239051
H25   H     H_    0.145024 0.651786 0.654477 0.239639
H26   H     H_    0.101357 0.595122 0.746518 0.243676
H27   H     H_    0.319847 0.093984 0.426507 0.138694
H28   H     H_    0.194376 0.977978 0.359636 0.145970
H29   H     H_    0.555944 0.764893 0.641195 0.153701
H30   H     H_    0.258028 0.323257 0.365253 0.123214
H31   H     H_    0.884663 0.307963 0.360940 0.156167
H32   H     H_    0.070654 0.276022 0.336401 0.140817
N1    N     N_R   0.222190 0.444670 0.452360 -0.098908
N2    N     N_R   0.776970 0.554790 0.547140 -0.125518
O1    O     O_R   0.366740 0.627160 0.477250 -0.602335
O2    O     O_R   0.544830 0.662520 0.507680 -0.609859
O3    O     O_R   0.410940 0.482340 0.616930 -0.622534
O4    O     O_R   0.589030 0.517700 0.647360 -0.631462
O5    O     O_R   0.455170 0.337480 0.492320 -0.612101
O6    O     O_R   0.633260 0.372840 0.522750 -0.636375
O7    O     O_R   0.410970 0.482300 0.352640 -0.620750
O8    O     O_R   0.589060 0.517660 0.383070 -0.641222
Zn1   Zn    Zn3+2 0.381090 0.476390 0.479680 0.945885
Zn2   Zn    Zn3+2 0.618910 0.523610 0.520320 0.926780

loop_
_geom_bond_atom_site_label_1
_geom_bond_atom_site_label_2
_ccdc_geom_bond_type
C1    C21   S    
C1    O2    A    
C27   C29   A    
C8    C43   S    
C42   H16   S    
C50   H25   S    
O4    Zn2   S    
C53   C54   A    
C2    H9    S    
C16   O5    A    
C37   C38   A    
C13   C18   A    
C28   O7    A    
C26   C50   S    
C38   C39   A    
C11   C14   A    
O6    Zn2   S    
C23   C40   A    
C29   C33   A    
C34   H8    S    
C17   C18   A    
C12   C37   A    
C19   H23   S    
C29   N2    A    
C6    C15   A    
C35   N1    A    
C39   H2    S    
C8    C9    A    
O8    Zn2   S    
C5    C52   A    
C53   H11   S    
C9    C10   A    
C9    H28   S    
C4    O3    A    
C36   N1    A    
C27   C30   A    
C48   H21   S    
C50   H24   S    
C44   C46   A    
C18   H29   S    
C2    C45   A    
C22   C31   A    
C51   C52   A    
C47   C48   A    
C24   C25   A    
C39   C40   A    
C43   C49   A    
C54   H13   S    
C25   C26   A    
C42   H15   S    
C5    H10   S    
O1    Zn1   S    
C43   C44   A    
C12   C41   A    
C31   C32   A    
C28   C38   S    
C23   C34   A    
C8    C21   A    
C26   C27   A    
C49   H22   S    
C13   C21   A    
C34   C45   A    
O3    Zn1   S    
C24   N2    A    
C30   C35   A    
C48   C49   A    
C33   H6    S    
C7    C19   A    
C3    C4    S    
O5    Zn1   S    
C22   C36   A    
C52   C53   A    
C15   C17   A    
C46   C47   A    
C7    C16   S    
C1    O1    A    
C14   C19   A    
C20   H14   S    
C47   H20   S    
C3    C5    A    
C50   H26   S    
O7    Zn1   S    
C6    C20   A    
C10   H27   S    
C16   O6    A    
C35   H3    S    
C28   O8    A    
C32   C33   A    
C2    C3    A    
C11   C13   A    
C30   C31   A    
C36   H30   S    
C32   H31   S    
C42   H17   S    
O2    Zn2   S    
C44   H18   S    
C22   H32   S    
C17   H12   S    
C12   C54   A    
C10   C11   A    
C37   H1    S    
C23   H7    S    
C24   H4    S    
C7    C20   A    
C6    C42   S    
C45   C51   A    
C14   C15   A    
C40   C41   A    
C25   H5    S    
C4    O4    A    
C41   C51   A    
C46   H19   S    
N2    Zn2   S    
N1    Zn1   S    
