data_mof_unit_14360.cif
_audit_creation_date              2012-12-11T20:00:42-0500
_audit_creation_method            fapswitch 2.2
_symmetry_space_group_name_H-M    P1
_symmetry_Int_Tables_number       1
_space_group_crystal_system       triclinic
_cell_length_a                    8.253671
_cell_length_b                    16.186817
_cell_length_c                    27.05953
_cell_angle_alpha                 72.548196
_cell_angle_beta                  96.806028
_cell_angle_gamma                 95.974102
_cell_volume                      3415.48428025

loop_
_atom_site_label
_atom_site_type_symbol
_atom_type_description
_atom_site_fract_x
_atom_site_fract_y
_atom_site_fract_z
_atom_type_partial_charge
Ba1   Ba    Ba6+2 0.337820 0.939830 0.518500 1.682809
Ba2   Ba    Ba6+2 0.851970 0.060110 0.481480 1.657701
C1    C     C_3   0.076258 0.523697 0.613013 -0.367316
C2    C     C_R   0.442370 0.398460 0.188624 0.577164
C3    C     C_2   0.283729 0.279070 0.280152 -0.074974
C4    C     C_3   0.542029 0.640626 0.630006 0.323377
C5    C     C_3   0.277279 0.250585 0.338274 -0.048142
C6    C     C_1   0.479636 0.146902 0.343176 0.043606
C7    C     C_2   0.519170 0.191317 0.295200 -0.110608
C8    C     C_2   0.412658 0.260225 0.259809 0.182586
C9    C     C_R   0.523789 0.403620 0.103751 -0.079107
C10   C     C_R   0.531046 0.312705 0.121620 -0.036230
C11   C     C_R   0.575453 0.270278 0.087660 -0.058315
C12   C     C_3   0.060111 0.619403 0.605973 0.347440
C13   C     C_R   0.478966 0.446348 0.137689 -0.032018
C14   C     C_2   0.366315 0.170495 0.365951 -0.292046
C15   C     C_2   0.839336 0.838044 0.637889 -0.281674
C16   C     C_3   0.523535 0.565997 0.679359 -0.310799
C17   C     C_R   0.637800 0.455757 0.965757 0.020006
C18   C     C_R   0.592184 0.592118 0.983312 0.020661
C19   C     C_R   0.632894 0.547805 0.948898 0.050227
C20   C     C_R   0.676531 0.414994 0.929548 -0.100965
C21   C     C_R   0.710666 0.462492 0.879284 -0.059586
C22   C     C_R   0.708161 0.553130 0.862362 -0.024612
C23   C     C_3   0.080370 0.015631 0.646889 0.292912
C24   C     C_R   0.669214 0.596088 0.897011 -0.079380
C25   C     C_R   0.667047 0.687291 0.879787 -0.036580
C26   C     C_R   0.704718 0.734196 0.828488 0.597827
C27   C     C_R   0.743454 0.601160 0.811275 0.574207
C28   C     C_3   0.625994 0.893932 0.369982 0.672603
C29   C     C_2   0.907263 0.720730 0.720365 -0.085538
C30   C     C_3   0.915893 0.753300 0.662326 -0.046479
C31   C     C_1   0.717064 0.857056 0.659096 0.031485
C32   C     C_2   0.675532 0.811046 0.706535 -0.103262
C33   C     C_2   0.779480 0.740085 0.741102 0.194061
C34   C     C_3   0.084768 0.976919 0.705608 -0.353932
C35   C     C_R   0.603630 0.407662 0.017750 0.020243
C36   C     C_R   0.560608 0.451869 0.051905 0.051240
C37   C     C_R   0.553639 0.543797 0.034806 0.019151
C38   C     C_R   0.610990 0.316303 0.037153 -0.098092
C39   C     C_R   0.471179 0.536676 0.120173 -0.047117
C40   C     C_3   0.713689 0.882296 0.326403 -0.263759
C41   C     C_R   0.592007 0.683876 0.964740 -0.096949
C42   C     C_R   0.628520 0.729993 0.914386 -0.058892
C43   C     C_R   0.507355 0.584202 0.070158 -0.100265
C44   C     C_2   0.400027 0.245566 0.512665 -0.294001
C45   C     C_3   0.645668 0.364906 0.369575 0.337066
C46   C     C_R   0.798441 0.760395 0.488567 -0.267847
C47   C     C_2   0.252980 0.313789 0.562181 -0.130120
C48   C     C_2   0.268002 0.245771 0.544870 0.043943
C49   C     C_2   0.505825 0.314627 0.498341 0.006416
C50   C     C_3   0.461480 0.400313 0.502578 -0.039754
C51   C     C_3   0.375797 0.390710 0.551474 0.003628
C52   C     C_3   0.598237 0.116182 0.609886 0.312329
C53   C     C_2   0.599637 0.467871 0.498347 -0.065957
C54   C     C_2   0.565885 0.550859 0.481596 -0.021025
C55   C     C_R   0.831292 0.620019 0.451773 0.062273
C56   C     C_3   0.664249 0.442046 0.321415 0.253398
C57   C     C_R   0.695156 0.620712 0.478004 -0.027196
C58   C     C_R   0.947771 0.690190 0.442634 -0.140893
C59   C     C_R   0.928486 0.761474 0.459801 0.032863
C60   C     C_R   0.678629 0.691376 0.496670 0.052258
C61   C     C_3   0.636588 0.190150 0.634279 -0.375006
C62   C     C_3   0.119734 0.994046 0.359284 0.297882
C63   C     C_3   0.141925 0.028253 0.301402 -0.350485
C64   C     C_3   0.123579 0.381329 0.393920 0.318219
C65   C     C_3   0.112646 0.478266 0.384221 -0.307909
C66   C     C_R   0.493179 0.265885 0.172967 0.599488
Cl1   Cl    Cl    0.542420 0.526309 0.322184 -0.633505
Cl2   Cl    Cl    0.488191 0.800922 0.390102 -0.679487
H1    H     H_    0.093028 0.656827 0.566337 0.059569
H2    H     H_    0.239975 0.998062 0.381615 0.038237
H3    H     H_    0.036238 0.035177 0.368871 0.066055
H4    H     H_    0.201738 0.513199 0.606523 0.149046
H5    H     H_    0.233326 0.991568 0.291422 0.166968
H6    H     H_    0.184187 0.097936 0.290964 0.060104
H7    H     H_    0.024453 0.021590 0.277928 0.117407
H8    H     H_    0.929898 0.627180 0.609292 -0.060364
H9    H     H_    0.988312 0.501541 0.584396 0.063747
H10   H     H_    0.951190 0.015333 0.630177 0.014433
H11   H     H_    0.148797 0.974542 0.631533 0.070997
H12   H     H_    0.790788 0.942072 0.309641 0.078757
H13   H     H_    0.012020 0.014725 0.721983 0.135593
H14   H     H_    0.032607 0.908609 0.715421 0.071995
H15   H     H_    0.213090 0.978143 0.723364 0.133089
H16   H     H_    0.049208 0.484611 0.652902 0.123186
H17   H     H_    0.541934 0.591757 0.713329 0.122478
H18   H     H_    0.699485 0.308854 0.363572 0.031720
H19   H     H_    0.513615 0.348700 0.374555 -0.038205
H20   H     H_    0.625855 0.420704 0.286407 0.061257
H21   H     H_    0.793849 0.467811 0.319280 0.089516
H22   H     H_    0.253887 0.371034 0.392611 -0.014551
H23   H     H_    0.790286 0.825967 0.341314 0.102163
H24   H     H_    0.085935 0.346666 0.433418 0.069923
H25   H     H_    0.200933 0.501456 0.412336 0.085990
H26   H     H_    0.988000 0.492055 0.389423 0.142639
H27   H     H_    0.474743 0.694920 0.632660 0.098188
H28   H     H_    0.142831 0.514170 0.344114 0.173586
H29   H     H_    0.629762 0.178575 0.281570 0.134568
H30   H     H_    0.583122 0.200522 0.100060 0.124144
H31   H     H_    0.990247 0.672966 0.743527 0.119021
H32   H     H_    0.739444 0.427301 0.853483 0.122435
H33   H     H_    0.680772 0.345826 0.938479 0.070301
H34   H     H_    0.623610 0.870879 0.294771 0.145965
H35   H     H_    0.644857 0.277608 0.014423 0.070703
H36   H     H_    0.197925 0.324698 0.256350 0.124641
H37   H     H_    0.436524 0.571618 0.145300 0.142875
H38   H     H_    0.565230 0.722977 0.988221 0.072324
H39   H     H_    0.673579 0.661477 0.627410 -0.054358
H40   H     H_    0.626328 0.800056 0.902620 0.123456
H41   H     H_    0.565928 0.824395 0.720445 0.132009
H42   H     H_    0.496340 0.652974 0.060515 0.075053
H43   H     H_    0.360422 0.145048 0.407690 0.082229
H44   H     H_    0.868369 0.875127 0.598968 0.076053
H45   H     H_    0.466370 0.111283 0.597704 -0.007093
H46   H     H_    0.160301 0.310759 0.588104 0.079729
H47   H     H_    0.048648 0.690359 0.420436 0.124301
H48   H     H_    0.419796 0.185373 0.505137 0.059967
H49   H     H_    0.785053 0.815925 0.501782 0.074776
H50   H     H_    0.723969 0.450151 0.512107 0.086336
H51   H     H_    0.398905 0.533051 0.678746 0.140246
H52   H     H_    0.439561 0.567376 0.471543 0.117688
H53   H     H_    0.614696 0.518019 0.683309 0.122651
H54   H     H_    0.714934 0.899294 0.403148 -0.065378
H55   H     H_    0.669757 0.130282 0.575707 0.070337
H56   H     H_    0.560575 0.180015 0.667119 0.127237
H57   H     H_    0.610751 0.253012 0.605119 0.059643
H58   H     H_    0.768010 0.192981 0.648905 0.127743
N1    N     N_R   0.450124 0.308623 0.206417 -0.424776
N2    N     N_R   0.741706 0.691294 0.794334 -0.421695
O1    O     O_2   0.431310 0.922990 0.623550 -0.460270
O2    O     O_2   0.842846 0.305468 0.506363 -0.488791
O3    O     O_3   0.728284 0.386405 0.412845 -0.589574
O4    O     O_3   0.663280 0.983100 0.563360 -0.499438
O5    O     O_3   0.016420 0.932050 0.462720 -0.502499
O6    O     O_2   0.959730 0.164640 0.549160 -0.455673
O7    O     O_3   0.151867 0.100883 0.635447 -0.640179
O8    O     O_2   0.932257 0.211275 0.327396 -0.497711
O9    O     O_3   0.020327 0.352504 0.356067 -0.599072
O10   O     O_2   0.496023 0.186892 0.187401 -0.595145
O11   O     O_2   0.774822 0.562042 0.781767 -0.620883
O12   O     O_3   0.053249 0.907921 0.370427 -0.625721
O13   O     O_2   0.404260 0.437551 0.217225 -0.577656
O14   O     O_2   0.707028 0.813397 0.814680 -0.596550
O15   O     O_3   0.126250 0.812630 0.574830 -0.489252
O16   O     O_2   0.262117 0.787584 0.672257 -0.495304
O17   O     O_3   0.638716 0.038856 0.647165 -0.625786
O18   O     O_3   0.165085 0.646784 0.643983 -0.596354
O19   O     O_2   0.229950 0.835370 0.450810 -0.386040
O20   O     O_3   0.517580 0.797570 0.545130 -0.489739
O21   O     O_2   0.338996 0.693101 0.496547 -0.446778
O22   O     O_3   0.477940 0.612740 0.586897 -0.620325
O23   O     O_2   0.758370 0.077020 0.376420 -0.486101
O24   O     O_3   0.526390 0.016840 0.436620 -0.479391
O25   O     O_3   0.063420 0.187310 0.425160 -0.474634
O26   O     O_3   0.532678 0.965748 0.349204 -0.633484
O27   O     O_3   0.173250 0.067890 0.537260 -0.482156
O28   O     O_3   0.672100 0.202370 0.454860 -0.491727
P1    P     P_3+3 0.610630 0.953360 0.619150 0.988962
P2    P     P_3+3 0.057260 0.861390 0.437850 1.024751
P3    P     P_3+3 0.501897 0.698937 0.530370 0.992319
P4    P     P_3+3 0.579040 0.046590 0.380840 1.000232
P5    P     P_3+3 0.687950 0.301987 0.468677 0.954799
P6    P     P_3+3 0.120065 0.752034 0.639832 0.940619
P7    P     P_3+3 0.142268 0.145416 0.567817 0.949164
P8    P     P_3+3 0.070868 0.248116 0.360341 0.949485

loop_
_geom_bond_atom_site_label_1
_geom_bond_atom_site_label_2
_ccdc_geom_bond_type
C23   H11   S    
C53   C54   D    
Ba1   O20   S    
Ba2   O25   S    
C9    C36   A    
C40   H23   S    
C12   H1    S    
C34   H14   S    
Ba1   O15   S    
C40   H12   S    
C19   C24   A    
O17   P1    S    
C14   H43   S    
Ba2   P4    S    
C2    O13   D    
O7    P7    S    
C43   H42   S    
C10   C66   A    
C24   C25   A    
Ba2   O4    S    
C63   H6    S    
C29   H31   S    
C17   C19   A    
C22   C24   A    
C32   C33   S    
C35   C38   A    
C36   C37   A    
C55   C57   A    
C21   H32   S    
C52   C61   S    
C34   H13   S    
C23   H10   S    
C12   O18   S    
C16   H17   S    
C44   H48   S    
Ba1   Ba2   S    
C53   H50   S    
C1    H4    S    
C22   C27   A    
C11   C38   A    
C17   C35   A    
C65   H28   S    
C9    C13   A    
C25   C42   A    
C64   O9    S    
C29   C30   S    
C6    C7    D    
O21   P3    D    
C62   H3    S    
Ba1   O19   S    
C26   O14   D    
C7    C8    S    
O22   P3    S    
C50   C53   S    
Ba2   O28   S    
C16   H53   S    
C37   C43   A    
C4    O22   S    
C28   O26   S    
O4    P1    S    
C1    H9    S    
C6    C14   D    
C45   O3    S    
C1    H16   S    
C65   H25   S    
C32   H41   S    
C45   H19   S    
C66   N1    Am   
C15   C31   D    
O3    P5    S    
C28   Cl2   S    
C15   H44   S    
C46   H49   S    
C3    H36   S    
C4    C16   S    
C52   H55   S    
C63   H7    S    
C49   C50   S    
O18   P6    S    
C4    H27   S    
Ba1   P1    S    
C17   C20   A    
C13   C39   A    
C59   P2    S    
O27   P7    S    
C3    C5    S    
C18   C37   A    
C55   C58   A    
C64   H22   S    
C16   H51   S    
O16   P6    D    
C44   C49   D    
Ba2   O6    S    
C20   H33   S    
C58   C59   A    
C54   H52   S    
O9    P8    S    
C23   O7    S    
C41   C42   A    
C35   C36   A    
C12   H8    S    
C52   O17   S    
C46   C60   A    
C27   N2    Am   
C21   C22   A    
C27   O11   D    
C52   H45   S    
C48   P7    S    
C31   C32   D    
C58   H47   S    
C18   C19   A    
C49   P5    S    
C56   H20   S    
C33   N2    S    
C1    C12   S    
O28   P5    S    
C5    C14   S    
C5    P8    S    
C28   H54   S    
Ba2   O23   S    
C65   H26   S    
C4    H39   S    
C29   C33   D    
C66   O10   D    
Ba1   O4    S    
C18   C41   A    
C50   C51   S    
C56   H21   S    
O20   P3    S    
O1    P1    D    
C57   C60   A    
O5    P2    S    
C39   H37   S    
O24   P4    S    
Ba1   P2    S    
C61   H58   S    
O12   P2    S    
Ba1   O1    S    
C40   H34   S    
C9    C10   A    
C56   Cl1   S    
C2    N1    Am   
O15   P6    S    
C34   H15   S    
C44   C48   S    
Ba2   O5    S    
C63   H5    S    
C54   C57   S    
C64   H24   S    
O23   P4    D    
O8    P8    D    
C45   H18   S    
C2    C13   A    
Ba1   O27   S    
C8    N1    S    
C3    C8    D    
C6    P4    S    
C62   C63   S    
C45   C56   S    
C46   C59   A    
Ba2   O24   S    
C62   O12   S    
C11   H30   S    
Ba2   O27   S    
C47   C51   S    
C30   P6    S    
C64   C65   S    
C26   N2    Am   
C41   H38   S    
C62   H2    S    
Ba1   O24   S    
O19   P2    D    
O2    P5    D    
C61   H56   S    
C23   C34   S    
O26   P4    S    
C60   P3    S    
C47   H46   S    
C10   C11   A    
C7    H29   S    
C47   C48   D    
O6    P7    D    
C25   C26   A    
C15   C30   S    
C39   C43   A    
C20   C21   A    
C28   C40   S    
O25   P8    S    
Ba1   O5    S    
C61   H57   S    
C31   P1    S    
C38   H35   S    
C42   H40   S    
