data_mof_unit_13344.cif
_audit_creation_date              2012-12-10T19:48:38-0500
_audit_creation_method            fapswitch 2.2
_symmetry_space_group_name_H-M    P1
_symmetry_Int_Tables_number       1
_space_group_crystal_system       triclinic
_cell_length_a                    13.124957
_cell_length_b                    14.173318
_cell_length_c                    14.921822
_cell_angle_alpha                 89.439141
_cell_angle_beta                  90.418965
_cell_angle_gamma                 69.8994
_cell_volume                      2606.45310356

loop_
_atom_site_label
_atom_site_type_symbol
_atom_type_description
_atom_site_fract_x
_atom_site_fract_y
_atom_site_fract_z
_atom_type_partial_charge
C1    C     C_R   0.494846 0.501052 0.672745 0.918854
C2    C     C_R   0.984102 0.452902 0.477550 0.087010
C3    C     C_R   0.874323 0.474614 0.454132 0.088130
C4    C     C_R   0.028552 0.530079 0.468016 0.079230
C5    C     C_R   0.970631 0.620231 0.420778 0.176071
C6    C     C_R   0.867844 0.633689 0.385839 -0.263682
C7    C     C_R   0.819952 0.561916 0.402451 -0.218884
C8    C     C_R   0.128571 0.520540 0.505985 -0.265306
C9    C     C_R   0.122762 0.678465 0.439099 -0.202505
C10   C     C_R   0.821796 0.408535 0.483971 -0.122106
C11   C     C_R   0.459311 0.432303 0.911566 -0.352824
C12   C     C_R   0.704107 0.444553 0.494024 0.860607
C13   C     C_R   0.469601 0.423779 0.819310 0.221014
C14   C     C_R   0.474594 0.506988 0.768693 -0.168765
C15   C     C_R   0.455265 0.599965 0.810201 -0.351989
C16   C     C_R   0.436099 0.609967 0.901258 0.570762
C17   C     C_R   0.446508 0.523655 0.952624 -0.039357
C18   C     C_R   0.537591 0.554411 0.089601 0.569242
C19   C     C_R   0.548953 0.549200 0.182065 -0.312347
C20   C     C_R   0.486821 0.506339 0.232554 -0.084724
C21   C     C_R   0.408777 0.473493 0.192512 -0.195181
C22   C     C_R   0.392244 0.484017 0.100944 -0.269811
C23   C     C_R   0.498850 0.500850 0.327855 0.879989
C24   C     C_R   0.456398 0.524137 0.049255 0.021133
C25   C     C_R   0.590107 0.866588 0.528299 -0.282891
C26   C     C_R   0.589012 0.767801 0.528954 0.021614
C27   C     C_R   0.410258 0.823737 0.470255 0.012574
C28   C     C_R   0.407595 0.923908 0.469229 -0.279415
C29   C     C_R   0.498364 0.947252 0.498634 0.167400
C30   C     C_R   0.439006 0.125973 0.434797 -0.286298
C31   C     C_R   0.440538 0.224632 0.436893 -0.084421
C32   C     C_R   0.560322 0.184680 0.562556 0.641444
C33   C     C_R   0.556795 0.085597 0.564272 -0.408472
C34   C     C_R   0.295541 0.555688 0.499515 0.854417
C35   C     C_R   0.497802 0.054140 0.499053 0.089253
C36   C     C_R   0.017535 0.694673 0.407976 -0.206131
C37   C     C_R   0.178892 0.589688 0.486271 -0.052547
C38   C     C_R   0.883241 0.311797 0.514726 -0.194172
C39   C     C_R   0.994933 0.284263 0.524642 -0.153918
C40   C     C_R   0.045054 0.354771 0.509034 -0.194389
H1    H     H_    0.161676 0.732507 0.422896 0.146506
H2    H     H_    0.454034 0.665875 0.772184 0.193955
H3    H     H_    0.608549 0.575346 0.214136 0.151319
H4    H     H_    0.359275 0.441964 0.232339 0.152449
H5    H     H_    0.330780 0.459502 0.070048 0.161748
H6    H     H_    0.663223 0.879103 0.550013 0.137159
H7    H     H_    0.660076 0.707363 0.552582 0.144988
H8    H     H_    0.339986 0.807035 0.447422 0.119195
H9    H     H_    0.823597 0.700512 0.347098 0.153300
H10   H     H_    0.334191 0.982563 0.446790 0.131851
H11   H     H_    0.392847 0.106155 0.382440 0.149093
H12   H     H_    0.394292 0.279175 0.387439 0.151381
H13   H     H_    0.598390 0.033754 0.617058 0.151256
H14   H     H_    0.974617 0.763235 0.371026 0.135346
H15   H     H_    0.171317 0.457267 0.548857 0.146175
H16   H     H_    0.844686 0.258376 0.533070 0.144163
H17   H     H_    0.131848 0.329603 0.519148 0.134362
H18   H     H_    0.042287 0.209305 0.548004 0.138303
H19   H     H_    0.740699 0.574704 0.372992 0.170747
H20   H     H_    0.464195 0.366584 0.951582 0.163302
N1    N     N_R   0.500000 0.747530 0.500020 -0.091469
N2    N     N_R   0.499940 0.252470 0.500020 -0.119696
O1    O     O_R   0.499990 0.420530 0.630930 -0.536240
O2    O     O_R   0.499990 0.579480 0.630940 -0.625831
O3    O     O_R   0.653620 0.381060 0.499970 -0.592069
O4    O     O_R   0.653620 0.540010 0.499980 -0.627641
O5    O     O_R   0.500010 0.420520 0.369060 -0.626271
O6    O     O_R   0.500010 0.579470 0.369070 -0.618799
O7    O     O_R   0.346380 0.459990 0.500020 -0.625936
O8    O     O_R   0.346380 0.618940 0.500030 -0.626413
Zn1   Zn    Zn3+2 0.500000 0.393860 0.499990 0.974789
Zn2   Zn    Zn3+2 0.500000 0.606140 0.500010 0.933985
N3    N     N_2   0.476868 0.331113 0.779065 -0.244651
H21   H     H_    0.519709 0.268964 0.817362 0.213630
C41   C     C_3   0.373396 0.326366 0.749729 -0.708354
H22   H     H_    0.320907 0.328765 0.808404 0.209476
H23   H     H_    0.386639 0.255086 0.713582 0.231345
H24   H     H_    0.331390 0.389951 0.703390 0.237542
O9    O     O_3   0.418019 0.702464 0.940226 -0.615205
C42   C     C_3   0.307064 0.746356 0.962303 0.080243
H25   H     H_    0.301484 0.799333 0.017959 0.175484
H26   H     H_    0.270847 0.690688 0.987644 0.121993
C43   C     C_3   0.241246 0.805575 0.882014 -0.376265
H27   H     H_    0.277906 0.861098 0.858089 0.236327
H28   H     H_    0.243135 0.753425 0.826437 0.215208
C44   C     C_3   0.123287 0.860807 0.906910 -0.952035
H29   H     H_    0.084589 0.806451 0.929756 0.265560
H30   H     H_    0.077884 0.902522 0.847391 0.269537
H31   H     H_    0.118669 0.915314 0.961051 0.263545
O10   O     O_3   0.604367 0.591279 0.039561 -0.618673
C45   C     C_3   0.693380 0.510562 0.007266 0.079214
H32   H     H_    0.714288 0.533466 0.940420 0.177310
H33   H     H_    0.675117 0.440040 0.996748 0.118031
C46   C     C_3   0.791764 0.489875 0.070023 -0.364886
H34   H     H_    0.809006 0.560537 0.080212 0.237800
H35   H     H_    0.773971 0.462734 0.136141 0.211183
C47   C     C_3   0.892043 0.410681 0.031646 -0.953233
H36   H     H_    0.877055 0.338897 0.022092 0.263972
H37   H     H_    0.961637 0.397065 0.078783 0.266276
H38   H     H_    0.913379 0.436821 0.966322 0.263717
O11   O     O_3   0.615512 0.218575 0.627548 -0.611113
C48   C     C_3   0.719923 0.148659 0.648230 0.054910
H39   H     H_    0.777880 0.189971 0.646932 0.157351
H40   H     H_    0.750555 0.087170 0.598631 0.113625
C49   C     C_3   0.722329 0.106701 0.743530 -0.350302
H41   H     H_    0.709010 0.168601 0.792116 0.219412
H42   H     H_    0.656413 0.075115 0.752063 0.217318
C50   C     C_3   0.831105 0.025059 0.764876 -0.965170
H43   H     H_    0.845067 0.960847 0.718795 0.265022
H44   H     H_    0.831070 0.997453 0.834772 0.269683
H45   H     H_    0.898242 0.055492 0.758152 0.261557

loop_
_geom_bond_atom_site_label_1
_geom_bond_atom_site_label_2
_ccdc_geom_bond_type
C27   H8    S    
C30   H11   S    
O11   C48   S    
C34   C37   S    
N3    H21   S    
C19   C20   A    
C31   H12   S    
C4    C8    A    
C47   H36   S    
C49   H42   S    
C30   C35   A    
C18   C24   A    
C28   C29   A    
C26   N1    A    
C3    C7    A    
C5    C6    A    
C48   H40   S    
C44   H30   S    
C15   C16   A    
C5    C36   A    
C50   H43   S    
C48   C49   S    
C18   C19   A    
C23   O5    A    
O7    Zn1   S    
C27   N1    A    
C28   H10   S    
O4    Zn2   S    
C16   C17   A    
C9    C36   A    
C34   O8    A    
C21   C22   A    
C25   C29   A    
N3    C41   S    
C31   N2    A    
C46   H34   S    
C42   C43   S    
C1    O1    A    
C8    H15   S    
C7    H19   S    
C47   H37   S    
C19   H3    S    
C33   H13   S    
C38   C39   A    
C49   C50   S    
C17   C24   S    
C18   O10   S    
C42   H26   S    
C39   C40   A    
C44   H29   S    
C42   H25   S    
C46   C47   S    
C25   C26   A    
O3    Zn1   S    
C39   H18   S    
C12   O4    A    
C23   O6    A    
C2    C4    A    
C41   H22   S    
C45   H33   S    
C21   H4    S    
C43   H27   S    
C20   C23   S    
O6    Zn2   S    
C43   C44   S    
C9    C37   A    
C46   H35   S    
C41   H23   S    
C34   O7    A    
C10   C12   S    
C26   H7    S    
N1    Zn2   S    
C43   H28   S    
C13   N3    S    
C22   C24   A    
C8    C37   A    
C11   H20   S    
C1    O2    A    
C45   H32   S    
C47   H38   S    
C12   O3    A    
C11   C17   A    
C40   H17   S    
C14   C15   A    
C15   H2    S    
O1    Zn1   S    
C4    C5    A    
C44   H31   S    
C6    C7    A    
C49   H41   S    
C29   C35   S    
C9    H1    S    
C50   H45   S    
C10   C38   A    
C16   O9    S    
C32   C33   A    
C2    C3    A    
C32   N2    A    
C3    C10   A    
C45   C46   S    
C11   C13   A    
O10   C45   S    
C30   C31   A    
C33   C35   A    
C50   H44   S    
N2    Zn1   S    
O5    Zn1   S    
O2    Zn2   S    
C6    H9    S    
C48   H39   S    
C41   H24   S    
C36   H14   S    
O9    C42   S    
C2    C40   A    
C22   H5    S    
C38   H16   S    
C20   C21   A    
C27   C28   A    
C32   O11   S    
O8    Zn2   S    
C1    C14   S    
C13   C14   A    
C25   H6    S    
