data_mof_unit_50393.cif
_audit_creation_date              2012-12-11T15:49:09-0500
_audit_creation_method            fapswitch 2.2
_symmetry_space_group_name_H-M    P1
_symmetry_Int_Tables_number       1
_space_group_crystal_system       triclinic
_cell_length_a                    21.778449
_cell_length_b                    7.226197
_cell_length_c                    14.873092
_cell_angle_alpha                 89.808437
_cell_angle_beta                  106.548743
_cell_angle_gamma                 89.95744
_cell_volume                      2243.68691393

loop_
_atom_site_label
_atom_site_type_symbol
_atom_type_description
_atom_site_fract_x
_atom_site_fract_y
_atom_site_fract_z
_atom_type_partial_charge
O1    O     O_R   0.335860 0.638190 0.002110 -0.529499
O2    O     O_R   0.664140 0.361810 0.997890 -0.529499
O3    O     O_R   0.164140 0.138190 0.997890 -0.530316
O4    O     O_R   0.835860 0.861810 0.002110 -0.530316
O5    O     O_R   0.217530 0.305920 0.861960 -0.537947
O6    O     O_R   0.782470 0.694080 0.138040 -0.537947
O7    O     O_R   0.282470 0.805920 0.138040 -0.535264
O8    O     O_R   0.717530 0.194080 0.861960 -0.535264
C1    C     C_R   0.205683 0.477004 0.826049 0.785582
C2    C     C_R   0.794317 0.522996 0.173950 0.785582
C3    C     C_R   0.294346 0.976246 0.174015 0.783891
C4    C     C_R   0.705654 0.023754 0.825985 0.783891
O9    O     O_R   0.338690 0.308320 0.993240 -0.541301
O10   O     O_R   0.661310 0.691680 0.006760 -0.541301
O11   O     O_R   0.161310 0.808320 0.006760 -0.539359
O12   O     O_R   0.838690 0.191680 0.993240 -0.539359
O13   O     O_R   0.286170 0.140430 0.130100 -0.537801
O14   O     O_R   0.713830 0.859570 0.869900 -0.537801
O15   O     O_R   0.213830 0.640430 0.869900 -0.536161
O16   O     O_R   0.786170 0.359570 0.130100 -0.536161
C5    C     C_R   0.364505 0.478672 0.996012 0.707251
C6    C     C_R   0.635495 0.521328 0.003988 0.707250
C7    C     C_R   0.135495 0.978731 0.004003 0.707719
C8    C     C_R   0.864505 0.021268 0.995997 0.707720
O17   O     O_3   0.232630 0.472410 0.044750 -0.359044
O18   O     O_3   0.767370 0.527590 0.955250 -0.359043
O19   O     O_3   0.267370 0.972410 0.955250 -0.359569
O20   O     O_3   0.732630 0.027590 0.044750 -0.359569
V1    V     V_3+5 0.253220 0.196620 0.991700 1.594670
V2    V     V_3+5 0.746780 0.803380 0.008300 1.594670
V3    V     V_3+5 0.246780 0.696620 0.008300 1.605147
V4    V     V_3+5 0.753220 0.303380 0.991700 1.605147
C9    C     C_R   0.033497 0.834045 0.015045 -0.205482
C10   C     C_R   0.966502 0.165955 0.984954 -0.205482
C11   C     C_R   0.466658 0.334105 0.985297 -0.209826
C12   C     C_R   0.533342 0.665895 0.014703 -0.209827
H1    H     H_    0.058705 0.704788 0.026772 0.171138
H2    H     H_    0.941295 0.295212 0.973228 0.171138
H3    H     H_    0.441575 0.204908 0.973840 0.169050
H4    H     H_    0.558425 0.795092 0.026160 0.169050
C13   C     C_R   0.967861 0.835758 0.007542 0.013413
C14   C     C_R   0.032139 0.164242 0.992458 0.013414
C15   C     C_R   0.532288 0.335877 0.992752 0.017070
C16   C     C_R   0.467712 0.664123 0.007248 0.017070
C17   C     C_R   0.933216 0.005559 0.994670 -0.051372
C18   C     C_R   0.066784 0.994441 0.005330 -0.051373
C19   C     C_R   0.566781 0.505626 0.005302 -0.049186
C20   C     C_R   0.433218 0.494374 0.994698 -0.049186
C21   C     C_R   0.677748 0.018431 0.724256 -0.260050
C22   C     C_R   0.322252 0.981568 0.275744 -0.260050
C23   C     C_R   0.822333 0.513931 0.275537 -0.260802
C24   C     C_R   0.177667 0.486068 0.724463 -0.260802
C25   C     C_R   0.688519 0.051785 0.567949 0.694627
C26   C     C_R   0.311481 0.948215 0.432051 0.694627
C27   C     C_R   0.810584 0.498095 0.431854 0.697853
C28   C     C_R   0.189416 0.501904 0.568146 0.697853
C29   C     C_R   0.716105 0.045630 0.664656 0.570800
C30   C     C_R   0.283895 0.954370 0.335344 0.570799
C31   C     C_R   0.783251 0.506808 0.335126 0.570095
C32   C     C_R   0.216749 0.493192 0.664874 0.570095
C33   C     C_R   0.611577 0.998231 0.687413 -0.272243
C34   C     C_R   0.388423 0.001769 0.312587 -0.272242
C35   C     C_R   0.888879 0.512786 0.312310 -0.272285
C36   C     C_R   0.111121 0.487214 0.687690 -0.272286
C37   C     C_R   0.581636 0.007720 0.589510 -0.013899
C38   C     C_R   0.418364 0.992280 0.410490 -0.013899
C39   C     C_R   0.918424 0.504831 0.410304 -0.014401
C40   C     C_R   0.081576 0.495168 0.589696 -0.014401
C41   C     C_R   0.621537 0.034340 0.529551 -0.263110
C42   C     C_R   0.378463 0.965660 0.470448 -0.263111
C43   C     C_R   0.877870 0.496874 0.470293 -0.264845
C44   C     C_R   0.122130 0.503125 0.529707 -0.264845
C45   C     C_R   0.513587 0.993817 0.549673 0.026162
C46   C     C_R   0.486413 0.006183 0.450327 0.026162
C47   C     C_R   0.986639 0.504488 0.450253 0.026008
C48   C     C_R   0.013361 0.495512 0.549747 0.026008
C49   C     C_R   0.528185 0.031286 0.393979 -0.247460
C50   C     C_R   0.471815 0.968714 0.606021 -0.247460
C51   C     C_R   0.971007 0.486918 0.606092 -0.248068
C52   C     C_R   0.028993 0.513082 0.393908 -0.248068
C53   C     C_R   0.593977 0.044847 0.432438 0.746508
C54   C     C_R   0.406023 0.955153 0.567562 0.746508
C55   C     C_R   0.905039 0.487750 0.567516 0.747292
C56   C     C_R   0.094960 0.512250 0.432484 0.747292
H5    H     H_    0.414844 0.020548 0.262128 0.136446
H6    H     H_    0.585156 0.979452 0.737872 0.136446
H7    H     H_    0.084251 0.481632 0.738184 0.134924
H8    H     H_    0.915749 0.518367 0.261816 0.134924
H9    H     H_    0.511798 0.041681 0.318787 0.151764
H10   H     H_    0.488202 0.958319 0.681213 0.151764
H11   H     H_    0.987040 0.479173 0.681380 0.151207
H12   H     H_    0.012960 0.520827 0.318620 0.151207
C57   C     C_2   0.937860 0.654231 0.008607 0.376286
H13   H     H_    0.955739 0.561976 0.068070 0.012340
O21   O     O_2   0.895470 0.602755 0.940329 -0.489027
C58   C     C_2   0.062139 0.345769 0.991393 0.376286
H14   H     H_    0.044261 0.438024 0.931930 0.012340
O22   O     O_2   0.104530 0.397244 0.059671 -0.489028
C59   C     C_2   0.562438 0.154415 0.991882 0.380470
H15   H     H_    0.544836 0.063187 0.932297 0.010115
O23   O     O_2   0.604684 0.101918 0.060366 -0.487088
C60   C     C_2   0.437561 0.845585 0.008118 0.380470
H16   H     H_    0.455164 0.936813 0.067703 0.010115
O24   O     O_2   0.395316 0.898082 0.939634 -0.487087
F1    F     F_    0.630553 0.069618 0.373065 -0.563385
F2    F     F_    0.369447 0.930382 0.626934 -0.563385
F3    F     F_    0.867874 0.479209 0.626907 -0.562319
F4    F     F_    0.132126 0.520791 0.373093 -0.562319
F5    F     F_    0.219589 0.932924 0.299611 -0.595542
F6    F     F_    0.780411 0.067076 0.700389 -0.595541
F7    F     F_    0.281509 0.492116 0.700599 -0.596603
F8    F     F_    0.718491 0.507884 0.299401 -0.596603
F9    F     F_    0.727644 0.077598 0.512351 -0.527791
F10   F     F_    0.272355 0.922402 0.487649 -0.527791
F11   F     F_    0.770831 0.491141 0.487507 -0.526784
F12   F     F_    0.229169 0.508859 0.512492 -0.526784

loop_
_geom_bond_atom_site_label_1
_geom_bond_atom_site_label_2
_ccdc_geom_bond_type
O17   V3    S    
O18   V4    S    
C57   H13   S    
C27   C31   A    
C35   H8    S    
O19   V1    S    
C30   F5    S    
O13   V1    S    
C45   C46   A    
O3    C7    A    
C10   C14   A    
C48   C51   A    
C52   C56   A    
O15   V3    S    
C4    C21   S    
C21   C29   A    
C50   H10   S    
O1    C5    A    
C49   H9    S    
C14   C58   S    
C8    C17   S    
C36   C40   A    
O9    V1    S    
C15   C59   S    
O16   V4    S    
O4    C8    A    
C2    C23   S    
C38   C46   A    
O1    V3    S    
C37   C45   A    
C12   C19   A    
O2    V4    S    
C14   C18   A    
O3    V1    S    
C24   C32   A    
C1    O15   A    
C13   C57   S    
C59   H15   S    
C2    O16   A    
C28   C44   A    
C46   C49   A    
C58   O22   D    
O2    C6    A    
C45   C50   A    
O14   V2    S    
C11   C15   A    
C47   C52   A    
C36   H7    S    
O5    V1    S    
C23   C35   A    
O8    C4    A    
C5    C20   S    
O11   C7    A    
C6    C19   S    
C25   C41   A    
O12   C8    A    
C7    C18   S    
C9    C18   A    
C1    C24   S    
O10   V2    S    
C11   C20   A    
C25   F9    S    
O7    C3    A    
C43   C55   A    
C34   H5    S    
C35   C39   A    
C21   C33   A    
C34   C38   A    
C22   C30   A    
C12   H4    S    
O7    V3    S    
C24   C36   A    
C25   C29   A    
C9    H1    S    
C28   C32   A    
O8    V4    S    
C52   H12   S    
C11   H3    S    
C47   C48   A    
O5    C1    A    
C50   C54   A    
C29   F6    S    
C26   C42   A    
C49   C53   A    
C40   C44   A    
C58   H14   S    
C31   F8    S    
C28   F12   S    
O9    C5    A    
C10   C17   A    
C40   C48   A    
C60   O24   D    
C44   C56   A    
C59   O23   D    
C22   C34   A    
C12   C16   A    
C23   C31   A    
C26   C30   A    
C53   F1    S    
C3    O13   A    
C16   C60   S    
O6    V2    S    
C10   H2    S    
C51   H11   S    
O6    C2    A    
O11   V3    S    
O12   V4    S    
C9    C13   A    
O10   C6    A    
O20   V2    S    
C3    C22   S    
C51   C55   A    
C38   C42   A    
C27   F11   S    
C37   C41   A    
C26   F10   S    
C56   F4    S    
C55   F3    S    
C39   C43   A    
C54   F2    S    
C60   H16   S    
C42   C54   A    
O4    V2    S    
C41   C53   A    
C33   H6    S    
C33   C37   A    
C39   C47   A    
C57   O21   D    
C4    O14   A    
C32   F7    S    
C13   C17   A    
C15   C19   A    
C27   C43   A    
C16   C20   A    
