data_mof_unit_26457.cif
_audit_creation_date              2013-03-05T16:18:52-0500
_audit_creation_method            fapswitch 2.2
_symmetry_space_group_name_H-M    P1
_symmetry_Int_Tables_number       1
_space_group_crystal_system       triclinic
_cell_length_a                    8.284579
_cell_length_b                    18.779961
_cell_length_c                    22.779562
_cell_angle_alpha                 100.085358
_cell_angle_beta                  89.663257
_cell_angle_gamma                 92.091152
_cell_volume                      3487.04859106

loop_
_atom_site_label
_atom_site_type_symbol
_atom_site_description
_atom_site_fract_x
_atom_site_fract_y
_atom_site_fract_z
_atom_type_partial_charge
P1    P     P_3+3 0.935930 0.665430 0.555670 0.464096
O1    O     O_2   0.110690 0.676100 0.539200 -0.377131
O2    O     O_3   0.863220 0.586720 0.534720 -0.385367
O3    O     O_3   0.368310 0.629070 0.432760 -0.344526
O4    O     O_2   0.246216 0.755731 0.475879 -0.398967
O5    O     O_3   0.935842 0.687220 0.633483 -0.572057
O6    O     O_3   0.342556 0.740812 0.366308 -0.488941
H1    H     H_    0.520224 0.673670 0.326325 0.060355
C1    C     C_3   0.448023 0.747075 0.269478 -0.196423
H2    H     H_    0.345525 0.712157 0.248485 0.208469
P2    P     P_3+3 0.382700 0.439650 0.365620 0.448365
P3    P     P_3+3 0.949373 0.588318 0.324491 0.474532
O7    O     O_2   0.210480 0.460990 0.358130 -0.369825
O8    O     O_3   0.959520 0.592090 0.401630 -0.385964
O9    O     O_2   0.091150 0.543591 0.295476 -0.374358
O10   O     O_3   0.367592 0.345247 0.339638 -0.592018
O11   O     O_3   0.989935 0.675457 0.309480 -0.496287
C2    C     C_3   0.931384 0.725665 0.357236 0.501688
H3    H     H_    0.010490 0.728665 0.396811 0.155028
H4    H     H_    0.806267 0.710754 0.369385 -0.027677
C3    C     C_3   0.931579 0.800085 0.339609 -0.935657
H5    H     H_    0.056669 0.817692 0.329877 0.300938
H6    H     H_    0.855306 0.798422 0.299426 0.263151
C4    C     C_3   0.859776 0.365717 0.335268 0.433609
H7    H     H_    0.889925 0.420179 0.361540 0.140666
C5    C     C_3   0.957100 0.357912 0.277302 -0.901138
H8    H     H_    0.929428 0.304614 0.248759 0.242594
H9    H     H_    0.926376 0.401310 0.252251 0.230154
H10   H     H_    0.088119 0.362419 0.286235 0.281066
Ba1   Ba    Ba6+2 0.157800 0.534120 0.474430 1.541538
C6    C     C_3   0.001101 0.631874 0.658267 0.406025
H11   H     H_    0.113531 0.613196 0.635173 0.110046
H12   H     H_    0.911524 0.586033 0.655416 0.103264
C7    C     C_3   0.039418 0.661923 0.723430 -0.922759
H13   H     H_    0.121135 0.710676 0.726580 0.280114
H14   H     H_    0.100140 0.621629 0.744792 0.228134
H15   H     H_    0.926183 0.677027 0.748090 0.256159
C8    C     C_3   0.276536 0.307663 0.377187 0.417952
H16   H     H_    0.176694 0.340211 0.397865 0.141084
C9    C     C_3   0.208776 0.236910 0.340355 -0.867321
H17   H     H_    0.136039 0.247042 0.302361 0.272405
H18   H     H_    0.131925 0.207068 0.368698 0.221150
H19   H     H_    0.308813 0.201880 0.321919 0.233999
P4    P     P_3+3 0.874370 0.334570 0.444280 0.432418
O12   O     O_2   0.699610 0.323860 0.460780 -0.406219
O13   O     O_3   0.947090 0.413280 0.465240 -0.392150
O14   O     O_3   0.442000 0.370930 0.567190 -0.353888
O15   O     O_3   0.891197 0.309096 0.366089 -0.597522
P5    P     P_3+3 0.855330 0.416337 0.676138 0.482865
O16   O     O_3   0.359410 0.538600 0.570730 -0.395457
O17   O     O_3   0.850780 0.407910 0.598320 -0.387914
O18   O     O_2   0.687974 0.442737 0.699080 -0.367752
O19   O     O_3   0.861044 0.330582 0.696349 -0.511871
Ba2   Ba    Ba6+2 0.652390 0.465870 0.525520 1.538473
P6    P     P_3+3 0.386910 0.722612 0.437076 0.458732
C10   C     C_3   0.482108 0.730620 0.331126 0.249006
H20   H     H_    0.581159 0.768439 0.350751 0.063687
H21   H     H_    0.557273 0.736582 0.241374 0.174628
O20   O     O_3   0.450900 0.461390 0.429220 -0.404997
C11   C     C_3   0.483822 0.687412 0.621817 0.448773
H22   H     H_    0.607606 0.669282 0.609890 0.101693
H23   H     H_    0.404344 0.674716 0.581972 0.118745
C12   C     C_3   0.491582 0.769055 0.641732 -1.014646
H24   H     H_    0.574153 0.783923 0.680517 0.279088
H25   H     H_    0.537213 0.795766 0.604809 0.220077
H26   H     H_    0.369167 0.788491 0.654596 0.257134
P7    P     P_3+3 0.418016 0.560697 0.645641 0.449018
O21   O     O_2   0.599830 0.538970 0.641850 -0.359289
O22   O     O_3   0.422042 0.654723 0.668566 -0.560300
H27   H     H_    0.882746 0.839959 0.376574 0.218587
C13   C     C_3   0.879618 0.278229 0.644950 0.518910
H28   H     H_    0.781931 0.280381 0.612232 0.169740
H29   H     H_    0.998595 0.286573 0.624337 -0.009815
C14   C     C_3   0.870817 0.203443 0.662034 -0.987199
H30   H     H_    0.750787 0.193604 0.681684 0.283466
H31   H     H_    0.888161 0.161497 0.621929 0.224474
H32   H     H_    0.966203 0.199112 0.695128 0.256491
P8    P     P_3+3 0.420828 0.278260 0.566068 0.430185
C15   C     C_3   0.328310 0.275842 0.673169 0.354262
H33   H     H_    0.234081 0.233316 0.657586 0.055728
O23   O     O_2   0.559935 0.243468 0.527116 -0.404703
O24   O     O_3   0.467066 0.263959 0.637754 -0.506421
H34   H     H_    0.280831 0.330389 0.672511 0.091861
H35   H     H_    0.258548 0.273434 0.764200 0.255950
C16   C     C_3   0.370436 0.270871 0.737067 -0.831662
H36   H     H_    0.454804 0.316357 0.755953 0.272858
H37   H     H_    0.427977 0.218739 0.738667 0.240262
C17   C     C_R   0.993458 0.952964 0.528795 0.012208
C18   C     C_R   0.083099 0.905847 0.556575 0.114399
C19   C     C_R   0.233662 0.929742 0.582074 -0.177195
C20   C     C_R   0.294352 0.999805 0.580430 -0.188962
C21   C     C_R   0.204505 0.047806 0.554107 0.133740
C22   C     C_R   0.053589 0.024463 0.528068 0.018061
C23   C     C_R   0.262602 0.118927 0.554390 -0.255057
C24   C     C_R   0.170281 0.168729 0.530467 -0.011642
C25   C     C_R   0.020310 0.144963 0.502657 -0.003523
C26   C     C_R   0.962992 0.072472 0.501447 -0.018614
C27   C     C_R   0.221899 0.242000 0.534541 0.156151
C28   C     C_R   0.122210 0.290604 0.512941 -0.523757
C29   C     C_R   0.979419 0.267515 0.481741 0.284467
C30   C     C_R   0.927854 0.193207 0.475834 -0.061134
C31   C     C_R   0.843328 0.928944 0.502428 -0.015426
C32   C     C_R   0.785583 0.856580 0.501490 -0.002441
C33   C     C_R   0.879110 0.808069 0.527586 -0.051143
C34   C     C_R   0.022712 0.835304 0.557865 -0.134950
H38   H     H_    0.305298 0.894030 0.602949 0.136162
H39   H     H_    0.411146 0.016687 0.600319 0.137730
H40   H     H_    0.161567 0.346841 0.517322 0.178170
H41   H     H_    0.378708 0.135215 0.574798 0.177032
H42   H     H_    0.091703 0.801887 0.581696 0.169674
C35   C     C_R   0.785831 0.165478 0.444711 -0.128841
C36   C     C_R   0.724538 0.095201 0.446478 0.113949
C37   C     C_R   0.813298 0.048321 0.474795 0.012090
C38   C     C_R   0.752693 0.976968 0.475829 0.013284
C39   C     C_R   0.573803 0.071422 0.421044 -0.167224
C40   C     C_R   0.511941 0.001720 0.423492 -0.149538
C41   C     C_R   0.601283 0.953800 0.450131 0.126360
C42   C     C_R   0.634613 0.833037 0.474328 -0.037792
C43   C     C_R   0.542194 0.882948 0.450545 -0.225934
C44   C     C_R   0.582449 0.759803 0.470608 0.160767
C45   C     C_R   0.680919 0.711389 0.492638 -0.525923
C46   C     C_R   0.826770 0.733951 0.521792 0.263356
H43   H     H_    0.718392 0.198365 0.420015 0.158987
H44   H     H_    0.502701 0.107088 0.399823 0.129554
H45   H     H_    0.394729 0.985012 0.403909 0.156104
H46   H     H_    0.425177 0.866942 0.430825 0.189533
H47   H     H_    0.640295 0.655373 0.488954 0.182135
H48   H     H_    0.334918 0.324154 0.044245 0.171855
H49   H     H_    0.244241 0.319597 0.942473 0.170190
C47   C     C_R   0.645493 0.523717 0.335195 -0.489148
C48   C     C_R   0.371366 0.561396 0.947837 -0.055646
C49   C     C_R   0.322251 0.557446 0.888106 0.520347
O25   O     O_2   0.330968 0.611802 0.865373 -0.581135
N1    N     N_R   0.263016 0.492741 0.855280 -0.167957
C50   C     C_R   0.248802 0.431263 0.881084 0.527345
O26   O     O_2   0.193627 0.374797 0.852144 -0.598521
C51   C     C_R   0.299173 0.433101 0.940483 -0.051095
C52   C     C_R   0.360752 0.498652 0.973963 -0.017585
C53   C     C_R   0.431216 0.626635 0.982008 -0.114077
C54   C     C_R   0.479689 0.629602 0.040998 -0.109370
C55   C     C_R   0.470966 0.567299 0.067548 -0.048123
C56   C     C_R   0.411822 0.501518 0.033846 -0.019608
C57   C     C_R   0.290635 0.370820 0.967056 -0.117124
C58   C     C_R   0.342985 0.373436 0.025631 -0.114598
C59   C     C_R   0.403879 0.438597 0.059725 -0.051878
C60   C     C_R   0.457244 0.442220 0.119028 0.522249
N2    N     N_R   0.511931 0.507516 0.152546 -0.164285
C61   C     C_R   0.519080 0.569561 0.127173 0.527840
C62   C     C_2   0.066219 0.472816 0.773603 -0.159854
C63   C     C_3   0.021351 0.479754 0.710295 0.143204
C64   C     C_1   0.303427 0.509173 0.693775 0.284014
C65   C     C_2   0.345164 0.508038 0.749609 -0.182087
C66   C     C_2   0.220094 0.489522 0.793077 0.126414
C67   C     C_R   0.710818 0.542757 0.235249 -0.223153
C68   C     C_R   0.753154 0.548831 0.295461 0.186554
C69   C     C_R   0.499365 0.488950 0.315115 0.335957
C70   C     C_R   0.455154 0.483758 0.255098 -0.184198
C71   C     C_R   0.559437 0.511437 0.214540 0.132130
O27   O     O_2   0.456648 0.387030 0.140601 -0.588138
O28   O     O_2   0.565930 0.627128 0.156745 -0.617982
C72   C     C_2   0.169583 0.475669 0.670984 -0.470276
H50   H     H_    0.524614 0.680999 0.065747 0.176737
H51   H     H_    0.795221 0.562163 0.204658 0.172489
H52   H     H_    0.440643 0.675791 0.963246 0.174508
H53   H     H_    0.468306 0.521992 0.764463 0.164150
H54   H     H_    0.972286 0.461760 0.804549 0.155016
H55   H     H_    0.340835 0.457417 0.239861 0.173105
H56   H     H_    0.680004 0.527279 0.381378 0.177068
H57   H     H_    0.165607 0.447418 0.625099 0.167465
N3    N     N_3   0.378515 0.289036 0.423304 -0.214613
H58   H     H_    0.416167 0.336913 0.450844 0.189462
H59   H     H_    0.478814 0.262833 0.403063 0.136388
I1    I     I_    0.394590 0.858522 0.274163 -0.374574
N4    N     N_3   0.690864 0.360450 0.320142 -0.214678
H60   H     H_    0.664931 0.310639 0.292593 0.155305
H61   H     H_    0.635345 0.357084 0.360534 0.159621

loop_
_geom_bond_atom_site_label_1
_geom_bond_atom_site_label_2
_geom_bond_distance
_ccdc_geom_bond_type
C8    C9    1.531425 S    
C34   H42   1.079064 S    
C12   H25   1.110034 S    
C70   C71   1.412860 A    
C2    C3    1.520172 S    
P2    O7    1.514575 D    
C35   C36   1.403852 A    
O6    P6    1.749203 S    
C4    N4    1.438870 S    
C70   H55   1.082444 S    
C65   H53   1.085088 S    
C24   C27   1.413410 A    
C50   O26   1.221212 D    
C16   H36   1.111107 S    
C40   C41   1.403955 A    
C28   H40   1.081665 S    
Ba1   Ba2   4.555031 S    
C5    H8    1.110967 S    
O16   Ba2   2.921899 S    
C14   H31   1.109266 S    
P5    C63   1.866572 S    
C11   C12   1.519975 S    
C21   C22   1.408855 A    
C69   C70   1.403352 A    
C4    C5    1.530839 S    
C2    H3    1.109889 S    
C41   C43   1.402506 A    
C59   C60   1.413390 A    
C8    H16   1.100524 S    
O2    Ba2   2.791770 S    
N1    C66   1.453362 S    
C33   C46   1.426608 A    
N3    H58   1.040952 S    
C54   H50   1.083377 S    
C57   C58   1.397564 A    
C7    H15   1.110625 S    
C10   H20   1.108270 S    
C11   H23   1.110852 S    
C7    H13   1.110893 S    
C61   O28   1.220916 D    
C63   C72   1.511862 S    
C62   C66   1.359786 D    
C42   C43   1.411883 A    
C36   C37   1.408411 A    
C55   C61   1.410824 A    
N4    H60   1.047077 S    
C55   C56   1.408439 A    
C9    H19   1.111271 S    
C24   C25   1.419142 A    
P2    Ba1   3.377812 S    
C49   O25   1.222594 D    
P5    O17   1.752391 S    
C14   H32   1.110205 S    
P3    O11   1.749949 S    
P8    C27   1.859099 S    
C64   C65   1.323975 D    
C6    H12   1.109253 S    
C1    I1    2.139316 S    
C47   C68   1.395175 A    
C1    H2    1.110889 S    
C2    H4    1.109968 S    
P6    C44   1.854901 S    
C72   H57   1.086287 S    
C17   C18   1.408734 A    
C9    H18   1.110016 S    
O5    C6    1.393373 S    
C51   C57   1.407445 A    
C12   H26   1.110707 S    
C3    H5    1.109234 S    
C25   C26   1.421064 A    
C56   C59   1.409258 A    
H1    C10   1.113018 S    
C23   C24   1.411494 A    
O6    C10   1.402529 S    
O8    Ba1   2.725535 S    
P2    O20   1.539649 S    
C33   C34   1.412223 A    
P4    O13   1.570706 S    
C8    N3    1.449288 S    
C42   C44   1.414814 A    
Ba2   O20   2.752065 S    
C16   H37   1.110794 S    
C54   C55   1.407526 A    
C67   H51   1.082567 S    
C14   H30   1.110706 S    
C60   N2    1.388361 Am   
N2    C61   1.387687 Am   
P7    O21   1.572811 D    
C4    O15   1.405427 S    
C20   H39   1.083729 S    
O7    Ba1   2.801982 S    
C48   C53   1.406779 A    
C4    H7    1.111478 S    
C19   H38   1.082687 S    
C47   C69   1.394746 A    
C52   C56   1.421994 A    
C20   C21   1.403480 A    
C13   H29   1.107091 S    
C60   O27   1.222193 D    
C64   C72   1.317721 D    
C12   H24   1.110528 S    
P7    C64   1.825392 S    
P1    O5    1.747965 S    
C11   H22   1.109588 S    
P1    O2    1.570646 S    
O2    Ba1   2.911919 S    
C31   C38   1.410854 A    
P4    Ba2   3.402892 S    
C15   O24   1.402437 S    
P2    O10   1.768126 S    
P8    O24   1.747551 S    
C28   C29   1.398955 A    
P3    O9    1.546104 D    
C39   C40   1.398411 A    
P5    O18   1.546663 D    
Ba1   O20   2.922739 S    
O13   Ba2   2.912613 S    
C21   C23   1.402057 A    
O11   C2    1.405596 S    
C45   C46   1.397899 A    
C6    C7    1.523707 S    
C1    C10   1.519991 S    
H35   C16   1.108907 S    
P4    O15   1.767573 S    
H48   C58   1.083240 S    
C67   C68   1.401894 A    
P2    C69   1.846527 S    
O14   Ba2   2.732127 S    
C9    H17   1.104793 S    
P3    O8    1.748584 S    
O12   Ba2   2.851731 S    
C40   H45   1.083613 S    
C3    H6    1.110614 S    
O3    P6    1.743389 S    
C32   C42   1.419706 A    
P3    C68   1.839203 S    
C26   C37   1.408419 A    
C48   C49   1.411158 A    
O19   C13   1.402470 S    
C22   C26   1.410745 A    
C15   C16   1.518269 S    
P4    O12   1.508881 D    
C37   C38   1.417788 A    
O16   P7    1.751249 S    
C50   C51   1.412599 A    
C35   H43   1.077326 S    
C17   C22   1.417844 A    
C1    H21   1.109006 S    
C39   H44   1.083913 S    
O4    P6    1.541103 D    
C6    H11   1.104905 S    
C62   H54   1.085664 S    
C58   C59   1.407791 A    
C13   C14   1.520830 S    
C17   C31   1.408596 A    
C53   C54   1.395904 A    
C45   H47   1.081926 S    
N1    C50   1.385385 Am   
H49   C57   1.083320 S    
C30   C35   1.412097 A    
C51   C52   1.409706 A    
C23   H41   1.081150 S    
C5    H9    1.111033 S    
Ba1   O13   2.791046 S    
C3    H27   1.109384 S    
O1    Ba1   2.851343 S    
O17   Ba2   2.726000 S    
C13   H28   1.110013 S    
C48   C52   1.409904 A    
C62   C63   1.520045 S    
C15   H34   1.113193 S    
P4    C29   1.880553 S    
P8    O23   1.543457 D    
C19   C20   1.397928 A    
N3    H59   1.044554 S    
C11   O22   1.404455 S    
P5    O19   1.753087 S    
P1    O1    1.508592 D    
P1    Ba1   3.402502 S    
C7    H14   1.105481 S    
Ba1   O16   2.752671 S    
C31   C32   1.420800 A    
N4    H61   1.037020 S    
C38   C41   1.408907 A    
C53   H52   1.083281 S    
C15   H33   1.109812 S    
C43   H46   1.080972 S    
C47   H56   1.081894 S    
Ba2   O21   2.802213 S    
C65   C66   1.502403 S    
C5    H10   1.103002 S    
C49   N1    1.385336 Am   
C27   C28   1.405146 A    
C18   C34   1.404034 A    
C32   C33   1.424890 A    
C67   C71   1.413253 A    
C44   C45   1.400976 A    
C29   C30   1.428086 A    
O14   P8    1.738511 S    
P7    O22   1.750670 S    
C18   C19   1.403931 A    
C25   C30   1.425107 A    
N2    C71   1.456924 S    
C36   C39   1.404184 A    
O3    Ba1   2.732869 S    
P1    C46   1.873566 S    
O10   C8    1.401376 S    
