data_mof_unit_7230.cif
_audit_creation_date              2012-12-11T17:05:30-0500
_audit_creation_method            fapswitch 2.2
_symmetry_space_group_name_H-M    P1
_symmetry_Int_Tables_number       1
_space_group_crystal_system       triclinic
_cell_length_a                    6.952487
_cell_length_b                    14.529733
_cell_length_c                    16.018532
_cell_angle_alpha                 90.241911
_cell_angle_beta                  89.99764
_cell_angle_gamma                 89.967773
_cell_volume                      1618.14185772

loop_
_atom_site_label
_atom_site_type_symbol
_atom_type_description
_atom_site_fract_x
_atom_site_fract_y
_atom_site_fract_z
_atom_type_partial_charge
O1    O     O_R   0.494380 0.415640 0.412830 -0.539554
O2    O     O_R   0.823960 0.405540 0.586560 -0.542278
O3    O     O_R   0.994270 0.584360 0.587170 -0.542599
C1    C     C_R   0.655205 0.383418 0.615181 0.694673
O4    O     O_R   0.824090 0.404620 0.413450 -0.546043
O5    O     O_R   0.994400 0.583430 0.412820 -0.537075
C2    C     C_R   0.655319 0.382394 0.384530 0.684536
O6    O     O_R   0.494250 0.416570 0.587180 -0.536522
O7    O     O_3   0.660800 0.558670 0.500000 -0.360406
V1    V     V_3+5 0.935650 0.489120 0.500000 1.400559
O8    O     O_R   0.324110 0.594460 0.413440 -0.531643
C3    C     C_R   0.155038 0.616178 0.384381 0.703565
O9    O     O_R   0.323980 0.595380 0.586550 -0.541765
C4    C     C_R   0.155169 0.617630 0.615456 0.708662
V2    V     V_3+5 0.435660 0.510880 0.500000 1.423646
O10   O     O_3   0.160640 0.441330 0.500000 -0.374607
C5    C     C_3   0.043362 0.644608 0.764890 0.087952
H1    H     H_    0.892710 0.627298 0.746866 0.114938
C6    C     C_3   0.034224 0.716160 0.837970 -0.366058
H2    H     H_    0.110834 0.690292 0.894183 0.126330
H3    H     H_    0.881408 0.726442 0.856533 0.123259
H4    H     H_    0.878185 0.751895 0.641509 0.146101
H5    H     H_    0.859349 0.856309 0.748592 0.141203
C7    C     C_3   0.026034 0.772847 0.660238 -0.392930
C8    C     C_3   0.348242 0.721938 0.712086 -0.322300
C9    C     C_3   0.144634 0.687032 0.686756 0.114503
H6    H     H_    0.417732 0.756057 0.657779 0.139683
H7    H     H_    0.443109 0.663567 0.729783 0.140789
C10   C     C_3   0.123034 0.809423 0.811111 0.102109
C11   C     C_3   0.013171 0.844008 0.732815 -0.333792
C12   C     C_3   0.335827 0.791207 0.785235 -0.317002
H8    H     H_    0.418018 0.763735 0.839332 0.136809
H9    H     H_    0.405692 0.856825 0.766329 0.136981
H10   H     H_    0.093710 0.805635 0.604876 0.140434
H11   H     H_    0.074510 0.910855 0.712111 0.127906
C13   C     C_R   0.266595 0.818855 0.242721 0.043752
C14   C     C_R   0.118156 0.815702 0.183556 -0.099939
C15   C     C_R   0.970087 0.751130 0.196907 -0.189632
H12   H     H_    0.850210 0.746981 0.154044 0.125270
C16   C     C_R   0.981739 0.686899 0.262527 -0.186740
H13   H     H_    0.870255 0.635369 0.268146 0.127530
C17   C     C_R   0.141015 0.685741 0.317149 -0.139715
C18   C     C_R   0.277220 0.755904 0.307955 0.109398
C19   C     C_3   0.491403 0.751471 0.302646 0.044344
C20   C     C_3   0.479563 0.820806 0.231335 -0.445372
H14   H     H_    0.545527 0.682342 0.284234 0.127858
H15   H     H_    0.523422 0.791535 0.170044 0.158512
H16   H     H_    0.541571 0.889544 0.245925 0.167691
C21   C     C_R   0.492573 0.316063 0.741118 0.106663
C22   C     C_R   0.647477 0.317311 0.685205 -0.110746
C23   C     C_R   0.799257 0.255193 0.699759 -0.179195
H17   H     H_    0.921764 0.253567 0.658305 0.132331
C24   C     C_R   0.788040 0.189929 0.764303 -0.182413
H18   H     H_    0.902920 0.140302 0.770943 0.125621
C25   C     C_R   0.624379 0.184655 0.815982 -0.111494
C26   C     C_R   0.481126 0.251256 0.804849 0.101384
C27   C     C_3   0.270480 0.238602 0.792290 -0.414724
C28   C     C_3   0.282890 0.309429 0.723070 -0.398168
H19   H     H_    0.185398 0.262551 0.846981 0.178026
H20   H     H_    0.235357 0.168316 0.769309 0.164532
H21   H     H_    0.205334 0.374371 0.737791 0.198150
H22   H     H_    0.254444 0.280436 0.659940 0.166477
C29   C     C_R   0.492995 0.316011 0.257246 0.097895
C30   C     C_R   0.647363 0.316495 0.313534 -0.110969
C31   C     C_R   0.798884 0.254347 0.297910 -0.180514
H23   H     H_    0.921308 0.252177 0.339374 0.131603
C32   C     C_R   0.787698 0.189832 0.232087 -0.179249
H24   H     H_    0.902462 0.140214 0.224689 0.127161
C33   C     C_R   0.624334 0.185233 0.180027 -0.112944
C34   C     C_R   0.481488 0.251919 0.192351 0.101488
C35   C     C_3   0.270526 0.239801 0.204193 -0.407400
C36   C     C_3   0.282921 0.310005 0.274542 -0.399956
H25   H     H_    0.234270 0.169417 0.226025 0.165813
H26   H     H_    0.186476 0.264471 0.149658 0.175025
H27   H     H_    0.253012 0.280596 0.337157 0.169199
H28   H     H_    0.206813 0.375452 0.260524 0.166023
O11   O     O_R   0.771490 0.080820 0.910070 -0.538920
O12   O     O_R   0.441590 0.092730 0.083780 -0.538454
O13   O     O_R   0.271350 0.913900 0.084390 -0.535235
C37   C     C_R   0.610583 0.114759 0.112900 0.697975
O14   O     O_R   0.441780 0.091820 0.910670 -0.539396
O15   O     O_R   0.271540 0.912980 0.910040 -0.542235
C38   C     C_R   0.610792 0.113833 0.881940 0.695263
O16   O     O_R   0.771300 0.081740 0.084420 -0.538409
O17   O     O_3   0.604960 0.938700 0.997240 -0.371513
V3    V     V_3+5 0.330090 0.008230 0.997220 1.388003
O18   O     O_R   0.941820 0.901930 0.910640 -0.544327
C39   C     C_R   0.111059 0.879697 0.881678 0.659474
O19   O     O_R   0.941630 0.902840 0.083750 -0.543512
C40   C     C_R   0.110443 0.880965 0.112674 0.699196
V4    V     V_3+5 0.830090 0.986410 0.997190 1.379457
O20   O     O_3   0.105080 0.055990 0.997200 -0.365948
N1    N     N_3   0.583283 0.787988 0.378082 -0.647291
H29   H     H_    0.526459 0.852754 0.392959 0.225184
H30   H     H_    0.729234 0.797433 0.365088 0.241631
N2    N     N_3   0.137173 0.558875 0.790913 -0.708173
H31   H     H_    0.049822 0.526998 0.835397 0.222872
H32   H     H_    0.268131 0.573435 0.820160 0.231717

loop_
_geom_bond_atom_site_label_1
_geom_bond_atom_site_label_2
_ccdc_geom_bond_type
C28   H22   S    
O18   C39   A    
C8    C12   S    
N1    H29   S    
O18   V4    S    
C6    H2    S    
C37   O16   A    
O17   V4    S    
V1    O10   S    
C24   H18   S    
C8    H7    S    
C14   C15   A    
C14   C40   S    
C5    C9    S    
C13   C14   A    
C6    H3    S    
C7    C9    S    
O5    C3    A    
C15   H12   S    
O12   C37   A    
C27   H19   S    
O11   C38   A    
V2    O10   S    
C26   C27   S    
C20   H15   S    
O13   C40   A    
C3    C17   S    
C19   N1    S    
O8    V2    S    
C31   C32   A    
N2    H32   S    
C12   H9    S    
C34   C35   S    
O1    V2    S    
O16   V4    S    
O19   V4    S    
O7    V1    S    
O14   V3    S    
C1    O6    A    
O12   V3    S    
C28   H21   S    
C16   C17   A    
N1    H30   S    
O9    C4    A    
C10   C39   S    
C36   H27   S    
O14   C38   A    
C19   H14   S    
C5    H1    S    
C24   C25   A    
C23   H17   S    
H5    C11   S    
V4    O20   S    
O4    C2    A    
C27   H20   S    
C8    C9    S    
O17   V3    S    
C7    H10   S    
C21   C28   S    
C32   H24   S    
C1    C22   S    
C23   C24   A    
O2    C1    A    
C18   C19   S    
C10   C11   S    
C12   H8    S    
C29   C34   A    
N2    H31   S    
C25   C26   A    
C22   C23   A    
C13   C20   S    
C5    N2    S    
C4    C9    S    
O3    C4    A    
C11   H11   S    
C16   H13   S    
C31   H23   S    
O6    V2    S    
O9    V2    S    
H4    C7    S    
C17   C18   A    
C25   C38   S    
O2    V1    S    
C19   C20   S    
C35   H25   S    
C20   H16   S    
O11   V4    S    
O1    C2    A    
C13   C18   A    
O5    V1    S    
C35   H26   S    
O8    C3    A    
C8    H6    S    
C21   C26   A    
C30   C31   A    
O7    V2    S    
C35   C36   S    
C10   C12   S    
O3    V1    S    
O15   V3    S    
C15   C16   A    
C27   C28   S    
C36   H28   S    
O15   C39   A    
C5    C6    S    
C33   C34   A    
C7    C11   S    
C2    C30   S    
C29   C30   A    
O4    V1    S    
C29   C36   S    
C21   C22   A    
C33   C37   S    
V3    O20   S    
C32   C33   A    
O19   C40   A    
O13   V3    S    
C6    C10   S    
