data_mof_unit_7989.cif
_audit_creation_date              2012-12-10T17:16:37-0500
_audit_creation_method            fapswitch 2.2
_symmetry_space_group_name_H-M    P1
_symmetry_Int_Tables_number       1
_space_group_crystal_system       triclinic
_cell_length_a                    10.143888
_cell_length_b                    10.675914
_cell_length_c                    10.790188
_cell_angle_alpha                 89.925748
_cell_angle_beta                  95.106361
_cell_angle_gamma                 81.764194
_cell_volume                      1151.76849671

loop_
_atom_site_label
_atom_site_type_symbol
_atom_type_description
_atom_site_fract_x
_atom_site_fract_y
_atom_site_fract_z
_atom_type_partial_charge
C1    C     C_R   0.444048 0.504366 0.267312 0.914898
C2    C     C_R   0.555830 0.487630 0.732689 0.908687
C3    C     C_2   0.412273 0.493458 0.135296 -0.361879
C4    C     C_2   0.587125 0.467221 0.864703 -0.336631
C5    C     C_2   0.511169 0.450227 0.066308 -0.100342
C6    C     C_2   0.487369 0.453802 0.933693 -0.108797
C7    C     C_2   0.072743 0.489714 0.489836 -0.119177
C8    C     C_2   0.927269 0.510254 0.510188 -0.116501
C9    C     C_R   0.499227 0.260945 0.500186 0.864829
C10   C     C_R   0.500758 0.739059 0.499744 0.871765
C11   C     C_R   0.550839 0.123969 0.279409 -0.267824
C12   C     C_R   0.449789 0.875972 0.720716 -0.266229
C13   C     C_R   0.581861 0.055345 0.173631 0.664258
C14   C     C_R   0.419081 0.944636 0.826579 0.668548
C15   C     C_R   0.584380 0.925016 0.173980 -0.147989
C16   C     C_R   0.416543 0.074974 0.826205 -0.152693
C17   C     C_R   0.555986 0.863264 0.280100 -0.248543
C18   C     C_R   0.444414 0.136732 0.719910 -0.249921
C19   C     C_R   0.529023 0.931042 0.390412 0.065884
C20   C     C_R   0.471123 0.068966 0.609547 0.068626
C21   C     C_R   0.526409 0.062216 0.390047 -0.011468
C22   C     C_R   0.473796 0.937780 0.609938 -0.014480
C23   C     C_R   0.502378 0.871244 0.500291 -0.122215
C24   C     C_R   0.497639 0.128771 0.499637 -0.118905
H1    H     H_    0.393543 0.128567 0.908574 0.195118
H2    H     H_    0.607719 0.871454 0.091682 0.195827
H3    H     H_    0.546374 0.225483 0.272991 0.165711
H4    H     H_    0.454394 0.774362 0.727185 0.171201
H5    H     H_    0.555661 0.762303 0.274053 0.179878
H6    H     H_    0.444619 0.237693 0.725889 0.174801
H7    H     H_    0.384837 0.456169 0.893248 0.180141
H8    H     H_    0.613314 0.421716 0.106758 0.197541
H9    H     H_    0.689337 0.465146 0.905647 0.157629
H10   H     H_    0.310455 0.522150 0.094336 0.165048
H11   H     H_    0.891273 0.578665 0.578193 0.168132
H12   H     H_    0.108747 0.421288 0.421846 0.168397
H13   H     H_    0.880010 0.384353 0.384964 0.171630
H14   H     H_    0.119978 0.615660 0.615019 0.173854
N1    N     N_2   0.157300 0.551390 0.551120 -0.192643
N2    N     N_2   0.842700 0.448610 0.448880 -0.192362
O1    O     O_R   0.568940 0.489660 0.307530 -0.623098
O2    O     O_R   0.431060 0.510340 0.692470 -0.619926
O3    O     O_R   0.348880 0.522640 0.340350 -0.601558
O4    O     O_R   0.651120 0.477360 0.659650 -0.603027
O5    O     O_R   0.610030 0.300280 0.483580 -0.605938
O6    O     O_R   0.389970 0.699720 0.516420 -0.602311
O7    O     O_R   0.389970 0.333270 0.516400 -0.620672
O8    O     O_R   0.610030 0.666730 0.483600 -0.617057
Zn1   Zn    Zn3+2 0.646940 0.477980 0.478080 0.951044
Zn2   Zn    Zn3+2 0.353060 0.522020 0.521920 0.952692
F1    F     F_    0.609472 0.115790 0.070520 -0.689112
F2    F     F_    0.391878 0.884229 0.929811 -0.684841

loop_
_geom_bond_atom_site_label_1
_geom_bond_atom_site_label_2
_ccdc_geom_bond_type
O4    Zn1   S    
C10   O6    A    
C19   C23   A    
C9    C24   S    
C9    O5    A    
C18   H6    S    
C11   H3    S    
C10   C23   S    
O7    Zn2   S    
C17   H5    S    
C7    H12   S    
O6    Zn2   S    
C2    C4    S    
O5    Zn1   S    
C5    H8    S    
C6    H7    S    
C12   C14   A    
C7    C8    S    
O3    Zn2   S    
C16   C18   A    
C13   F1    S    
C11   C13   A    
C5    C6    S    
C1    O3    A    
C2    O2    A    
C1    O1    A    
O8    Zn1   S    
C19   C21   A    
O2    Zn2   S    
C9    O7    A    
H13   N2    S    
C18   C20   A    
C13   C15   A    
C10   O8    A    
H14   N1    S    
C14   C16   A    
N2    Zn1   S    
C12   C22   A    
N1    Zn2   S    
C2    O4    A    
C12   H4    S    
C4    C6    D    
C1    C3    S    
C21   C24   A    
O1    Zn1   S    
C16   H1    S    
C15   C17   A    
C7    N1    D    
C22   C23   A    
C15   H2    S    
C8    N2    D    
C3    H10   S    
C17   C19   A    
C4    H9    S    
C11   C21   A    
C14   F2    S    
C20   C24   A    
C20   C22   A    
C3    C5    D    
C8    H11   S    
