data_mof_unit_34876.cif
_audit_creation_date              2012-12-11T16:57:16-0500
_audit_creation_method            fapswitch 2.2
_symmetry_space_group_name_H-M    P1
_symmetry_Int_Tables_number       1
_space_group_crystal_system       triclinic
_cell_length_a                    14.463873
_cell_length_b                    16.239733
_cell_length_c                    6.983799
_cell_angle_alpha                 89.740864
_cell_angle_beta                  98.575404
_cell_angle_gamma                 89.995132
_cell_volume                      1622.06442676

loop_
_atom_site_label
_atom_site_type_symbol
_atom_type_description
_atom_site_fract_x
_atom_site_fract_y
_atom_site_fract_z
_atom_type_partial_charge
O1    O     O_R   0.584990 0.413650 0.534420 -0.548348
O2    O     O_R   0.584990 0.586350 0.534420 -0.543474
O3    O     O_R   0.596190 0.585230 0.208380 -0.544288
O4    O     O_R   0.596190 0.414770 0.208380 -0.527213
O5    O     O_R   0.415010 0.586420 0.976930 -0.534465
O6    O     O_R   0.415010 0.413580 0.976930 -0.532653
C1    C     C_R   0.618543 0.614232 0.383448 0.713873
C2    C     C_R   0.618930 0.386031 0.384071 0.725230
O7    O     O_3   0.440560 0.500000 0.319140 -0.376189
V1    V     V_3+5 0.511030 0.500000 0.068070 1.456842
O8    O     O_R   0.403810 0.414840 0.643540 -0.541177
O9    O     O_R   0.403810 0.585160 0.643540 -0.548723
C3    C     C_R   0.380760 0.386945 0.806208 0.781865
C4    C     C_R   0.381426 0.613735 0.805863 0.786996
V2    V     V_3+5 0.488970 0.500000 0.560620 1.428515
O10   O     O_3   0.559440 0.500000 0.859420 -0.383771
H1    H     H_    0.188876 0.806603 0.807261 0.150985
H2    H     H_    0.186322 0.196130 0.806803 0.151079
H3    H     H_    0.319411 0.693649 0.100615 0.155430
H4    H     H_    0.319022 0.305984 0.101058 0.166590
C5    C     C_2   0.312508 0.681900 0.796758 -0.316551
C6    C     C_2   0.310302 0.320274 0.797363 -0.358471
C7    C     C_2   0.288345 0.716053 0.958633 -0.092814
C8    C     C_2   0.286783 0.285114 0.959019 -0.107728
H5    H     H_    0.225740 0.795570 0.252653 0.125514
H6    H     H_    0.225683 0.203537 0.252082 0.131403
C9    C     C_2   0.194902 0.818322 0.110849 -0.329059
C10   C     C_2   0.194200 0.181839 0.110247 -0.326719
C11   C     C_2   0.219733 0.784268 0.949442 -0.127990
C12   C     C_2   0.217953 0.217252 0.949054 -0.130699
H7    H     H_    0.281575 0.704940 0.655286 0.112951
H8    H     H_    0.278315 0.298579 0.655876 0.127765
C13   C     C_R   0.733459 0.700821 0.600853 0.025602
C14   C     C_R   0.682625 0.257874 0.561543 0.126086
C15   C     C_R   0.689873 0.681114 0.415481 -0.061565
C16   C     C_R   0.685510 0.315405 0.412781 -0.093314
C17   C     C_R   0.708952 0.733479 0.266426 -0.136196
C18   C     C_R   0.751405 0.300784 0.286713 -0.155390
H9    H     H_    0.667230 0.728382 0.128722 0.164956
H10   H     H_    0.755679 0.342209 0.166667 0.116372
C19   C     C_R   0.773398 0.798996 0.300813 -0.140346
C20   C     C_R   0.816561 0.235365 0.321329 -0.134409
H11   H     H_    0.780677 0.842064 0.188200 0.174848
H12   H     H_    0.868835 0.228743 0.226573 0.119150
C21   C     C_R   0.821677 0.814900 0.485492 -0.085432
C22   C     C_R   0.817466 0.181803 0.481865 -0.100003
C23   C     C_R   0.798688 0.765106 0.635407 0.017444
C24   C     C_R   0.745946 0.192727 0.595317 0.059695
C25   C     C_3   0.758745 0.791743 0.809558 -0.261457
C26   C     C_3   0.748499 0.199480 0.810164 -0.305043
C27   C     C_3   0.688445 0.720719 0.773365 -0.254277
C28   C     C_3   0.677314 0.270412 0.770886 -0.282550
H13   H     H_    0.812770 0.781806 0.937262 0.102008
H14   H     H_    0.818072 0.220664 0.882713 0.111171
H15   H     H_    0.702300 0.668420 0.876675 0.098358
H16   H     H_    0.705932 0.331270 0.822297 0.097923
O11   O     O_R   0.921430 0.915960 0.371040 -0.530368
O12   O     O_R   0.921430 0.084040 0.371040 -0.512848
O13   O     O_R   0.910450 0.087500 0.697310 -0.546385
O14   O     O_R   0.910450 0.912500 0.697310 -0.539283
O15   O     O_R   0.091710 0.087460 0.928430 -0.546646
O16   O     O_R   0.091710 0.912540 0.928430 -0.546177
C29   C     C_R   0.888109 0.114357 0.519823 0.713631
C30   C     C_R   0.888350 0.885497 0.520374 0.698977
O17   O     O_3   0.065970 0.000000 0.586140 -0.383926
V3    V     V_3+5 0.995640 0.000000 0.837400 1.482988
O18   O     O_R   0.103020 0.915700 0.261710 -0.546726
O19   O     O_R   0.103020 0.084300 0.261710 -0.547094
C31   C     C_R   0.125354 0.886103 0.100186 0.741224
C32   C     C_R   0.125074 0.113979 0.099777 0.738558
V4    V     V_3+5 0.017940 0.000000 0.344880 1.458845
O20   O     O_3   0.947330 1.000000 0.046180 -0.333826
C33   C     C_2   0.719128 0.878439 0.787109 0.820790
O21   O     O_2   0.742339 0.929195 0.913190 -0.552187
O22   O     O_R   0.660944 0.901633 0.616969 -0.634864
H17   H     H_    0.643776 0.962040 0.613066 0.318895
C34   C     C_2   0.714564 0.122647 0.900227 0.891656
O23   O     O_2   0.761013 0.093122 0.044540 -0.525631
O24   O     O_R   0.629692 0.086348 0.822113 -0.657555
H18   H     H_    0.610963 0.039732 0.905309 0.317890
C35   C     C_2   0.585504 0.745632 0.734597 0.842722
O25   O     O_2   0.540290 0.747361 0.868919 -0.579456
O26   O     O_R   0.542252 0.767654 0.548682 -0.633722
H19   H     H_    0.473884 0.782483 0.544512 0.291768
C36   C     C_2   0.580411 0.254343 0.818746 0.862595
O27   O     O_2   0.566139 0.259773 0.986274 -0.558276
O28   O     O_R   0.508077 0.230845 0.673333 -0.648312
H20   H     H_    0.449117 0.214961 0.726488 0.294405

loop_
_geom_bond_atom_site_label_1
_geom_bond_atom_site_label_2
_ccdc_geom_bond_type
O15   C32   A    
O28   H20   S    
C9    C11   D    
O1    C2    A    
H1    C11   S    
C33   O21   D    
O2    C1    A    
O4    C2    A    
C35   O25   D    
C23   C25   S    
C36   O27   D    
C5    H7    S    
C26   H14   S    
C6    H8    S    
C7    C11   S    
C4    C5    S    
C28   C36   S    
C15   C17   A    
C18   C20   A    
O3    C1    A    
O13   V3    S    
C20   C22   A    
O12   V4    S    
V2    O10   S    
C2    C16   S    
C21   C23   A    
O8    V2    S    
O15   V3    S    
V3    O20   S    
H4    C8    S    
C10   C12   D    
C25   C27   S    
C26   C28   S    
H2    C12   S    
O7    V1    S    
C27   C35   S    
O18   V4    S    
C9    C31   S    
C34   O23   D    
C24   C26   S    
O14   V3    S    
C33   O22   S    
C20   H12   S    
C35   O26   S    
C34   O24   S    
C22   C24   A    
O16   V3    S    
C36   O28   S    
C27   H15   S    
O17   V4    S    
O16   C31   A    
O18   C31   A    
H3    C7    S    
O22   H17   S    
O26   H19   S    
O9    V2    S    
O11   V4    S    
O2    V2    S    
O5    C4    A    
O1    V2    S    
O9    C4    A    
C5    C7    D    
C13   C23   A    
C25   C33   S    
O13   C29   A    
C13   C27   S    
O4    V1    S    
C26   C34   S    
O11   C30   A    
O12   C29   A    
C14   C28   S    
C10   C32   S    
C19   H11   S    
O6    V1    S    
H5    C9    S    
C21   C30   S    
H6    C10   S    
C22   C29   S    
O14   C30   A    
C16   C18   A    
O7    V2    S    
O5    V1    S    
C17   H9    S    
O3    V1    S    
V1    O10   S    
O6    C3    A    
C18   H10   S    
O8    C3    A    
O19   V4    S    
C25   H13   S    
C1    C15   S    
C13   C15   A    
C14   C16   A    
C3    C6    S    
C6    C8    D    
C17   C19   A    
C8    C12   S    
O24   H18   S    
V4    O20   S    
C14   C24   A    
O19   C32   A    
O17   V3    S    
C19   C21   A    
C28   H16   S    
