data_mof_unit_34625.cif
_audit_creation_date              2012-12-11T14:56:43-0500
_audit_creation_method            fapswitch 2.2
_symmetry_space_group_name_H-M    P1
_symmetry_Int_Tables_number       1
_space_group_crystal_system       triclinic
_cell_length_a                    10.627084
_cell_length_b                    10.635422
_cell_length_c                    17.186076
_cell_angle_alpha                 80.152472
_cell_angle_beta                  89.521136
_cell_angle_gamma                 119.071825
_cell_volume                      1663.23195491

loop_
_atom_site_label
_atom_site_type_symbol
_atom_type_description
_atom_site_fract_x
_atom_site_fract_y
_atom_site_fract_z
_atom_type_partial_charge
C1    C     C_R   0.216915 0.851005 0.127725 0.580461
C2    C     C_1   0.653432 0.345621 0.707611 0.081534
C3    C     C_R   0.501528 0.793337 0.777054 -0.188879
C4    C     C_R   0.636979 0.281356 0.086417 0.584434
C5    C     C_R   0.511919 0.754788 0.706224 0.118102
C6    C     C_R   0.636645 0.851662 0.650924 -0.039667
C7    C     C_R   0.740370 0.985122 0.670153 0.185745
C8    C     C_R   0.748112 0.996937 0.750361 0.218705
C9    C     C_R   0.622407 0.899464 0.804073 -0.081168
C10   C     C_R   0.259350 0.999898 0.751682 0.200098
C11   C     C_R   0.230995 0.981949 0.673807 0.191179
C12   C     C_R   0.760332 0.324300 0.280575 0.192350
C13   C     C_R   0.166203 0.834451 0.658686 -0.051964
C14   C     C_R   0.133247 0.714268 0.721032 0.173073
C15   C     C_R   0.173227 0.738512 0.794980 -0.130231
C16   C     C_R   0.639502 0.858031 0.125562 0.563273
C17   C     C_R   0.239346 0.879493 0.810139 -0.065333
C18   C     C_R   0.687426 0.809764 0.356968 0.559536
C19   C     C_R   0.684106 0.386669 0.397710 0.591685
C20   C     C_R   0.049184 0.789571 0.352586 0.524220
C21   C     C_R   0.673160 0.803594 0.583008 0.572431
C22   C     C_R   0.679596 0.383014 0.624556 0.595831
C23   C     C_R   0.776187 0.360962 0.198427 0.178276
C24   C     C_R   0.101144 0.804872 0.585295 0.554606
C25   C     C_R   0.282488 0.901517 0.888380 0.532278
C26   C     C_R   0.637633 0.284221 0.860894 0.553882
C27   C     C_R   0.604831 0.895906 0.888847 0.543492
C28   C     C_R   0.536258 0.335993 0.200634 0.198038
C29   C     C_R   0.535350 0.334257 0.282467 0.189459
C30   C     C_R   0.650093 0.331827 0.323086 -0.072479
C31   C     C_R   0.655072 0.342661 0.158741 -0.052827
C32   C     C_1   0.668211 0.847543 0.205458 0.013054
C33   C     C_1   0.681131 0.838781 0.274578 0.028890
C34   C     C_1   0.151720 0.811469 0.207601 0.033697
C35   C     C_1   0.104418 0.800309 0.273911 0.018829
C36   C     C_1   0.646210 0.323699 0.778078 0.079597
Cl1   Cl    Cl    0.392752 0.340769 0.150875 -0.422858
Cl2   Cl    Cl    0.025804 0.528169 0.714897 -0.446346
Cl3   Cl    Cl    0.384655 0.326067 0.333023 -0.455262
Cl4   Cl    Cl    0.950128 0.433805 0.146500 -0.445147
Cl5   Cl    Cl    0.854822 0.136535 0.594270 -0.382533
Cl6   Cl    Cl    0.303596 0.168668 0.779247 -0.389331
Cr1   Cr    Cr6+3 0.402240 0.783890 0.019450 1.135553
Cr2   Cr    Cr6+3 0.382360 0.097900 0.991800 1.154633
Cr3   Cr    Cr6+3 0.715380 0.118170 0.988700 1.132000
Cr4   Cr    Cr6+3 0.936650 0.882420 0.465510 1.179279
Cr5   Cr    Cr6+3 0.605770 0.565620 0.493360 1.207000
Cr6   Cr    Cr6+3 0.921340 0.550490 0.496380 1.184624
H1    H     H_    0.147559 0.644863 0.841947 0.206902
H2    H     H_    0.405834 0.721992 0.818026 0.187490
H3    H     H_    0.316994 0.111640 0.480290 0.380660
H4    H     H_    0.081461 0.353184 0.370961 0.395977
H5    H     H_    0.299752 0.643910 0.604665 0.326074
H6    H     H_    0.020723 0.255208 0.856946 0.387503
O1    O     O_R   0.521780 0.757110 0.108900 -0.457507
O2    O     O_R   0.805020 0.410040 0.421340 -0.438329
O3    O     O_R   0.049240 0.685450 0.403290 -0.476484
O4    O     O_R   0.275160 0.783810 0.101120 -0.449464
O5    O     O_R   0.077520 0.903010 0.551800 -0.469569
O6    O     O_R   0.802980 0.872780 0.546830 -0.437442
O7    O     O_R   0.578090 0.681300 0.569920 -0.449633
O8    O     O_R   0.608530 0.436370 0.586530 -0.415609
O9    O     O_R   0.798770 0.401880 0.597100 -0.431849
O10   O     O_R   0.043450 0.677890 0.566230 -0.453594
O11   O     O_3   0.821250 0.666180 0.485090 -0.360361
O12   O     O_R   0.513330 0.228330 0.898660 -0.481106
O13   O     O_R   0.237900 0.972600 0.090980 -0.478137
O14   O     O_R   0.511190 0.220540 0.061620 -0.459065
O15   O     O_R   0.736920 0.257720 0.063840 -0.450388
O16   O     O_R   0.710450 0.984050 0.081720 -0.479033
O17   O     O_R   0.524090 0.765520 0.933110 -0.485181
O18   O     O_R   0.277300 0.791600 0.938160 -0.519762
O19   O     O_R   0.240210 0.981010 0.915190 -0.405929
O20   O     O_2   0.143329 0.144624 0.566770 -0.164297
O21   O     O_2   0.352622 0.284457 0.625410 -0.111929
O22   O     O_3   0.381194 0.149658 0.521883 -0.533829
O23   O     O_R   0.739230 0.266130 0.888050 -0.466145
O24   O     O_2   0.794374 0.154219 0.404758 -0.253098
O25   O     O_2   0.904340 0.175537 0.274056 -0.220592
O26   O     O_3   0.028134 0.398792 0.342809 -0.440698
O27   O     O_2   0.473478 0.491596 0.708407 -0.195109
O28   O     O_2   0.273972 0.495832 0.774537 -0.214396
O29   O     O_3   0.303308 0.551755 0.620396 -0.376657
O30   O     O_2   0.945330 0.988929 0.843221 -0.260734
O31   O     O_2   0.039606 0.158555 0.715337 -0.093949
O32   O     O_3   0.938361 0.232204 0.824627 -0.422025
O33   O     O_R   0.712580 0.991850 0.918770 -0.430910
O34   O     O_3   0.499990 0.999980 0.999980 -0.363230
O35   O     O_R   0.083770 0.911170 0.376030 -0.468974
O36   O     O_R   0.808770 0.880340 0.383890 -0.464122
O37   O     O_R   0.584340 0.689460 0.394160 -0.485870
O38   O     O_R   0.614320 0.443940 0.423590 -0.443925
S1    S     S_3+6 0.275227 0.143961 0.597314 0.126143
S2    S     S_3+6 0.871389 0.256903 0.327044 0.106578
S3    S     S_3+6 0.386642 0.568472 0.703983 0.124415
S4    S     S_3+6 0.922618 0.094607 0.783027 0.141366

loop_
_geom_bond_atom_site_label_1
_geom_bond_atom_site_label_2
_ccdc_geom_bond_type
C19   O2    A    
Cr1   O18   S    
Cr4   O5    S    
C10   Cl6   S    
Cr5   O38   S    
Cr2   O12   S    
C8    S4    S    
Cr5   O8    S    
Cr6   O3    S    
Cr4   O35   S    
C12   C23   A    
C9    C27   S    
Cr1   O34   S    
C28   C29   A    
Cr3   O33   S    
C5    C6    A    
O27   S3    D    
O31   S4    D    
Cr6   O10   S    
C14   Cl2   S    
C10   C17   A    
C2    C36   T    
C23   Cl4   S    
Cr6   O2    S    
C34   C35   T    
O30   S4    D    
C18   O36   A    
C19   O38   A    
Cr1   O4    S    
C22   O9    A    
C20   C35   S    
C8    C9    A    
C2    C22   S    
Cr6   O11   S    
C21   O7    A    
C12   C30   A    
C11   S1    S    
C7    Cl5   S    
C24   O10   A    
C13   C14   A    
O20   S1    D    
C12   S2    S    
C4    O15   A    
C5    S3    S    
C3    H2    S    
C1    C34   S    
C26   O23   A    
Cr3   O15   S    
C26   O12   A    
C7    C8    A    
Cr3   O34   S    
C16   O16   A    
H3    O22   S    
O25   S2    D    
H6    O32   S    
Cr6   O9    S    
C6    C21   S    
C13   C24   S    
C23   C31   A    
C29   C30   A    
C3    C9    A    
O22   S1    S    
C22   O8    A    
O29   S3    S    
C29   Cl3   S    
C25   O18   A    
C27   O33   A    
O32   S4    S    
C21   O6    A    
C26   C36   S    
Cr2   O14   S    
C18   O37   A    
O26   S2    S    
C27   O17   A    
O21   S1    D    
C4    O14   A    
Cr1   O1    S    
C15   C17   A    
Cr1   O17   S    
O28   S3    D    
Cr4   O6    S    
Cr3   O16   S    
Cr5   O37   S    
C28   C31   A    
C3    C5    A    
Cr5   O7    S    
C6    C7    A    
Cr4   O36   S    
C16   C32   S    
C20   O35   A    
H5    O29   S    
C17   C25   S    
C32   C33   T    
C16   O1    A    
Cr2   O34   S    
C1    O4    A    
C11   C13   A    
C28   Cl1   S    
O24   S2    D    
C24   O5    A    
C1    O13   A    
C25   O19   A    
C15   H1    S    
Cr2   O19   S    
C18   C33   S    
C4    C31   S    
C10   C11   A    
Cr4   O11   S    
C14   C15   A    
Cr2   O13   S    
Cr3   O23   S    
C20   O3    A    
H4    O26   S    
C19   C30   S    
Cr5   O11   S    
