data_mof_unit_10530.cif
_audit_creation_date              2012-12-11T14:13:24-0500
_audit_creation_method            fapswitch 2.2
_symmetry_space_group_name_H-M    P1
_symmetry_Int_Tables_number       1
_space_group_crystal_system       triclinic
_cell_length_a                    17.364758
_cell_length_b                    17.361549
_cell_length_c                    17.407024
_cell_angle_alpha                 89.576288
_cell_angle_beta                  90.028326
_cell_angle_gamma                 90.075452
_cell_volume                      5247.70521043

loop_
_atom_site_label
_atom_site_type_symbol
_atom_type_description
_atom_site_fract_x
_atom_site_fract_y
_atom_site_fract_z
_atom_type_partial_charge
C1    C     C_R   0.603799 0.303188 0.102621 0.167730
C2    C     C_R   0.185603 0.095249 0.625426 0.141739
C3    C     C_3   0.088834 0.762451 0.048268 -0.298084
C4    C     C_3   0.057115 0.739248 0.970017 -0.788625
C5    C     C_3   0.571540 0.667316 0.322724 -0.388685
C6    C     C_3   0.572571 0.626273 0.401009 -0.269198
C7    C     C_3   0.491624 0.600015 0.423527 -0.917450
C8    C     C_3   0.324840 0.245404 0.446664 -0.418190
C9    C     C_3   0.276092 0.299828 0.495796 -0.184641
C10   C     C_3   0.311185 0.311137 0.575211 -0.906159
C11   C     C_3   0.880118 0.311060 0.257651 -0.367925
C12   C     C_3   0.826654 0.332226 0.324678 -0.255836
C13   C     C_R   0.910031 0.178216 0.634998 0.170576
C14   C     C_3   0.851242 0.407671 0.362032 -0.801747
C15   C     C_3   0.633630 0.836356 0.354471 -0.369279
C16   C     C_3   0.592924 0.841704 0.432189 -0.298157
C17   C     C_3   0.546840 0.915986 0.439290 -0.771314
C18   C     C_3   0.119186 0.691572 0.258493 -0.362694
C19   C     C_3   0.172869 0.669151 0.325315 -0.264541
C20   C     C_3   0.150164 0.591662 0.360682 -0.785036
C21   C     C_3   0.310921 0.888579 0.752327 -0.375039
C22   C     C_3   0.340976 0.839329 0.685627 -0.257014
C23   C     C_3   0.416985 0.870596 0.654131 -0.806763
C24   C     C_R   0.803403 0.891483 0.599304 0.148682
C25   C     C_3   0.839190 0.634367 0.650855 -0.367975
C26   C     C_3   0.848616 0.587466 0.577232 -0.322116
C27   C     C_3   0.926043 0.546211 0.574256 -0.708683
C28   C     C_3   0.689581 0.117361 0.742907 -0.373317
C29   C     C_3   0.663750 0.168553 0.675137 -0.255911
C30   C     C_3   0.584920 0.144206 0.644797 -0.793410
C31   C     C_3   0.079702 0.253201 0.799889 -0.443637
C32   C     C_3   0.068693 0.338119 0.776209 -0.259848
C33   C     C_3   0.992431 0.370265 0.805456 -0.755974
C34   C     C_R   0.105037 0.195860 0.395083 0.166694
C35   C     C_R   0.173581 0.914684 0.359523 0.197693
C36   C     C_R   0.891810 0.803292 0.401257 0.146014
C37   C     C_R   0.827884 0.085248 0.358473 0.208580
C38   C     C_R   0.585807 0.675577 0.137370 -0.135079
C39   C     C_R   0.305371 0.607225 0.103400 -0.121136
C40   C     C_R   0.425779 0.335042 0.145479 -0.134134
C41   C     C_R   0.682408 0.591083 0.131326 0.222660
C42   C     C_R   0.694749 0.392489 0.103245 -0.127621
C43   C     C_R   0.605624 0.306308 0.893505 -0.129976
C44   C     C_R   0.319551 0.411988 0.867700 -0.166466
C45   C     C_R   0.392556 0.694936 0.897010 -0.129198
C46   C     C_R   0.674782 0.585190 0.861528 -0.133186
C47   C     C_R   0.089778 0.179718 0.632932 -0.142650
C48   C     C_R   0.833135 0.075630 0.643570 -0.123147
C49   C     C_R   0.893166 0.802185 0.594832 -0.120655
C50   C     C_R   0.171759 0.921043 0.640442 -0.155588
C51   C     C_R   0.073583 0.834946 0.355457 -0.131067
C52   C     C_R   0.396737 0.696343 0.103536 0.169164
C53   C     C_R   0.802339 0.892911 0.405268 -0.116970
C54   C     C_R   0.925921 0.167501 0.356435 -0.132502
C55   C     C_R   0.194809 0.105509 0.395007 -0.117993
C56   C     C_R   0.678813 0.316476 0.120025 0.038707
C57   C     C_R   0.652312 0.650837 0.172959 0.032545
C58   C     C_R   0.321522 0.682881 0.121052 0.041057
C59   C     C_R   0.364419 0.362569 0.187433 0.055126
C60   C     C_R   0.649421 0.651304 0.825177 0.031906
C61   C     C_R   0.681516 0.322473 0.876427 0.050807
C62   C     C_R   0.338911 0.342437 0.837281 0.041816
C63   C     C_R   0.327307 0.416569 0.141143 0.195524
C64   C     C_R   0.316512 0.679233 0.880865 0.041274
C65   C     C_R   0.145739 0.860373 0.682571 0.065643
C66   C     C_R   0.155925 0.154079 0.668800 0.092742
C67   C     C_R   0.854641 0.141580 0.680224 0.066708
C68   C     C_R   0.816676 0.813268 0.610907 0.095348
C69   C     C_R   0.179621 0.180393 0.374963 0.044091
C70   C     C_R   0.136675 0.859175 0.315403 0.058253
C71   C     C_R   0.813813 0.816368 0.389314 0.095004
C72   C     C_R   0.864284 0.142343 0.315355 0.056249
C73   C     C_2   0.702094 0.648244 0.694896 0.108694
C74   C     C_R   0.590359 0.681891 0.867562 0.223263
C75   C     C_2   0.259098 0.806727 0.860197 0.097343
C76   C     C_2   0.221184 0.266386 0.839469 0.144093
C77   C     C_2   0.738285 0.195840 0.853675 0.103470
C78   C     C_2   0.805551 0.261158 0.144762 0.088267
C79   C     C_2   0.358638 0.275783 0.304726 0.126006
C80   C     C_2   0.194374 0.740095 0.144597 0.100728
C81   C     C_2   0.649856 0.701980 0.303468 0.110244
C82   C     C_2   0.302240 0.250574 0.362772 0.123998
C83   C     C_2   0.850420 0.241981 0.212852 0.122564
C84   C     C_2   0.681898 0.763951 0.351020 0.124646
C85   C     C_R   0.696018 0.396909 0.895668 0.169843
C86   C     C_2   0.149974 0.760231 0.212855 0.124548
C87   C     C_2   0.241114 0.852253 0.791502 0.125977
C88   C     C_2   0.765198 0.680550 0.648453 0.129823
C89   C     C_2   0.758123 0.151662 0.785512 0.137275
C90   C     C_2   0.163062 0.228965 0.791270 0.144877
C91   C     C_2   0.685854 0.687055 0.759520 -0.204638
C92   C     C_2   0.259718 0.730560 0.848576 -0.227753
C93   C     C_2   0.282139 0.296188 0.801172 -0.231209
C94   C     C_2   0.737167 0.272113 0.842040 -0.238887
C95   C     C_2   0.729325 0.260825 0.155221 -0.217124
C96   C     C_R   0.403653 0.314620 0.874298 0.222378
C97   C     C_2   0.339780 0.340811 0.265660 -0.248322
C98   C     C_2   0.270751 0.738966 0.155255 -0.226968
C99   C     C_2   0.688060 0.687872 0.237807 -0.202581
C100  C     C_2   0.232331 0.231529 0.335540 -0.188693
C101  C     C_2   0.843220 0.168762 0.238849 -0.235785
C102  C     C_2   0.756079 0.755499 0.374414 -0.249272
C103  C     C_2   0.158796 0.832978 0.239116 -0.232494
C104  C     C_2   0.170440 0.840143 0.760367 -0.234154
C105  C     C_2   0.756242 0.754444 0.623598 -0.252594
C106  C     C_2   0.829399 0.164098 0.756310 -0.246827
C107  C     C_R   0.303180 0.603837 0.897630 0.185963
C108  C     C_2   0.191709 0.179960 0.738929 -0.267091
C109  C     C_3   0.670234 0.568564 0.677413 -0.387494
C110  C     C_3   0.635404 0.565304 0.596511 -0.270647
C111  C     C_3   0.614109 0.482683 0.575615 -0.918143
C112  C     C_3   0.289910 0.844603 0.932124 -0.369930
C113  C     C_3   0.240203 0.913796 0.954861 -0.299135
C114  C     C_3   0.263908 0.945294 0.032974 -0.809943
C115  C     C_3   0.209114 0.272822 0.925974 -0.365660
C116  C     C_3   0.200875 0.193098 0.963681 -0.284309
C117  C     C_3   0.190580 0.199736 0.050498 -0.849881
C118  C     C_R   0.086493 0.826378 0.640801 0.205768
C119  C     C_3   0.706366 0.156549 0.924958 -0.373183
C120  C     C_3   0.755234 0.086536 0.947986 -0.305019
C121  C     C_3   0.732671 0.055957 0.027272 -0.787694
C122  C     C_3   0.845090 0.286731 0.071635 -0.369427
C123  C     C_3   0.904381 0.226119 0.047608 -0.251152
C124  C     C_3   0.938334 0.244051 0.968981 -0.912160
C125  C     C_3   0.420529 0.219585 0.278840 -0.413596
C126  C     C_3   0.428183 0.145542 0.327175 -0.313614
C127  C     C_3   0.487643 0.091584 0.292054 -0.725064
C128  C     C_3   0.154672 0.709274 0.073724 -0.378013
H1    H     H_    0.550835 0.722970 0.155316 0.162096
H2    H     H_    0.801215 0.028962 0.667756 0.147513
H3    H     H_    0.826582 0.286241 0.369189 0.227383
H4    H     H_    0.940477 0.303954 0.275934 0.199987
H5    H     H_    0.882211 0.361811 0.218301 0.200766
H6    H     H_    0.584990 0.966891 0.432809 0.289814
H7    H     H_    0.501055 0.917913 0.394781 0.261984
H8    H     H_    0.519119 0.918104 0.496705 0.263342
H9    H     H_    0.552234 0.792805 0.439032 0.203886
H10   H     H_    0.635828 0.837111 0.478917 0.233723
H11   H     H_    0.667027 0.887912 0.338921 0.217228
H12   H     H_    0.588316 0.834636 0.309300 0.193955
H13   H     H_    0.917450 0.748666 0.576450 0.176216
H14   H     H_    0.090216 0.593616 0.382543 0.290312
H15   H     H_    0.154982 0.545248 0.317367 0.272616
H16   H     H_    0.189270 0.577862 0.409347 0.243409
H17   H     H_    0.233085 0.664760 0.304141 0.204477
H18   H     H_    0.171381 0.713471 0.370821 0.225849
H19   H     H_    0.059328 0.700080 0.277393 0.204010
H20   H     H_    0.115436 0.641051 0.219786 0.202647
H21   H     H_    0.409480 0.930265 0.632205 0.287867
H22   H     H_    0.461832 0.870202 0.699660 0.278370
H23   H     H_    0.436881 0.833848 0.606129 0.241379
H24   H     H_    0.214568 0.960140 0.656890 0.158768
H25   H     H_    0.350615 0.779364 0.706331 0.206073
H26   H     H_    0.298650 0.837134 0.638077 0.221245
H27   H     H_    0.301163 0.949402 0.736677 0.198352
H28   H     H_    0.358717 0.892504 0.794541 0.202025
H29   H     H_    0.973643 0.588516 0.569848 0.285953
H30   H     H_    0.934233 0.509772 0.626351 0.263441
H31   H     H_    0.927992 0.508703 0.522879 0.260807
H32   H     H_    0.802847 0.542941 0.574371 0.210165
H33   H     H_    0.841770 0.625499 0.526441 0.235322
H34   H     H_    0.889201 0.670221 0.664872 0.217637
H35   H     H_    0.027124 0.801926 0.332941 0.149890
H36   H     H_    0.837189 0.592788 0.699789 0.191562
H37   H     H_    0.586060 0.083294 0.626042 0.290314
H38   H     H_    0.540395 0.150986 0.690057 0.269651
H39   H     H_    0.568967 0.181054 0.594874 0.243709
H40   H     H_    0.659912 0.229494 0.693954 0.203607
H41   H     H_    0.705964 0.165620 0.627480 0.229434
H42   H     H_    0.699665 0.057343 0.725673 0.203650
H43   H     H_    0.640123 0.112760 0.783183 0.200057
H44   H     H_    0.944359 0.329546 0.794756 0.267420
H45   H     H_    0.996428 0.381242 0.868005 0.263655
H46   H     H_    0.748619 0.917090 0.423293 0.176060
H47   H     H_    0.979749 0.425755 0.775966 0.267175
H48   H     H_    0.115674 0.374466 0.799901 0.212217
H49   H     H_    0.071046 0.343726 0.712741 0.223040
H50   H     H_    0.039411 0.215163 0.768673 0.192542
H51   H     H_    0.063850 0.246131 0.861090 0.194296
H52   H     H_    0.970720 0.204168 0.336061 0.143897
H53   H     H_    0.251513 0.081793 0.400940 0.160386
H54   H     H_    0.708638 0.744685 0.768489 0.170143
H55   H     H_    0.229595 0.706367 0.799464 0.174139
H56   H     H_    0.287317 0.291949 0.739274 0.151061
H57   H     H_    0.248642 0.583590 0.098600 0.174556
H58   H     H_    0.767119 0.297488 0.793064 0.166419
H59   H     H_    0.704703 0.231803 0.205171 0.166442
H60   H     H_    0.294026 0.376297 0.289214 0.168973
H61   H     H_    0.295851 0.769229 0.203793 0.170733
H62   H     H_    0.744884 0.712356 0.227738 0.168084
H63   H     H_    0.217947 0.243098 0.275717 0.156588
H64   H     H_    0.812838 0.127106 0.203526 0.156133
H65   H     H_    0.780188 0.698042 0.369406 0.168406
H66   H     H_    0.190606 0.874343 0.204209 0.152153
H67   H     H_    0.128693 0.807072 0.793579 0.155589
H68   H     H_    0.470327 0.298169 0.165444 0.139561
H69   H     H_    0.698078 0.777354 0.625532 0.166110
H70   H     H_    0.870411 0.198162 0.788996 0.135739
H71   H     H_    0.250758 0.160234 0.746372 0.178016
H72   H     H_    0.665754 0.445064 0.578538 0.268917
H73   H     H_    0.569473 0.460084 0.615565 0.266250
H74   H     H_    0.591211 0.480891 0.516165 0.254753
H75   H     H_    0.582954 0.601882 0.594174 0.206951
H76   H     H_    0.676728 0.587740 0.553107 0.196262
H77   H     H_    0.717201 0.525563 0.683274 0.192383
H78   H     H_    0.624235 0.551604 0.718479 0.195630
H79   H     H_    0.751546 0.416129 0.099080 0.174288
H80   H     H_    0.257177 0.900251 0.078081 0.263656
H81   H     H_    0.324804 0.964905 0.031448 0.293587
H82   H     H_    0.226784 0.995032 0.047789 0.233687
H83   H     H_    0.246471 0.960439 0.911176 0.208495
H84   H     H_    0.178617 0.896697 0.956936 0.199767
H85   H     H_    0.289947 0.802040 0.980092 0.219932
H86   H     H_    0.349885 0.864620 0.922709 0.210077
H87   H     H_    0.241344 0.228529 0.076607 0.275918
H88   H     H_    0.137862 0.233300 0.063778 0.268207
H89   H     H_    0.184702 0.141336 0.076271 0.241056
H90   H     H_    0.579753 0.250362 0.893237 0.169217
H91   H     H_    0.150218 0.162419 0.939603 0.191567
H92   H     H_    0.253169 0.158268 0.951877 0.237256
H93   H     H_    0.257583 0.302692 0.954587 0.219975
H94   H     H_    0.156707 0.307621 0.937089 0.198345
H95   H     H_    0.741680 0.100937 0.071438 0.258363
H96   H     H_    0.671262 0.037965 0.027543 0.294173
H97   H     H_    0.768859 0.005334 0.042175 0.240251
H98   H     H_    0.747009 0.039923 0.905285 0.215277
H99   H     H_    0.817213 0.102288 0.948300 0.203026
H100  H     H_    0.705964 0.198100 0.973235 0.222453
H101  H     H_    0.267178 0.442527 0.856557 0.169595
H102  H     H_    0.646389 0.137094 0.914509 0.209583
H103  H     H_    0.892111 0.250022 0.925268 0.277830
H104  H     H_    0.972304 0.298113 0.971663 0.281284
H105  H     H_    0.976880 0.196198 0.951960 0.236611
H106  H     H_    0.952077 0.223911 0.090229 0.203411
H107  H     H_    0.876870 0.168427 0.046271 0.200439
H108  H     H_    0.802041 0.293761 0.024893 0.220781
H109  H     H_    0.874478 0.342786 0.080795 0.211088
H110  H     H_    0.468969 0.073232 0.233941 0.276109
H111  H     H_    0.544426 0.120785 0.287654 0.274005
H112  H     H_    0.416466 0.751483 0.901148 0.170980
H113  H     H_    0.493924 0.039660 0.328893 0.253535
H114  H     H_    0.446989 0.159697 0.386373 0.211928
H115  H     H_    0.372071 0.114893 0.329753 0.231161
H116  H     H_    0.406611 0.201325 0.219382 0.223427
H117  H     H_    0.477037 0.249591 0.280967 0.195402
H118  H     H_    0.102823 0.743557 0.925612 0.262061
H119  H     H_    0.034880 0.679255 0.972281 0.291595
H120  H     H_    0.009253 0.778369 0.953548 0.238436
H121  H     H_    0.041450 0.759644 0.091139 0.214007
H122  H     H_    0.109523 0.822902 0.045007 0.199957
H123  H     H_    0.722132 0.550092 0.843502 0.160581
H124  H     H_    0.196946 0.705121 0.026097 0.220992
H125  H     H_    0.131045 0.650970 0.085755 0.211170
H126  H     H_    0.452127 0.650212 0.426222 0.266233
H127  H     H_    0.469173 0.558078 0.381109 0.266682
H128  H     H_    0.492780 0.572000 0.480957 0.256403
H129  H     H_    0.611116 0.575294 0.398199 0.207401
H130  H     H_    0.594994 0.665122 0.446217 0.194231
H131  H     H_    0.527531 0.713661 0.322581 0.191555
H132  H     H_    0.553202 0.624326 0.279528 0.195844
H133  H     H_    0.316438 0.255056 0.605634 0.287721
H134  H     H_    0.059085 0.231608 0.643943 0.162377
H135  H     H_    0.369013 0.338159 0.570385 0.260815
H136  H     H_    0.273506 0.349541 0.609336 0.250891
H137  H     H_    0.271327 0.357062 0.467050 0.208493
H138  H     H_    0.217414 0.275459 0.503012 0.230352
H139  H     H_    0.318799 0.185350 0.467733 0.214882
H140  H     H_    0.386436 0.261949 0.452532 0.195720
H141  H     H_    0.910807 0.402964 0.384659 0.290719
H142  H     H_    0.848467 0.455780 0.319683 0.270899
H143  H     H_    0.811983 0.420920 0.410506 0.243001
H144  H     H_    0.766742 0.338943 0.303122 0.200583
I1    I     I_    0.557660 0.191774 0.082277 -0.477849
I2    I     I_    0.305457 0.076713 0.606323 -0.540131
I3    I     I_    0.915983 0.299602 0.623512 -0.501825
I4    I     I_    0.692844 0.942631 0.589684 -0.554806
I5    I     I_    0.064201 0.308432 0.418320 -0.472409
I6    I     I_    0.292014 0.940521 0.345211 -0.499656
I7    I     I_    0.942462 0.692542 0.413281 -0.551475
I8    I     I_    0.712950 0.052012 0.337691 -0.525756
I9    I     I_    0.800528 0.560969 0.134409 -0.428794
I10   I     I_    0.440360 0.808462 0.080054 -0.460705
I11   I     I_    0.208118 0.440783 0.152187 -0.479041
I12   I     I_    0.561081 0.800301 0.864073 -0.434995
I13   I     I_    0.808397 0.439118 0.919326 -0.493807
I14   I     I_    0.430491 0.195846 0.882548 -0.446928
I15   I     I_    0.191166 0.561474 0.923751 -0.487860
I16   I     I_    0.051703 0.712089 0.662668 -0.491608
N1    N     N_R   0.574080 0.369570 0.076720 -0.068434
N2    N     N_R   0.130430 0.074080 0.576720 -0.059663
N3    N     N_R   0.925920 0.130430 0.576720 -0.055780
N4    N     N_R   0.869570 0.925920 0.576720 -0.067667
N5    N     N_R   0.074080 0.130430 0.423280 -0.068769
N6    N     N_R   0.130430 0.925920 0.423280 -0.061903
N7    N     N_R   0.925920 0.869570 0.423280 -0.067158
N8    N     N_R   0.869570 0.074080 0.423280 -0.060399
N9    N     N_R   0.574050 0.630410 0.076720 -0.050067
N10   N     N_R   0.369590 0.574050 0.076720 -0.057704
N11   N     N_R   0.425950 0.369590 0.076720 -0.047166
N12   N     N_R   0.630430 0.574080 0.076720 -0.065557
N13   N     N_R   0.630410 0.425950 0.076720 -0.057708
N14   N     N_R   0.574050 0.369590 0.923280 -0.055835
N15   N     N_R   0.369590 0.425950 0.923280 -0.054171
N16   N     N_R   0.425950 0.630410 0.923280 -0.057962
N17   N     N_R   0.630410 0.574050 0.923280 -0.049001
N18   N     N_R   0.074050 0.130410 0.576720 -0.051451
N19   N     N_R   0.869590 0.074050 0.576720 -0.047483
N20   N     N_R   0.925950 0.869590 0.576720 -0.059275
N21   N     N_R   0.130410 0.925950 0.576720 -0.052101
N22   N     N_R   0.074050 0.869590 0.423280 -0.048973
N23   N     N_R   0.425920 0.630430 0.076720 -0.069139
N24   N     N_R   0.869590 0.925950 0.423280 -0.058887
N25   N     N_R   0.925950 0.130410 0.423280 -0.048189
N26   N     N_R   0.130410 0.074050 0.423280 -0.056484
N27   N     N_R   0.369570 0.425920 0.076720 -0.062216
N28   N     N_R   0.574080 0.630430 0.923280 -0.065231
N29   N     N_R   0.630430 0.425920 0.923280 -0.067916
N30   N     N_R   0.425920 0.369570 0.923280 -0.066884
N31   N     N_R   0.369570 0.574080 0.923280 -0.065844
N32   N     N_R   0.074080 0.869570 0.576720 -0.060711
Ni1   Ni    Ni4+2 0.500000 0.370760 0.000000 0.249659
Ni2   Ni    Ni4+2 0.629240 0.500000 0.000000 0.253439
Ni3   Ni    Ni4+2 0.500000 0.629240 0.000000 0.252207
Ni4   Ni    Ni4+2 0.370760 0.500000 0.000000 0.240519
Ni5   Ni    Ni4+2 1.000000 0.870760 0.500000 0.243209
Ni6   Ni    Ni4+2 0.129240 0.000000 0.500000 0.248807
Ni7   Ni    Ni4+2 0.000000 0.129240 0.500000 0.260092
Ni8   Ni    Ni4+2 0.870760 0.000000 0.500000 0.245897

loop_
_geom_bond_atom_site_label_1
_geom_bond_atom_site_label_2
_ccdc_geom_bond_type
C122  H108  S    
C126  C127  S    
C20   H16   S    
C19   C20   S    
C3    H122  S    
C109  H77   S    
C27   H30   S    
C77   C89   S    
C49   C68   A    
C1    C56   A    
C113  C114  S    
C74   N28   A    
C5    C6    S    
C122  H109  S    
C72   C101  S    
C25   H36   S    
C121  H97   S    
C110  H76   S    
C45   N16   A    
C110  C111  S    
C80   C86   S    
N20   Ni5   S    
C89   C106  D    
C65   C118  A    
C26   H32   S    
N2    Ni6   S    
N5    N26   A    
C36   C71   A    
C80   C98   D    
C105  H69   S    
C23   H21   S    
C21   C22   S    
N21   Ni6   S    
C15   H11   S    
C38   H1    S    
C13   C67   A    
C96   N30   A    
C14   H143  S    
C81   C99   D    
C9    H137  S    
C5    H132  S    
C54   N25   A    
N18   Ni7   S    
C73   C88   S    
C2    I2    S    
C38   C57   A    
N11   Ni1   S    
C31   C90   S    
C1    N1    A    
C42   H79   S    
C120  H99   S    
C30   H38   S    
C124  H104  S    
C52   C58   A    
C28   H42   S    
C71   C102  S    
N19   Ni8   S    
C53   C71   A    
C43   C61   A    
N30   Ni1   S    
C46   C60   A    
C79   C97   D    
C16   H10   S    
C113  H84   S    
N23   Ni3   S    
C15   C84   S    
C26   H33   S    
C59   C63   A    
C44   N15   A    
C104  H67   S    
C39   N10   A    
C63   N27   A    
C48   C67   A    
C13   I3    S    
C37   I8    S    
C85   N29   A    
C69   C100  S    
C127  H110  S    
C62   C93   S    
C22   C23   S    
C29   H41   S    
C33   H44   S    
C56   C95   S    
C7    H128  S    
C84   C102  D    
C115  H94   S    
N12   Ni2   S    
C58   C98   S    
C49   N20   A    
C111  H73   S    
C14   H141  S    
N1    Ni1   S    
C123  C124  S    
N9    Ni3   S    
C75   C112  S    
N17   N28   A    
C6    H129  S    
C29   H40   S    
C30   H39   S    
N27   Ni4   S    
C41   N12   A    
C27   H31   S    
C115  C116  S    
C57   C99   S    
C77   C94   D    
C117  H87   S    
N29   Ni2   S    
N7    N24   A    
N24   Ni8   S    
N6    N22   A    
C126  H114  S    
C28   C89   S    
C103  H66   S    
C112  H86   S    
C116  H92   S    
C9    C10   S    
C51   N22   A    
C79   C125  S    
N10   Ni4   S    
C8    H139  S    
C119  H100  S    
C121  H95   S    
C43   N14   A    
N2    N18   A    
C19   H18   S    
C31   H50   S    
N14   Ni1   S    
C18   H19   S    
C55   N26   A    
C3    C128  S    
N16   N31   A    
C80   C128  S    
C25   C26   S    
C39   C58   A    
C107  I15   S    
C44   H101  S    
C4    H119  S    
C29   C30   S    
C111  H72   S    
C123  H106  S    
C31   C32   S    
C21   H27   S    
N25   Ni7   S    
C117  H89   S    
C55   C69   A    
C75   C87   S    
N5    Ni7   S    
C7    H126  S    
C91   H54   S    
C43   H90   S    
C68   C105  S    
C3    C4    S    
C120  H98   S    
C17   H6    S    
C120  C121  S    
C24   I4    S    
C83   C101  D    
C48   N19   A    
C3    H121  S    
C30   H37   S    
C2    C66   A    
C79   C82   S    
C27   H29   S    
C45   C64   A    
C2    N2    A    
C108  H71   S    
C90   C108  D    
C88   C105  D    
C121  H96   S    
N16   Ni3   S    
C50   C65   A    
C46   H123  S    
C50   N21   A    
N3    Ni7   S    
N13   Ni2   S    
C42   N13   A    
C127  H111  S    
C35   I6    S    
C62   C96   A    
N1    N13   A    
C125  H117  S    
C127  H113  S    
C11   H4    S    
N15   N30   A    
C21   C87   S    
C95   H59   S    
C26   C27   S    
C18   C86   S    
C8    C82   S    
C114  H81   S    
C28   C29   S    
C22   H26   S    
N21   N32   A    
C5    H131  S    
C76   C115  S    
C10   H135  S    
C125  H116  S    
C18   C19   S    
C42   C56   A    
C78   C83   S    
C16   C17   S    
C49   H13   S    
C96   I14   S    
C51   H35   S    
C47   C66   A    
C118  I16   S    
C106  H70   S    
C74   I12   S    
C20   H15   S    
C48   H2    S    
C82   C100  D    
C98   H61   S    
C47   H134  S    
N17   Ni2   S    
C94   H58   S    
C113  H83   S    
N26   Ni6   S    
C11   C83   S    
C31   H51   S    
C110  H75   S    
C76   C93   D    
C99   H62   S    
C5    C81   S    
C78   C95   D    
N7    Ni5   S    
C128  H124  S    
N32   Ni5   S    
C4    H118  S    
C24   N4    A    
C123  H107  S    
C124  H105  S    
C23   H22   S    
C35   C70   A    
N3    N19   A    
C125  C126  S    
C32   H49   S    
C64   C92   S    
C102  H65   S    
N15   Ni4   S    
C15   H12   S    
N31   Ni4   S    
N8    Ni8   S    
C7    H127  S    
C61   C94   S    
C115  H93   S    
C40   N11   A    
C12   H144  S    
C66   C108  S    
C119  C120  S    
C14   H142  S    
C67   C106  S    
C73   C109  S    
C9    H138  S    
C18   H20   S    
C10   H133  S    
C6    H130  S    
C32   C33   S    
C41   C57   A    
C109  C110  S    
C118  N32   A    
C114  H80   S    
C25   C88   S    
C124  H103  S    
C24   C68   A    
C87   C104  D    
C50   H24   S    
C35   N6    A    
C37   C72   A    
C126  H115  S    
C76   C90   S    
C97   H60   S    
N6    Ni6   S    
C12   H3    S    
C16   H9    S    
C8    H140  S    
C101  H64   S    
C63   I11   S    
C36   I7    S    
C32   H48   S    
C19   H17   S    
C85   I13   S    
C41   I9    S    
C11   H5    S    
N10   N23   A    
C93   H56   S    
C15   C16   S    
C116  C117  S    
C53   N24   A    
C4    H120  S    
C119  H102  S    
C36   N7    A    
N28   Ni3   S    
C54   H52   S    
C8    C9    S    
C51   C70   A    
C33   H45   S    
C1    I1    S    
N4    N20   A    
N11   N27   A    
C40   C59   A    
C78   C122  S    
C86   C103  D    
C111  H74   S    
C112  C113  S    
C53   H46   S    
C6    C7    S    
N14   N29   A    
C20   H14   S    
C73   C91   D    
C44   C62   A    
C117  H88   S    
C17   H7    S    
C34   N5    A    
C28   H43   S    
C46   N17   A    
C25   H34   S    
C17   H8    S    
C128  H125  S    
C55   H53   S    
C112  H85   S    
C116  H91   S    
C61   C85   A    
C75   C92   D    
C12   C14   S    
C13   N3    A    
C37   N8    A    
C59   C97   S    
N9    N12   A    
C100  H63   S    
C81   C84   S    
C64   C107  A    
C40   H68   S    
C60   C91   S    
C107  N31   A    
C23   H23   S    
N8    N25   A    
C34   C69   A    
C34   I5    S    
C77   C119  S    
C92   H55   S    
C11   C12   S    
C52   N23   A    
C114  H82   S    
C45   H112  S    
N22   Ni5   S    
C60   C74   A    
C21   H28   S    
C10   H136  S    
C47   N18   A    
C109  H78   S    
C33   H47   S    
C52   I10   S    
C39   H57   S    
C54   C72   A    
C38   N9    A    
C65   C104  S    
C122  C123  S    
C22   H25   S    
N4    Ni8   S    
C70   C103  S    
