data_mof_unit_61616.cif
_audit_creation_date              2012-12-10T20:26:55-0500
_audit_creation_method            fapswitch 2.2
_symmetry_space_group_name_H-M    P1
_symmetry_Int_Tables_number       1
_space_group_crystal_system       triclinic
_cell_length_a                    41.670616
_cell_length_b                    35.494859
_cell_length_c                    21.607363
_cell_angle_alpha                 89.999691
_cell_angle_beta                  121.636067
_cell_angle_gamma                 90.000306
_cell_volume                      27210.0424909

loop_
_atom_site_label
_atom_site_type_symbol
_atom_type_description
_atom_site_fract_x
_atom_site_fract_y
_atom_site_fract_z
_atom_type_partial_charge
C1    C     C_R   0.073365 0.000035 0.071770 0.888336
C2    C     C_R   0.973880 0.023541 0.693297 0.001220
C3    C     C_R   0.385457 0.499974 0.889444 -0.135861
C4    C     C_R   0.133903 0.971482 0.161820 -0.240976
C5    C     C_R   0.866097 0.971471 0.838211 -0.240968
C6    C     C_R   0.633904 0.471478 0.161801 -0.240979
C7    C     C_R   0.366096 0.471475 0.838207 -0.240980
C8    C     C_R   0.172966 0.970686 0.201494 -0.213158
C9    C     C_R   0.827033 0.970673 0.798543 -0.213171
C10   C     C_R   0.672967 0.470682 0.201472 -0.213163
C11   C     C_R   0.327032 0.470679 0.798537 -0.213168
C12   C     C_R   0.193185 0.998062 0.189824 0.036911
C13   C     C_R   0.526138 0.523521 0.306717 0.001246
C14   C     C_R   0.806815 0.998056 0.810194 0.036901
C15   C     C_R   0.693185 0.498062 0.189810 0.036903
C16   C     C_R   0.306815 0.498060 0.810194 0.036904
C17   C     C_R   0.000000 0.073403 0.499999 0.860456
C18   C     C_R   0.500000 0.573403 0.500000 0.860411
C19   C     C_R   0.999868 0.000951 0.379532 0.879518
C20   C     C_R   0.000131 0.000951 0.620468 0.879542
C21   C     C_R   0.499868 0.500952 0.379531 0.879517
C22   C     C_R   0.500131 0.500951 0.620468 0.879523
C23   C     C_R   1.000000 0.926570 0.500000 0.868958
C24   C     C_R   0.473865 0.523524 0.693285 0.001241
C25   C     C_R   0.500000 0.426570 0.500000 0.868972
C26   C     C_R   0.500000 0.073268 0.500000 0.849403
C27   C     C_R   0.000000 0.573268 0.500000 0.849384
C28   C     C_R   0.426677 0.000273 0.426460 0.884202
C29   C     C_R   0.573322 0.000273 0.573540 0.884201
C30   C     C_R   0.926678 0.500273 0.426460 0.884198
C31   C     C_R   0.073322 0.500273 0.573540 0.884198
C32   C     C_R   0.946837 0.921547 0.113316 -0.096659
C33   C     C_R   0.053119 0.921487 0.886549 -0.096753
C34   C     C_R   0.446827 0.421565 0.113272 -0.096621
C35   C     C_R   0.025645 0.021930 0.242267 -0.248178
C36   C     C_R   0.553164 0.421552 0.886697 -0.096642
C37   C     C_R   0.500000 0.926518 0.500000 0.862472
C38   C     C_R   1.000000 0.426518 0.500000 0.862466
C39   C     C_R   0.499924 0.826152 0.556067 -0.167851
C40   C     C_R   0.500075 0.826152 0.443934 -0.167852
C41   C     C_R   0.999923 0.326152 0.556063 -0.167852
C42   C     C_R   0.000075 0.326153 0.443932 -0.167853
C43   C     C_R   0.499924 0.865351 0.556146 -0.201317
C44   C     C_R   0.500076 0.865351 0.443855 -0.201317
C45   C     C_R   0.999922 0.365350 0.556144 -0.201319
C46   C     C_R   0.974369 0.021949 0.757743 -0.248169
C47   C     C_R   0.000076 0.365351 0.443854 -0.201315
C48   C     C_R   0.500000 0.885248 0.500000 -0.036205
C49   C     C_R   0.999999 0.385248 0.499999 -0.036203
C50   C     C_R   0.500000 0.806691 0.500000 0.163196
C51   C     C_R   0.999999 0.306691 0.499997 0.163196
C52   C     C_1   0.500000 0.766647 0.500000 -0.073741
C53   C     C_1   0.999999 0.266647 0.499996 -0.073745
C54   C     C_1   0.999999 0.232983 0.499995 -0.074786
C55   C     C_1   0.500000 0.732983 0.500000 -0.074793
C56   C     C_R   0.031831 0.173484 0.552771 -0.177867
C57   C     C_R   0.525649 0.521925 0.242270 -0.248180
C58   C     C_R   0.968168 0.173484 0.447218 -0.177887
C59   C     C_R   0.531834 0.673484 0.552768 -0.177849
C60   C     C_R   0.468166 0.673484 0.447231 -0.177853
C61   C     C_R   0.031864 0.134294 0.552827 -0.228859
C62   C     C_R   0.968136 0.134294 0.447163 -0.228793
C63   C     C_R   0.531867 0.634294 0.552824 -0.228835
C64   C     C_R   0.468134 0.634294 0.447175 -0.228820
C65   C     C_R   0.000000 0.114508 0.499996 -0.040282
C66   C     C_R   0.500000 0.614508 0.499999 -0.040278
C67   C     C_R   0.940874 0.958591 0.127739 0.110768
C68   C     C_R   0.474354 0.521929 0.757732 -0.248179
C69   C     C_R   0.059093 0.958548 0.872228 0.110939
C70   C     C_R   0.440864 0.458602 0.127729 0.110712
C71   C     C_R   0.559128 0.458593 0.872264 0.110751
C72   C     C_R   0.999999 0.192944 0.499994 0.165291
C73   C     C_R   0.500000 0.692944 0.500000 0.165314
C74   C     C_R   0.495308 0.173560 0.439634 -0.166784
C75   C     C_R   0.504691 0.173560 0.560364 -0.166786
C76   C     C_R   0.995167 0.673558 0.439523 -0.166755
C77   C     C_R   0.004832 0.673558 0.560475 -0.166757
C78   C     C_R   0.495325 0.134366 0.439570 -0.203765
C79   C     C_R   0.998756 0.000026 0.184822 -0.072742
C80   C     C_R   0.504674 0.134366 0.560428 -0.203766
C81   C     C_R   0.995186 0.634364 0.439462 -0.203773
C82   C     C_R   0.004813 0.634364 0.560537 -0.203771
C83   C     C_R   0.500000 0.114495 0.499999 -0.038744
C84   C     C_R   1.000000 0.614494 0.499999 -0.038670
C85   C     C_R   0.500000 0.193020 0.499999 0.163960
C86   C     C_R   0.999999 0.693018 0.499999 0.163949
C87   C     C_1   0.499999 0.233062 0.499998 -0.073911
C88   C     C_1   0.999999 0.733060 0.499999 -0.073908
C89   C     C_1   0.999999 0.766724 0.499999 -0.073379
C90   C     C_R   0.001244 0.000027 0.815176 -0.072774
C91   C     C_1   0.499999 0.266725 0.499999 -0.073382
C92   C     C_R   0.034194 0.826228 0.534743 -0.167566
C93   C     C_R   0.965805 0.826228 0.465256 -0.167566
C94   C     C_R   0.534194 0.326228 0.534704 -0.167568
C95   C     C_R   0.465805 0.326228 0.465294 -0.167567
C96   C     C_R   0.034242 0.865426 0.534787 -0.202186
C97   C     C_R   0.965758 0.865426 0.465213 -0.202185
C98   C     C_R   0.534242 0.365426 0.534749 -0.202186
C99   C     C_R   0.465758 0.365426 0.465250 -0.202185
C100  C     C_R   1.000000 0.885313 0.500000 -0.038804
C101  C     C_R   0.498756 0.500025 0.184821 -0.072735
C102  C     C_R   0.500000 0.385314 0.499999 -0.038804
C103  C     C_R   0.905674 0.975698 0.082730 -0.195567
C104  C     C_R   0.094286 0.975650 0.917325 -0.195536
C105  C     C_R   0.405662 0.475709 0.082749 -0.195587
C106  C     C_R   0.594330 0.475699 0.917262 -0.195578
C107  C     C_R   0.999999 0.806767 0.499999 0.162528
C108  C     C_R   0.500000 0.306768 0.499999 0.162530
C109  C     C_R   0.876878 0.956042 0.023432 -0.132146
C110  C     C_R   0.123066 0.955970 0.976608 -0.132084
C111  C     C_R   0.376861 0.456060 0.023444 -0.132166
C112  C     C_R   0.926634 0.000035 0.928232 0.888332
C113  C     C_R   0.501244 0.500026 0.815179 -0.072743
C114  C     C_R   0.623127 0.456044 0.976563 -0.132153
C115  C     C_R   0.883134 0.919366 0.008605 -0.093211
C116  C     C_R   0.116800 0.919276 0.991331 -0.093188
C117  C     C_R   0.383117 0.419391 0.008583 -0.093216
C118  C     C_R   0.616870 0.419371 0.991401 -0.093212
C119  C     C_R   0.971985 0.980808 0.254471 -0.238807
C120  C     C_R   0.027999 0.980786 0.745512 -0.238832
C121  C     C_R   0.471980 0.480814 0.254466 -0.238799
C122  C     C_R   0.528016 0.480809 0.745531 -0.238805
C123  C     C_3   0.395447 0.075891 0.316301 -0.758610
C124  C     C_R   0.971378 0.979573 0.189910 -0.008165
C125  C     C_3   0.604550 0.075904 0.683656 -0.758625
C126  C     C_3   0.895454 0.575910 0.316363 -0.758705
C127  C     C_3   0.104552 0.575899 0.683680 -0.758711
C128  C     C_3   0.199303 0.043760 0.062466 -0.788623
C129  C     C_3   0.800717 0.043813 0.937544 -0.788667
C130  C     C_3   0.699287 0.543799 0.062448 -0.788677
C131  C     C_3   0.300716 0.543814 0.937549 -0.788690
C132  C     C_3   0.114596 0.092720 0.068364 -0.718377
C133  C     C_3   0.885405 0.092727 0.931580 -0.718411
C134  C     C_3   0.614592 0.592723 0.068370 -0.718423
C135  C     C_R   0.028606 0.979554 0.810072 -0.008169
C136  C     C_3   0.385409 0.592725 0.931614 -0.718425
C137  C     C_R   0.471374 0.479578 0.189905 -0.008165
C138  C     C_R   0.528623 0.479574 0.810091 -0.008165
C139  C     C_R   0.092222 0.043631 0.396744 -0.143652
C140  C     C_R   0.907805 0.043681 0.603257 -0.143615
C141  C     C_R   0.592230 0.543616 0.396745 -0.143665
C142  C     C_R   0.407776 0.543627 0.603254 -0.143655
C143  C     C_R   0.117828 0.068622 0.449757 -0.144149
C144  C     C_R   0.573365 0.500035 0.071767 0.888339
C145  C     C_R   0.882216 0.068690 0.550263 -0.144154
C146  C     C_R   0.617841 0.568602 0.449764 -0.144146
C147  C     C_R   0.382169 0.568616 0.550239 -0.144147
C148  C     C_R   0.104736 0.099633 0.470085 -0.118634
C149  C     C_R   0.895329 0.099702 0.529979 -0.118590
C150  C     C_R   0.604755 0.599613 0.470105 -0.118648
C151  C     C_R   0.395260 0.599628 0.529909 -0.118637
C152  C     C_R   0.066024 0.105670 0.437507 -0.121761
C153  C     C_R   0.934045 0.105722 0.562583 -0.121779
C154  C     C_R   0.566044 0.605655 0.437533 -0.121762
C155  C     C_R   0.426634 0.500035 0.928233 0.888340
C156  C     C_R   0.433971 0.605667 0.562487 -0.121766
C157  C     C_R   0.040313 0.080501 0.385144 -0.127035
C158  C     C_R   0.959739 0.080534 0.614924 -0.127154
C159  C     C_R   0.540328 0.580492 0.385164 -0.126995
C160  C     C_R   0.459683 0.580499 0.614851 -0.127023
C161  C     C_R   0.999263 0.999978 0.119403 0.883194
C162  C     C_R   0.000736 0.999978 0.880595 0.883185
C163  C     C_R   0.499263 0.499978 0.119402 0.883207
C164  C     C_R   0.500737 0.499978 0.880597 0.883205
C165  C     C_R   0.053284 0.049290 0.364443 0.134936
C166  C     C_R   0.999420 0.002126 0.312792 -0.086633
C167  C     C_R   0.946747 0.049322 0.635582 0.134930
C168  C     C_R   0.553293 0.549280 0.364451 0.134937
C169  C     C_R   0.446714 0.549287 0.635554 0.134936
C170  C     C_R   0.325529 0.015748 0.276276 -0.240267
C171  C     C_R   0.674470 0.015753 0.723723 -0.240275
C172  C     C_R   0.825530 0.515761 0.276283 -0.240277
C173  C     C_R   0.174470 0.515751 0.723726 -0.240276
C174  C     C_R   0.364864 0.018080 0.315799 0.211380
C175  C     C_R   0.635134 0.018087 0.684195 0.211381
C176  C     C_R   0.864866 0.518092 0.315810 0.211389
C177  C     C_R   0.000579 0.002124 0.687206 -0.086592
C178  C     C_R   0.135134 0.518084 0.684199 0.211392
C179  C     C_R   0.385462 0.000595 0.384793 -0.068164
C180  C     C_R   0.614538 0.000595 0.615208 -0.068145
C181  C     C_R   0.885462 0.500596 0.384793 -0.068133
C182  C     C_R   0.114538 0.500596 0.615208 -0.068148
C183  C     C_R   0.366315 0.982389 0.413788 -0.253951
C184  C     C_R   0.633685 0.982380 0.586224 -0.253959
C185  C     C_R   0.866314 0.482379 0.413775 -0.253953
C186  C     C_R   0.133686 0.482387 0.586219 -0.253951
C187  C     C_R   0.327182 0.980670 0.374243 -0.165348
C188  C     C_R   0.499420 0.502127 0.312791 -0.086648
C189  C     C_R   0.672818 0.980658 0.625774 -0.165343
C190  C     C_R   0.827182 0.480660 0.374226 -0.165344
C191  C     C_R   0.172818 0.480667 0.625768 -0.165346
C192  C     C_R   0.306972 0.997146 0.305553 0.129950
C193  C     C_R   0.693027 0.997141 0.694458 0.129949
C194  C     C_R   0.806972 0.497147 0.305546 0.129949
C195  C     C_R   0.193028 0.497145 0.694456 0.129949
C196  C     C_1   0.266948 0.996166 0.265606 -0.058682
C197  C     C_1   0.733051 0.996158 0.734409 -0.058680
C198  C     C_1   0.766948 0.496166 0.265595 -0.058675
C199  C     C_R   0.500580 0.502127 0.687208 -0.086639
C200  C     C_1   0.233052 0.496164 0.734407 -0.058676
C201  C     C_1   0.233285 0.996413 0.231372 -0.054986
C202  C     C_1   0.766715 0.996406 0.768647 -0.055004
C203  C     C_1   0.733285 0.496413 0.231358 -0.055002
C204  C     C_1   0.266715 0.496412 0.768645 -0.055005
C205  C     C_R   0.174462 0.026445 0.137275 0.208746
C206  C     C_R   0.825536 0.026449 0.862720 0.208758
C207  C     C_R   0.674462 0.526449 0.137270 0.208757
C208  C     C_R   0.325537 0.526451 0.862728 0.208760
C209  C     C_R   0.918061 0.902100 0.053601 -0.142108
C210  C     C_R   0.026134 0.023526 0.306714 0.001240
C211  C     C_R   0.081879 0.902016 0.946248 -0.142174
C212  C     C_R   0.418047 0.402125 0.053550 -0.142082
C213  C     C_R   0.581940 0.402106 0.946415 -0.142099
C214  C     C_R   0.134847 0.027739 0.097676 0.165336
C215  C     C_R   0.865152 0.027744 0.902316 0.165418
C216  C     C_R   0.634846 0.527742 0.097672 0.165435
C217  C     C_R   0.365154 0.527743 0.902326 0.165448
C218  C     C_R   0.114543 0.999975 0.110567 -0.135922
C219  C     C_R   0.885456 0.999974 0.889441 -0.135880
C220  C     C_R   0.614543 0.499975 0.110558 -0.135871
H1    H     H_    0.860897 0.904315 0.962352 0.125348
H2    H     H_    0.944130 0.130069 0.547683 0.145997
H3    H     H_    0.352180 0.564063 0.525226 0.127865
H4    H     H_    0.368877 0.038492 0.230384 0.216242
H5    H     H_    0.370596 0.093852 0.301687 0.227235
H6    H     H_    0.411457 0.088828 0.293789 0.233139
H7    H     H_    0.414182 0.074819 0.376385 0.236691
H8    H     H_    0.631122 0.038519 0.769597 0.216244
H9    H     H_    0.629400 0.093859 0.698235 0.227244
H10   H     H_    0.588553 0.088854 0.706181 0.233133
H11   H     H_    0.585804 0.074820 0.623575 0.236696
H12   H     H_    0.868877 0.538532 0.230411 0.216247
H13   H     H_    0.555981 0.630001 0.452479 0.145950
H14   H     H_    0.870607 0.593866 0.301795 0.227264
H15   H     H_    0.911451 0.588862 0.293837 0.233082
H16   H     H_    0.914203 0.574821 0.376443 0.236700
H17   H     H_    0.131122 0.538505 0.769607 0.216246
H18   H     H_    0.129402 0.593854 0.698267 0.227262
H19   H     H_    0.088554 0.588844 0.706208 0.233082
H20   H     H_    0.085806 0.574820 0.623598 0.236705
H21   H     H_    0.220030 0.062104 0.167958 0.223502
H22   H     H_    0.216193 0.017547 0.074709 0.228548
H23   H     H_    0.214048 0.066964 0.052866 0.237325
H24   H     H_    0.444038 0.630013 0.547550 0.145958
H25   H     H_    0.171298 0.039714 0.012124 0.252901
H26   H     H_    0.779960 0.062101 0.832008 0.223512
H27   H     H_    0.783850 0.017590 0.925379 0.228526
H28   H     H_    0.785959 0.067020 0.947102 0.237322
H29   H     H_    0.828730 0.039803 0.987885 0.252929
H30   H     H_    0.720036 0.562103 0.167971 0.223510
H31   H     H_    0.716152 0.517573 0.074626 0.228531
H32   H     H_    0.714051 0.567001 0.052891 0.237318
H33   H     H_    0.671276 0.539790 0.012102 0.252933
H34   H     H_    0.279963 0.562105 0.832017 0.223514
H35   H     H_    0.010372 0.085571 0.360084 0.108332
H36   H     H_    0.283849 0.517591 0.925382 0.228526
H37   H     H_    0.285956 0.567021 0.947103 0.237323
H38   H     H_    0.328727 0.539805 0.987893 0.252934
H39   H     H_    0.091102 0.047227 0.997067 0.227836
H40   H     H_    0.100957 0.112600 0.021820 0.224012
H41   H     H_    0.143411 0.103256 0.107596 0.246829
H42   H     H_    0.098008 0.092088 0.095159 0.240051
H43   H     H_    0.908895 0.047245 0.002913 0.227873
H44   H     H_    0.899045 0.112615 0.978109 0.224014
H45   H     H_    0.856591 0.103261 0.892341 0.246843
H46   H     H_    0.989684 0.085590 0.640003 0.108373
H47   H     H_    0.901993 0.092083 0.904786 0.240058
H48   H     H_    0.591101 0.547231 0.997065 0.227869
H49   H     H_    0.600951 0.612604 0.021829 0.224016
H50   H     H_    0.643406 0.603259 0.107603 0.246848
H51   H     H_    0.598004 0.592087 0.095166 0.240061
H52   H     H_    0.408898 0.547236 0.002929 0.227878
H53   H     H_    0.399050 0.612608 0.978151 0.224015
H54   H     H_    0.356595 0.603261 0.892380 0.246850
H55   H     H_    0.401997 0.592086 0.904818 0.240061
H56   H     H_    0.510389 0.585566 0.360110 0.108325
H57   H     H_    0.489624 0.585571 0.639911 0.108335
H58   H     H_    0.309408 0.029048 0.223343 0.133067
H59   H     H_    0.690590 0.029058 0.776650 0.133067
H60   H     H_    0.809410 0.529069 0.223359 0.133067
H61   H     H_    0.139024 0.904207 0.037572 0.125311
H62   H     H_    0.190590 0.529053 0.776656 0.133068
H63   H     H_    0.381678 0.968929 0.466597 0.163669
H64   H     H_    0.618322 0.968914 0.533421 0.163661
H65   H     H_    0.881677 0.468911 0.466575 0.163659
H66   H     H_    0.118323 0.468925 0.533412 0.163666
H67   H     H_    0.312708 0.966457 0.397092 0.138960
H68   H     H_    0.687293 0.966438 0.602934 0.138961
H69   H     H_    0.812707 0.466438 0.397064 0.138961
H70   H     H_    0.187294 0.466451 0.602924 0.138961
H71   H     H_    0.118719 0.950073 0.172081 0.166941
H72   H     H_    0.360877 0.404346 0.962324 0.125358
H73   H     H_    0.881280 0.950056 0.827963 0.166946
H74   H     H_    0.618721 0.450066 0.172059 0.166935
H75   H     H_    0.381278 0.450062 0.827953 0.166937
H76   H     H_    0.922834 0.873652 0.042206 0.118904
H77   H     H_    0.077098 0.873553 0.957562 0.118921
H78   H     H_    0.422820 0.373682 0.042128 0.118894
H79   H     H_    0.577166 0.373659 0.957818 0.118899
H80   H     H_    0.187465 0.948662 0.241473 0.153423
H81   H     H_    0.812535 0.948641 0.758581 0.153422
H82   H     H_    0.687466 0.448655 0.241444 0.153419
H83   H     H_    0.639107 0.404321 0.037656 0.125350
H84   H     H_    0.312534 0.448650 0.758570 0.153419
H85   H     H_    0.499866 0.811045 0.599593 0.133201
H86   H     H_    0.500134 0.811045 0.400407 0.133202
H87   H     H_    0.999863 0.311044 0.599589 0.133199
H88   H     H_    0.000134 0.311046 0.400405 0.133202
H89   H     H_    0.499862 0.880009 0.600038 0.156868
H90   H     H_    0.500138 0.880010 0.399962 0.156869
H91   H     H_    0.999860 0.380009 0.600036 0.156868
H92   H     H_    0.000139 0.380010 0.399962 0.156869
H93   H     H_    0.056530 0.188582 0.593738 0.135553
H94   H     H_    0.124578 0.119105 0.510756 0.123022
H95   H     H_    0.943469 0.188581 0.406251 0.135552
H96   H     H_    0.556535 0.688582 0.593729 0.135544
H97   H     H_    0.443465 0.688582 0.406270 0.135544
H98   H     H_    0.056663 0.119491 0.594142 0.157765
H99   H     H_    0.943338 0.119489 0.405849 0.157765
H100  H     H_    0.556667 0.619491 0.594132 0.157760
H101  H     H_    0.443333 0.619490 0.405866 0.157760
H102  H     H_    0.491632 0.188665 0.392748 0.132515
H103  H     H_    0.508367 0.188665 0.607249 0.132514
H104  H     H_    0.991380 0.688663 0.392551 0.132510
H105  H     H_    0.875500 0.119189 0.489325 0.123018
H106  H     H_    0.008618 0.688662 0.607447 0.132509
H107  H     H_    0.491532 0.119680 0.392242 0.156496
H108  H     H_    0.508468 0.119680 0.607756 0.156499
H109  H     H_    0.991281 0.619677 0.392047 0.156456
H110  H     H_    0.008719 0.619677 0.607951 0.156456
H111  H     H_    0.060739 0.811121 0.561719 0.133512
H112  H     H_    0.939260 0.811121 0.438280 0.133511
H113  H     H_    0.560740 0.311122 0.561650 0.133514
H114  H     H_    0.439260 0.311122 0.438347 0.133513
H115  H     H_    0.061006 0.880096 0.561991 0.156596
H116  H     H_    0.624601 0.619081 0.510779 0.123021
H117  H     H_    0.938993 0.880096 0.438008 0.156595
H118  H     H_    0.561006 0.380096 0.561923 0.156598
H119  H     H_    0.438993 0.380096 0.438076 0.156597
H120  H     H_    0.973811 0.907956 0.147852 0.123490
H121  H     H_    0.026150 0.907901 0.851946 0.123445
H122  H     H_    0.473803 0.407973 0.147786 0.123502
H123  H     H_    0.526188 0.407961 0.852169 0.123492
H124  H     H_    0.900628 0.004208 0.093454 0.131504
H125  H     H_    0.099340 0.004172 0.906679 0.131441
H126  H     H_    0.400616 0.504213 0.093499 0.131533
H127  H     H_    0.375416 0.619099 0.489238 0.123020
H128  H     H_    0.599377 0.504206 0.906530 0.131519
H129  H     H_    0.849769 0.969276 0.988724 0.141181
H130  H     H_    0.150170 0.969200 0.011383 0.141186
H131  H     H_    0.349750 0.469294 0.988759 0.141179
H132  H     H_    0.650237 0.469277 0.011263 0.141181
H133  H     H_    0.951270 0.964818 0.259501 0.160186
H134  H     H_    0.048702 0.964781 0.740469 0.160156
H135  H     H_    0.451262 0.464829 0.259493 0.160196
H136  H     H_    0.548731 0.464821 0.740501 0.160190
H137  H     H_    0.045982 0.038155 0.236402 0.150443
H138  H     H_    0.055955 0.130016 0.452442 0.145965
H139  H     H_    0.954043 0.038187 0.763618 0.150466
H140  H     H_    0.545989 0.538145 0.236408 0.150434
H141  H     H_    0.454017 0.538152 0.763597 0.150440
H142  H     H_    0.102676 0.019850 0.381009 0.124576
H143  H     H_    0.897336 0.019901 0.618960 0.124573
H144  H     H_    0.602679 0.519835 0.381001 0.124576
H145  H     H_    0.397323 0.519845 0.618990 0.124576
H146  H     H_    0.147817 0.064071 0.474771 0.127865
H147  H     H_    0.852224 0.064153 0.525230 0.127858
H148  H     H_    0.647830 0.564047 0.474772 0.127867
N1    N     N_2   0.383326 0.038455 0.286444 -0.293462
N2    N     N_2   0.883896 0.055594 0.957574 -0.296066
N3    N     N_2   0.616101 0.555584 0.042397 -0.296071
N4    N     N_2   0.383899 0.555588 0.957594 -0.296070
N5    N     N_2   0.616673 0.038472 0.713537 -0.293465
N6    N     N_2   0.883328 0.538481 0.286471 -0.293454
N7    N     N_2   0.116673 0.538464 0.713547 -0.293447
N8    N     N_2   0.195075 0.053427 0.122833 -0.296532
N9    N     N_2   0.804923 0.053443 0.877135 -0.296541
N10   N     N_2   0.695075 0.553439 0.122845 -0.296544
N11   N     N_2   0.304925 0.553444 0.877145 -0.296547
N12   N     N_2   0.116103 0.055579 0.042397 -0.296052
O1    O     O_R   0.055440 0.968710 0.055440 -0.612490
O2    O     O_R   0.555440 0.999880 0.607160 -0.587467
O3    O     O_R   0.944560 0.499880 0.392840 -0.587479
O4    O     O_R   0.055440 0.499880 0.607160 -0.587475
O5    O     O_R   0.500000 0.944470 0.551750 -0.626169
O6    O     O_R   0.500000 0.944470 0.448250 -0.626169
O7    O     O_R   1.000000 0.444470 0.551750 -0.626170
O8    O     O_R   0.000000 0.444470 0.448250 -0.626170
O9    O     O_R   0.055440 0.031290 0.055450 -0.625308
O10   O     O_R   0.944560 0.031290 0.944550 -0.625314
O11   O     O_R   0.555440 0.531290 0.055450 -0.625308
O12   O     O_R   0.944560 0.968710 0.944560 -0.612516
O13   O     O_R   0.444560 0.531290 0.944550 -0.625310
O14   O     O_R   0.000000 0.968710 0.091620 -0.622240
O15   O     O_R   1.000000 0.968710 0.908380 -0.622169
O16   O     O_R   0.500000 0.468710 0.091620 -0.622259
O17   O     O_R   0.500000 0.468710 0.908380 -0.622244
O18   O     O_R   1.000000 0.031290 0.091630 -0.626340
O19   O     O_R   1.000000 0.031290 0.908370 -0.626355
O20   O     O_R   0.500000 0.531290 0.091630 -0.626332
O21   O     O_R   0.500000 0.531290 0.908370 -0.626336
O22   O     O_R   0.968720 0.055450 0.468730 -0.618319
O23   O     O_R   0.555440 0.468710 0.055440 -0.612512
O24   O     O_R   0.031280 0.055450 0.531270 -0.618338
O25   O     O_R   0.468720 0.555450 0.468730 -0.618332
O26   O     O_R   0.531280 0.555450 0.531270 -0.618337
O27   O     O_R   0.968700 0.000020 0.377090 -0.628728
O28   O     O_R   0.031300 0.000020 0.622910 -0.628716
O29   O     O_R   0.468700 0.500020 0.377090 -0.628725
O30   O     O_R   0.531300 0.500020 0.622910 -0.628722
O31   O     O_R   0.031300 0.000000 0.439680 -0.608345
O32   O     O_R   0.968700 0.000000 0.560320 -0.608356
O33   O     O_R   0.531300 0.500000 0.439680 -0.608344
O34   O     O_R   0.444560 0.468710 0.944560 -0.612518
O35   O     O_R   0.468700 0.500000 0.560320 -0.608347
O36   O     O_R   0.968690 0.944590 0.468690 -0.625515
O37   O     O_R   0.031310 0.944590 0.531310 -0.625513
O38   O     O_R   0.468690 0.444590 0.468690 -0.625513
O39   O     O_R   0.531310 0.444590 0.531310 -0.625512
O40   O     O_R   0.500000 0.055330 0.551710 -0.619578
O41   O     O_R   0.500000 0.055330 0.448290 -0.619583
O42   O     O_R   0.000000 0.555330 0.551710 -0.619560
O43   O     O_R   1.000000 0.555330 0.448290 -0.619555
O44   O     O_R   0.444560 0.999900 0.496290 -0.628491
O45   O     O_R   0.555440 0.999900 0.503710 -0.628487
O46   O     O_R   0.944560 0.499900 0.496290 -0.628478
O47   O     O_R   0.055440 0.499900 0.503710 -0.628478
O48   O     O_R   0.444560 0.999880 0.392840 -0.587460
Zn1   Zn    Zn3+2 0.000000 0.958210 0.000000 0.944989
Zn2   Zn    Zn3+2 0.500000 0.999910 0.430920 0.953060
Zn3   Zn    Zn3+2 0.000000 0.499910 0.569080 0.953082
Zn4   Zn    Zn3+2 0.000000 0.499910 0.430920 0.953083
Zn5   Zn    Zn3+2 0.500000 0.458210 0.000000 0.944892
Zn6   Zn    Zn3+2 1.000000 0.041790 0.000000 0.933081
Zn7   Zn    Zn3+2 0.500000 0.541790 0.000000 0.933091
Zn8   Zn    Zn3+2 0.958200 0.000020 0.458210 0.954197
Zn9   Zn    Zn3+2 0.041800 0.000020 0.541790 0.954211
Zn10  Zn    Zn3+2 0.458200 0.500020 0.458210 0.954202
Zn11  Zn    Zn3+2 0.541800 0.500020 0.541790 0.954205
Zn12  Zn    Zn3+2 0.500000 0.999910 0.569080 0.953063

loop_
_geom_bond_atom_site_label_1
_geom_bond_atom_site_label_2
_ccdc_geom_bond_type
C133  H44   S    
C26   C83   S    
C158  H46   S    
C87   C91   T    
C128  H22   S    
C172  C194  A    
C121  H135  S    
C150  H116  S    
C185  C190  A    
C134  H49   S    
O42   Zn3   S    
C94   H113  S    
O17   Zn5   S    
C39   H85   S    
O38   Zn10  S    
C157  H35   S    
C170  C174  A    
C86   C88   S    
C104  H125  S    
C123  H7    S    
C128  N8    S    
C175  N5    S    
O8    Zn4   S    
C149  C153  A    
C146  C150  A    
O48   Zn2   S    
C56   C72   A    
C208  N11   S    
C142  H145  S    
C50   C52   S    
C164  O17   A    
C2    C177  A    
C163  O16   A    
C59   C73   A    
C125  N5    S    
C36   C71   A    
C33   C69   A    
C161  O14   A    
C127  H20   S    
C69   C135  S    
C116  H61   S    
C31   O47   A    
C79   C161  S    
C80   C83   A    
C211  H77   S    
C115  H1    S    
C158  C167  A    
O26   Zn11  S    
C20   O28   A    
C129  H29   S    
C27   O42   A    
C63   H100  S    
C22   C199  S    
C101  C163  S    
C119  H133  S    
C186  H66   S    
C101  C137  A    
C76   H104  S    
C98   C102  A    
C47   H92   S    
C64   C66   A    
C120  C177  A    
O20   Zn7   S    
C184  H64   S    
O14   Zn1   S    
O16   Zn5   S    
C178  C182  A    
C34   C212  A    
C141  H144  S    
C1    O1    A    
C205  C214  A    
C82   C84   A    
C14   C206  A    
C117  H72   S    
C110  C116  A    
H39   N12   S    
C34   H122  S    
C208  C217  A    
C206  N9    S    
C152  C157  A    
C30   O46   A    
C141  C168  A    
C7    H75   S    
C59   C63   A    
C117  C212  A    
C149  H105  S    
C70   C105  A    
C140  C145  A    
C10   H82   S    
C15   C203  S    
C133  H45   S    
C20   C177  S    
C123  H5    S    
C18   O25   A    
C212  H78   S    
C60   C64   A    
C120  C135  A    
C122  H136  S    
C12   C205  A    
C134  H51   S    
C4    H71   S    
O11   Zn7   S    
C153  H2    S    
C166  C210  A    
C104  C110  A    
C32   C209  A    
C98   H118  S    
C5    C219  A    
C77   C82   A    
O7    Zn3   S    
C207  C216  A    
C118  C213  A    
C95   C99   A    
C36   H123  S    
C214  N12   S    
C170  H58   S    
C95   C108  A    
C148  H94   S    
C110  H130  S    
C61   C65   A    
C162  O15   A    
C88   C89   T    
C127  H18   S    
O9    Zn6   S    
C71   C106  A    
C41   C45   A    
C99   H119  S    
O33   Zn11  S    
C174  N1    S    
C16   C204  S    
C41   C51   A    
C183  C187  A    
C180  C184  A    
O43   Zn4   S    
C62   H99   S    
O2    Zn12  S    
C136  H53   S    
C25   O38   A    
C171  C193  A    
O1    Zn1   S    
C216  N3    S    
C67   C103  A    
C132  H40   S    
C24   C169  S    
C130  H31   S    
C183  H63   S    
C90   C162  S    
C128  H25   S    
C27   C84   S    
O34   Zn5   S    
C144  C220  S    
C116  C211  A    
C125  H9    S    
C22   O30   A    
C40   C50   A    
C25   C102  S    
C190  H69   S    
C13   C57   A    
C136  N4    S    
C92   C96   A    
O19   Zn6   S    
C121  C137  A    
C153  C158  A    
C139  C165  A    
H8    N5    S    
C156  H24   S    
C114  H132  S    
C139  C143  A    
C8    H80   S    
C75   H103  S    
C106  H128  S    
O45   Zn2   S    
C1    C218  S    
C126  H16   S    
C8    C12   A    
C205  N8    S    
C64   H101  S    
C140  C167  A    
C23   C100  S    
C40   H86   S    
C133  H47   S    
C143  C148  A    
C156  C160  A    
C214  C218  A    
C157  C165  A    
C93   H112  S    
C13   C168  S    
O44   Zn12  S    
C27   O43   A    
H34   N11   S    
C51   C53   S    
C147  C151  A    
C5    C9    A    
O40   Zn12  S    
C161  O18   A    
H30   N10   S    
C131  H38   S    
C19   O31   A    
O13   Zn7   S    
C200  C204  T    
O21   Zn7   S    
O22   Zn8   S    
C197  C202  T    
C172  H60   S    
C187  C192  A    
C32   C67   A    
C6    C220  A    
C145  H147  S    
C4    C218  A    
C130  N10   S    
C207  N10   S    
O15   Zn1   S    
C136  H55   S    
C93   C97   A    
C97   C100  A    
C37   O6    A    
C21   C188  S    
C132  H42   S    
C96   H115  S    
C81   H109  S    
C56   C61   A    
C144  O11   A    
C142  C147  A    
C216  C220  A    
C125  H11   S    
C74   H102  S    
C175  C180  A    
C134  H50   S    
C57   C101  A    
C79   C124  A    
H12   N6    S    
C111  C117  A    
C139  H142  S    
C59   H96   S    
C29   O2    A    
C155  O34   A    
C90   C135  A    
C11   H84   S    
C194  C198  S    
C173  C178  A    
C129  H27   S    
C96   C100  A    
C35   C79   A    
C118  H83   S    
C74   C85   A    
C126  H14   S    
C191  C195  A    
H4    N1    S    
C55   C73   S    
C189  C193  A    
C40   C44   A    
O29   Zn10  S    
O28   Zn9   S    
C15   C207  A    
C172  C176  A    
C206  C215  A    
C58   C62   A    
C140  H143  S    
C127  H19   S    
C77   H106  S    
C23   O36   A    
C95   H114  S    
C38   C49   S    
O6    Zn2   S    
C97   H117  S    
C159  H56   S    
C192  C196  S    
C35   C210  A    
C109  C115  A    
C3    C7    A    
C129  N9    S    
C162  O19   A    
C94   C98   A    
H52   N4    S    
C60   C73   A    
C105  H126  S    
C182  C186  A    
C32   H120  S    
C186  C191  A    
C82   H110  S    
O36   Zn8   S    
C20   O32   A    
C21   O33   A    
C78   C83   A    
C75   C85   A    
C160  C169  A    
C133  N2    S    
C126  N6    S    
C34   C70   A    
C52   C55   T    
C68   C113  A    
C38   O7    A    
C17   O22   A    
C105  C111  A    
C63   C66   A    
C103  H124  S    
C146  H148  S    
C71   C138  S    
C176  C181  A    
C28   O44   A    
O39   Zn11  S    
C80   H108  S    
C120  H134  S    
C122  C138  A    
C115  C209  A    
C131  H36   S    
C215  N2    S    
C53   C54   T    
C42   H88   S    
C23   O37   A    
C9    C14   A    
C215  C219  A    
C11   C16   A    
C45   C49   A    
O30   Zn11  S    
C89   C107  S    
C3    C155  S    
C217  N4    S    
C151  C156  A    
C143  H146  S    
C132  N12   S    
C141  C146  A    
C142  C169  A    
C31   C182  S    
O25   Zn10  S    
C30   C181  S    
C18   C66   S    
C22   O35   A    
C76   C86   A    
C147  H3    S    
C56   H93   S    
O3    Zn4   S    
C33   H121  S    
O4    Zn3   S    
C91   C108  S    
C28   O48   A    
C136  H54   S    
C160  H57   S    
C6    C10   A    
C19   O27   A    
C46   C90   A    
C130  H32   S    
O47   Zn4   S    
C152  H138  S    
C103  C109  A    
C18   O26   A    
C121  C188  A    
O32   Zn8   S    
O18   Zn6   S    
C92   H111  S    
C1    O9    A    
C154  H13   S    
C209  H76   S    
O37   Zn9   S    
C165  C210  S    
C28   C179  S    
C24   C68   A    
C130  H33   S    
C154  C159  A    
C17   O24   A    
C109  H129  S    
H17   N7    S    
C70   C137  S    
C74   C78   A    
C198  C203  T    
C128  H23   S    
C113  C138  A    
C145  C149  A    
C129  H28   S    
C191  H70   S    
C44   C48   A    
C170  C192  A    
C163  O20   A    
C4    C8    A    
C67   C124  S    
C47   C49   A    
C123  H6    S    
C119  C124  A    
C2    C46   A    
C7    C11   A    
C94   C108  A    
C106  C114  A    
C31   O4    A    
H43   N2    S    
C5    H73   S    
C10   C15   A    
C134  N3    S    
C181  C185  A    
C68   H141  S    
C14   C202  S    
C159  C168  A    
C57   H140  S    
C185  H65   S    
C30   O3    A    
C131  H37   S    
C187  H67   S    
C24   C199  A    
C112  O10   A    
O24   Zn9   S    
C29   C180  S    
C99   C102  A    
C173  C195  A    
C19   C166  S    
C122  C199  A    
C46   H139  S    
C42   C51   A    
C13   C188  A    
C111  H131  S    
C25   O39   A    
C26   O40   A    
C37   O5    A    
C179  C183  A    
O46   Zn3   S    
C85   C87   S    
C61   H98   S    
C148  C152  A    
C127  N7    S    
C78   H107  S    
C44   H90   S    
C6    H74   S    
C123  N1    S    
C45   H91   S    
C125  H10   S    
C21   O29   A    
C39   C43   A    
C173  H62   S    
C29   O45   A    
O41   Zn2   S    
C171  C175  A    
C41   H87   S    
C26   O41   A    
C9    H81   S    
C75   C80   A    
C36   C213  A    
O23   Zn5   S    
C92   C107  A    
C3    C217  A    
C12   C201  S    
O10   Zn6   S    
C37   C48   S    
C126  H15   S    
C119  C166  A    
C114  C118  A    
O5    Zn12  S    
C131  N11   S    
C77   C86   A    
C178  N7    S    
C164  O21   A    
C81   C84   A    
C171  H59   S    
C195  C200  S    
C43   C48   A    
C69   C104  A    
O12   Zn1   S    
C176  N6    S    
C62   C65   A    
C43   H89   S    
C16   C208  A    
H26   N9    S    
C76   C81   A    
O31   Zn9   S    
H21   N8    S    
C17   C65   S    
H48   N3    S    
C35   H137  S    
C196  C201  T    
C93   C107  A    
C113  C164  S    
C33   C211  A    
C58   C72   A    
O27   Zn8   S    
C155  O13   A    
C112  O12   A    
C144  O23   A    
C193  C197  S    
C2    C167  S    
C213  H79   S    
C112  C219  S    
C42   C47   A    
O35   Zn10  S    
C151  H127  S    
C190  C194  A    
C39   C50   A    
C54   C72   S    
C150  C154  A    
C189  H68   S    
C184  C189  A    
C60   H97   S    
C58   H95   S    
C174  C179  A    
C132  H41   S    
C38   O8    A    
