data_mof_unit_57524.cif
_audit_creation_date              2013-03-05T15:39:43-0500
_audit_creation_method            fapswitch 2.2
_symmetry_space_group_name_H-M    P1
_symmetry_Int_Tables_number       1
_space_group_crystal_system       triclinic
_cell_length_a                    20.179127
_cell_length_b                    17.38185
_cell_length_c                    15.681826
_cell_angle_alpha                 89.961874
_cell_angle_beta                  51.656651
_cell_angle_gamma                 89.905395
_cell_volume                      4314.00440467

loop_
_atom_site_label
_atom_site_type_symbol
_atom_site_description
_atom_site_fract_x
_atom_site_fract_y
_atom_site_fract_z
_atom_type_partial_charge
C1    C     C_R   0.352594 0.186564 0.024118 0.240200
C2    C     C_R   0.614873 0.801321 0.017544 0.336275
C3    C     C_R   0.645835 0.187587 0.977014 0.221568
C4    C     C_R   0.383249 0.801853 0.984745 0.302112
C5    C     C_R   0.852710 0.686687 0.023395 0.259933
C6    C     C_R   0.115153 0.301288 0.016845 0.317444
C7    C     C_R   0.145924 0.687500 0.976999 0.221948
C8    C     C_R   0.883242 0.301858 0.984730 0.302086
N1    N     N_R   0.408680 0.130810 0.995780 -0.076936
N2    N     N_R   0.591320 0.869190 0.004220 -0.091294
N3    N     N_R   0.591320 0.130810 0.004220 -0.076176
N4    N     N_R   0.408680 0.869190 0.995780 -0.091814
N5    N     N_R   0.908680 0.630810 0.995780 -0.081375
N6    N     N_R   0.091320 0.369190 0.004220 -0.091292
N7    N     N_R   0.091320 0.630810 0.004220 -0.076311
N8    N     N_R   0.908680 0.369190 0.995780 -0.091307
C9    C     C_R   0.349209 0.829266 0.223241 0.075575
C10   C     C_R   0.611448 0.195709 0.783899 -0.021432
C11   C     C_R   0.651006 0.829442 0.776712 0.077045
C12   C     C_R   0.388304 0.195671 0.216232 -0.020344
C13   C     C_R   0.849243 0.329233 0.223209 0.075832
C14   C     C_R   0.111298 0.695772 0.783991 -0.022651
C15   C     C_R   0.151058 0.329453 0.776720 0.077811
C16   C     C_R   0.888128 0.695599 0.216368 -0.011675
N9    N     N_R   0.421410 0.867210 0.153620 -0.055711
N10   N     N_R   0.578590 0.132790 0.846380 -0.084238
N11   N     N_R   0.578590 0.867210 0.846380 -0.054081
N12   N     N_R   0.421410 0.132790 0.153620 -0.085255
N13   N     N_R   0.921410 0.367210 0.153620 -0.055101
N14   N     N_R   0.078590 0.632790 0.846380 -0.084559
N15   N     N_R   0.078590 0.367210 0.846380 -0.053946
N16   N     N_R   0.921410 0.632790 0.153620 -0.084459
C17   C     C_R   0.371155 0.887329 0.892402 0.022074
C18   C     C_R   0.666533 0.093517 0.052246 0.054503
C19   C     C_R   0.625430 0.886196 0.111121 -0.009342
C20   C     C_R   0.332941 0.091052 0.948962 0.061954
C21   C     C_R   0.871237 0.387326 0.892292 0.022780
C22   C     C_R   0.166467 0.593348 0.052420 0.053410
C23   C     C_R   0.126191 0.386140 0.110180 -0.021777
C24   C     C_R   0.833957 0.591443 0.946858 0.043147
N17   N     N_R   0.403840 0.921910 0.935760 -0.086495
N18   N     N_R   0.596160 0.078090 0.064240 -0.060071
N19   N     N_R   0.596160 0.921910 0.064240 -0.072750
N20   N     N_R   0.403840 0.078090 0.935760 -0.055111
N21   N     N_R   0.903840 0.421910 0.935760 -0.085358
N22   N     N_R   0.096160 0.578090 0.064240 -0.060344
N23   N     N_R   0.096160 0.421910 0.064240 -0.074981
N24   N     N_R   0.903840 0.578090 0.935760 -0.056114
C25   C     C_R   0.408687 0.109619 0.302299 0.364920
C26   C     C_R   0.640893 0.916942 0.681482 0.342491
C27   C     C_R   0.591145 0.109780 0.697821 0.359109
C28   C     C_R   0.359091 0.916746 0.318574 0.340508
C29   C     C_R   0.908422 0.609518 0.302490 0.365054
C30   C     C_R   0.140940 0.416936 0.681481 0.342197
C31   C     C_R   0.091135 0.609796 0.697822 0.358510
C32   C     C_R   0.859098 0.416719 0.318569 0.338559
N25   N     N_R   0.426250 0.076100 0.213650 -0.097539
N26   N     N_R   0.573750 0.923900 0.786350 -0.088644
N27   N     N_R   0.573750 0.076100 0.786350 -0.099501
N28   N     N_R   0.426250 0.923900 0.213650 -0.085213
N29   N     N_R   0.926250 0.576100 0.213650 -0.097107
N30   N     N_R   0.073750 0.423900 0.786350 -0.088975
N31   N     N_R   0.073750 0.576100 0.786350 -0.099330
N32   N     N_R   0.926250 0.423900 0.213650 -0.086055
C33   C     C_R   0.297831 0.158295 0.007258 -0.057775
C34   C     C_R   0.643194 0.811413 0.075792 -0.026457
C35   C     C_R   0.700342 0.160488 0.994439 -0.024941
C36   C     C_R   0.353153 0.813251 0.928911 0.051580
C37   C     C_R   0.799038 0.658724 0.004415 -0.015612
C38   C     C_R   0.143576 0.311503 0.074745 0.027568
C39   C     C_R   0.200344 0.660348 0.994608 -0.024060
C40   C     C_R   0.853202 0.313274 0.928834 0.051031
C41   C     C_R   0.307615 0.860114 0.325880 -0.068087
C42   C     C_R   0.620809 0.181257 0.691702 0.034590
C43   C     C_R   0.692500 0.860305 0.674112 -0.067011
C44   C     C_R   0.379194 0.181290 0.308317 0.027290
C45   C     C_R   0.807662 0.360055 0.325846 -0.065511
C46   C     C_R   0.120678 0.681323 0.691775 0.034396
C47   C     C_R   0.192560 0.360306 0.674122 -0.067338
C48   C     C_R   0.878719 0.681085 0.308619 0.024616
Ni1   Ni    Ni4+2 0.500000 0.131570 0.000000 0.216929
Ni2   Ni    Ni4+2 0.500000 0.868430 0.000000 0.299545
Ni3   Ni    Ni4+2 0.000000 0.631570 0.000000 0.217982
Ni4   Ni    Ni4+2 0.000000 0.368430 0.000000 0.300952
Ni5   Ni    Ni4+2 0.488900 0.000000 0.862310 0.251637
Ni6   Ni    Ni4+2 0.511100 0.000000 0.137690 0.260702
Ni7   Ni    Ni4+2 0.988900 0.500000 0.862310 0.252750
Ni8   Ni    Ni4+2 0.011100 0.500000 0.137690 0.259394
C49   C     C_3   0.286196 0.200605 0.516178 -0.254809
C50   C     C_3   0.810307 0.849684 0.458221 -0.180700
C51   C     C_3   0.714027 0.200470 0.483815 -0.249092
C52   C     C_3   0.189194 0.849836 0.541867 -0.181638
C53   C     C_3   0.786040 0.700545 0.516409 -0.253181
C54   C     C_3   0.310622 0.349801 0.458263 -0.179313
C55   C     C_3   0.213703 0.700622 0.483951 -0.246538
C56   C     C_3   0.689313 0.349705 0.541762 -0.180507
C57   C     C_3   0.717141 0.757254 0.544132 0.406455
C58   C     C_3   0.380060 0.292102 0.429366 0.466333
C59   C     C_3   0.282452 0.757174 0.456521 0.406687
C60   C     C_3   0.619997 0.292143 0.570452 0.466493
C61   C     C_3   0.217384 0.257391 0.543801 0.406587
C62   C     C_3   0.879832 0.792066 0.429217 0.465981
C63   C     C_3   0.782716 0.257117 0.456413 0.405186
C64   C     C_3   0.119797 0.792355 0.570616 0.465650
H1    H     H_    0.276051 0.138814 0.539030 0.210229
H2    H     H_    0.822428 0.911216 0.434197 0.202494
H3    H     H_    0.724242 0.138654 0.460994 0.210896
H4    H     H_    0.177039 0.911413 0.565733 0.202254
H5    H     H_    0.775958 0.638774 0.539365 0.210322
H6    H     H_    0.322771 0.411359 0.434381 0.202706
H7    H     H_    0.223871 0.638820 0.461099 0.211306
H8    H     H_    0.677078 0.411288 0.565630 0.202506
C65   C     C_3   0.754267 0.817685 0.574722 0.011359
C66   C     C_3   0.341594 0.232739 0.400003 0.027726
C67   C     C_3   0.245610 0.817652 0.425385 0.013703
C68   C     C_3   0.658416 0.232680 0.599997 0.026300
C69   C     C_3   0.254393 0.317699 0.574708 0.011079
C70   C     C_3   0.841245 0.732577 0.400193 0.028420
C71   C     C_3   0.745785 0.317519 0.425285 0.012086
C72   C     C_3   0.158168 0.732812 0.600132 0.026606
C73   C     C_3   0.324062 0.261245 0.547319 -0.243548
C74   C     C_3   0.771851 0.788935 0.428244 -0.203849
C75   C     C_3   0.676221 0.261212 0.452473 -0.243012
C76   C     C_3   0.227404 0.789035 0.572361 -0.203303
C77   C     C_3   0.824032 0.761312 0.547216 -0.243830
C78   C     C_3   0.272283 0.289178 0.427959 -0.204172
C79   C     C_3   0.175963 0.761438 0.452627 -0.243987
C80   C     C_3   0.727588 0.288983 0.572274 -0.203830
H9    H     H_    0.347897 0.250533 0.593732 0.194659
H10   H     H_    0.747946 0.800030 0.381985 0.179701
H11   H     H_    0.652590 0.250609 0.405823 0.194804
H12   H     H_    0.250877 0.800098 0.619107 0.181139
H13   H     H_    0.848111 0.750737 0.593371 0.194729
H14   H     H_    0.248531 0.300426 0.381553 0.180402
H15   H     H_    0.152320 0.750903 0.405985 0.194847
H16   H     H_    0.751026 0.300118 0.619052 0.181304
C81   C     C_2   0.253380 0.711040 0.000217 0.040159
C82   C     C_2   0.812660 0.253688 0.912318 0.082082
C83   C     C_2   0.744342 0.708701 0.000463 0.062311
C84   C     C_2   0.184298 0.251153 0.090695 0.083844
C85   C     C_2   0.753346 0.211172 0.000107 0.040498
C86   C     C_2   0.312620 0.753621 0.912428 0.082308
C87   C     C_2   0.243806 0.208699 0.002478 0.033499
C88   C     C_2   0.685941 0.750860 0.089116 0.079512
Br1   Br    Br    0.384331 0.293531 0.990812 -0.584898
Br2   Br    Br    0.562675 0.705232 0.031241 -0.460926
Br3   Br    Br    0.611768 0.294064 0.011554 -0.585461
Br4   Br    Br    0.435097 0.704882 0.969248 -0.443266
Br5   Br    Br    0.883646 0.793847 0.992150 -0.586087
Br6   Br    Br    0.062918 0.205156 0.030715 -0.459983
Br7   Br    Br    0.112049 0.794030 0.011170 -0.586840
Br8   Br    Br    0.935020 0.204853 0.969273 -0.443480
N33   N     N_3   0.327573 0.759457 0.198916 -0.163712
H17   H     H_    0.265585 0.765549 0.227216 0.102003
H18   H     H_    0.329240 0.714937 0.242314 0.188619
N34   N     N_3   0.600966 0.271868 0.823227 -0.159647
H19   H     H_    0.550365 0.272093 0.905702 0.207158
H20   H     H_    0.656666 0.286836 0.810053 0.145581
N35   N     N_3   0.673337 0.760033 0.801041 -0.167584
H21   H     H_    0.735556 0.766562 0.771592 0.102816
H22   H     H_    0.671531 0.715206 0.758202 0.185246
N36   N     N_3   0.397594 0.271763 0.177253 -0.158204
H23   H     H_    0.447360 0.271926 0.094478 0.207121
H24   H     H_    0.341311 0.286222 0.191540 0.144614
N37   N     N_3   0.827682 0.259386 0.198856 -0.163799
H25   H     H_    0.765700 0.265414 0.227102 0.102367
H26   H     H_    0.829387 0.214884 0.242245 0.187707
N38   N     N_3   0.100441 0.771926 0.823523 -0.159787
H27   H     H_    0.049977 0.771956 0.906057 0.206295
H28   H     H_    0.156144 0.787236 0.810138 0.146364
N39   N     N_3   0.173456 0.260050 0.801052 -0.167079
H29   H     H_    0.235487 0.266680 0.772423 0.102881
H30   H     H_    0.172097 0.215230 0.757801 0.184894
N40   N     N_3   0.897620 0.771762 0.177528 -0.159464
H31   H     H_    0.947399 0.771977 0.094756 0.205737
H32   H     H_    0.841308 0.786465 0.192017 0.148820
N41   N     N_3   0.392160 0.908079 0.790008 -0.160880
H33   H     H_    0.430408 0.956849 0.760375 0.192243
H34   H     H_    0.336176 0.920785 0.802337 0.147104
N42   N     N_3   0.696639 0.053995 0.101693 -0.199609
H35   H     H_    0.646864 0.046824 0.184060 0.181365
H36   H     H_    0.722643 0.001756 0.061639 0.149606
N43   N     N_3   0.605108 0.911091 0.211709 -0.184494
H37   H     H_    0.659491 0.906757 0.205692 0.126172
H38   H     H_    0.559635 0.873872 0.273141 0.185596
N44   N     N_3   0.305741 0.047878 0.898572 -0.218570
H39   H     H_    0.332941 0.072123 0.822508 0.149061
H40   H     H_    0.240089 0.052565 0.945702 0.155489
N45   N     N_3   0.892634 0.407880 0.789623 -0.160665
H41   H     H_    0.931220 0.456432 0.759743 0.193517
H42   H     H_    0.836838 0.420782 0.801568 0.147485
N46   N     N_3   0.195779 0.554103 0.103079 -0.199182
H43   H     H_    0.145316 0.546189 0.185000 0.183205
H44   H     H_    0.222691 0.502059 0.062858 0.151323
N47   N     N_3   0.106207 0.410032 0.210931 -0.186184
H45   H     H_    0.157850 0.397125 0.208742 0.141165
H46   H     H_    0.055032 0.377223 0.272998 0.203851
N48   N     N_3   0.807732 0.548422 0.895236 -0.217948
H47   H     H_    0.833064 0.574297 0.820683 0.150237
H48   H     H_    0.741849 0.550684 0.943722 0.156137
Br9   Br    Br    0.477527 0.095541 0.347072 -0.475674
Br10  Br    Br    0.644111 0.949500 0.562500 -0.514846
Br11  Br    Br    0.521414 0.097028 0.654178 -0.496242
Br12  Br    Br    0.355667 0.948679 0.437854 -0.516822
Br13  Br    Br    0.977104 0.595652 0.347536 -0.477035
Br14  Br    Br    0.144269 0.449475 0.562400 -0.512293
Br15  Br    Br    0.021568 0.596942 0.653959 -0.496650
Br16  Br    Br    0.855665 0.448599 0.437888 -0.517349
Br17  Br    Br    0.599265 0.728796 0.624442 -0.470335
Br18  Br    Br    0.498862 0.316715 0.343711 -0.461796
Br19  Br    Br    0.400192 0.728320 0.376862 -0.512240
Br20  Br    Br    0.501068 0.316810 0.656172 -0.459803
Br21  Br    Br    0.099528 0.228978 0.623844 -0.469904
Br22  Br    Br    0.998652 0.816740 0.343162 -0.464249
Br23  Br    Br    0.900590 0.228507 0.376681 -0.492939
Br24  Br    Br    0.000881 0.817071 0.656446 -0.461516
N49   N     N_3   0.228415 0.727848 0.106422 -0.208422
H49   H     H_    0.164023 0.741196 0.158689 0.205709
H50   H     H_    0.237795 0.678836 0.136219 0.152773
N50   N     N_3   0.836550 0.242131 0.805665 -0.169335
H51   H     H_    0.785537 0.255279 0.806788 0.124737
H52   H     H_    0.852704 0.184294 0.784296 0.159837
N51   N     N_3   0.768294 0.726616 0.895185 -0.209587
H53   H     H_    0.833448 0.736134 0.840614 0.200309
H54   H     H_    0.754092 0.679391 0.868214 0.123344
N52   N     N_3   0.160050 0.238463 0.197331 -0.188799
H55   H     H_    0.211029 0.250535 0.196624 0.121342
H56   H     H_    0.143563 0.180624 0.217873 0.163037
N53   N     N_3   0.728326 0.227998 0.106339 -0.208153
H57   H     H_    0.663981 0.241521 0.158477 0.205951
H58   H     H_    0.737475 0.178942 0.136305 0.152157
N54   N     N_3   0.336504 0.742046 0.805779 -0.169629
H59   H     H_    0.285504 0.755193 0.806869 0.124972
H60   H     H_    0.352657 0.684201 0.784423 0.159777
N55   N     N_3   0.269104 0.226634 0.896427 -0.205436
H61   H     H_    0.334229 0.236468 0.842911 0.206239
H62   H     H_    0.255773 0.179422 0.868424 0.125647
N56   N     N_3   0.666586 0.736044 0.192607 -0.199884
H63   H     H_    0.686643 0.782674 0.213139 0.120482
H64   H     H_    0.601064 0.731111 0.250905 0.182195

loop_
_geom_bond_atom_site_label_1
_geom_bond_atom_site_label_2
_geom_bond_distance
_ccdc_geom_bond_type
C37   C83   1.434685 S    
C58   C73   1.547037 S    
C21   N45   1.429517 S    
N39   H29   1.041550 S    
C38   C84   1.445678 S    
N37   H25   1.041038 S    
N47   H46   1.045512 S    
C53   C57   1.529611 S    
N55   H62   1.042312 S    
C45   C71   1.457080 S    
C56   C71   1.537729 S    
C1    Br1   1.930675 S    
N51   H53   1.045384 S    
C10   N10   1.338143 A    
C27   C42   1.357253 A    
N6    Ni4   1.884594 S    
C81   C86   1.353426 D    
C62   C77   1.547016 S    
C16   N40   1.419597 S    
N50   H52   1.045490 S    
C13   N37   1.420428 S    
C11   C43   1.380735 A    
C39   C81   1.431600 S    
C59   Br19  1.941990 S    
N12   N25   1.406850 A    
N3    Ni1   1.884551 S    
C3    Br3   1.930395 S    
N46   H44   1.041740 S    
N39   H30   1.044763 S    
C56   C80   1.547477 S    
C57   C74   1.528429 S    
C57   Br17  1.942902 S    
N23   Ni8   1.912234 S    
N34   H19   1.037709 S    
C8    Br8   1.916760 S    
C79   H15   1.108875 S    
N16   N29   1.406850 A    
C30   C47   1.383803 A    
C53   H5    1.110466 S    
C52   C76   1.547325 S    
C59   C67   1.530795 S    
C33   C87   1.435205 S    
C54   C69   1.537298 S    
C55   C59   1.529506 S    
C58   C66   1.525120 S    
C65   C77   1.539692 S    
C54   C58   1.543591 S    
C19   N43   1.428753 S    
C4    Br4   1.916765 S    
C56   C60   1.543743 S    
N8    Ni4   1.884553 S    
C67   C79   1.539959 S    
N25   Ni6   1.887935 S    
C12   C44   1.360834 A    
N3    N18   1.359333 A    
C6    C38   1.353367 A    
C70   C74   1.531594 S    
C50   C65   1.537297 S    
C87   N55   1.438782 S    
N14   Ni3   1.891768 S    
N45   H42   1.044319 S    
C69   C73   1.539685 S    
N40   H31   1.037367 S    
C50   C62   1.543507 S    
C5    C37   1.378302 A    
C28   N28   1.339026 A    
C15   C47   1.380621 A    
N56   H63   1.042855 S    
C5    Br5   1.929341 S    
C29   N29   1.336518 A    
C52   H4    1.109771 S    
N33   H17   1.040996 S    
N35   H21   1.040904 S    
C61   Br21  1.942853 S    
N41   H34   1.044321 S    
C18   N18   1.339285 A    
C1    C33   1.377327 A    
N55   H61   1.045332 S    
C84   C87   1.355582 D    
C36   C86   1.440682 S    
N48   H47   1.043550 S    
C43   C65   1.455929 S    
N9    N28   1.407953 A    
C4    N4    1.332547 A    
C19   N19   1.345981 A    
N10   N27   1.407955 A    
C49   C61   1.529624 S    
C62   C70   1.525022 S    
C2    Br2   1.915676 S    
N31   Ni7   1.890783 S    
C8    N8    1.332608 A    
N38   H28   1.042360 S    
N12   Ni1   1.891745 S    
N13   N32   1.407952 A    
C9    N33   1.420391 S    
C10   C42   1.360382 A    
C25   Br9   1.921283 S    
C51   C75   1.549241 S    
N14   N31   1.407956 A    
C49   C73   1.549070 S    
N44   H40   1.045386 S    
C9    C41   1.380632 A    
C50   C74   1.547301 S    
N15   N30   1.406852 A    
C22   C39   1.370315 A    
C25   C44   1.357609 A    
N50   H51   1.043527 S    
C76   H12   1.109060 S    
C16   C48   1.360667 A    
N56   H64   1.044900 S    
C54   C78   1.547335 S    
C48   C70   1.444725 S    
C8    C40   1.354178 A    
C75   H11   1.108981 S    
C24   C37   1.374201 A    
C17   N41   1.429466 S    
C26   N26   1.337895 A    
C51   H3    1.110543 S    
C29   C48   1.357271 A    
C1    N1    1.338086 A    
C14   C46   1.360454 A    
N13   Ni4   1.891768 S    
C51   C68   1.534515 S    
C32   N32   1.338993 A    
C85   N53   1.439552 S    
C51   C63   1.529815 S    
C4    C36   1.354189 A    
C31   C46   1.357302 A    
N28   Ni6   1.890785 S    
C20   C33   1.377988 A    
N7    Ni3   1.884551 S    
C30   N30   1.338148 A    
C19   C34   1.370436 A    
C30   Br14  1.911721 S    
N49   H49   1.044914 S    
C23   N47   1.428691 S    
C54   H6    1.109804 S    
C25   N25   1.336698 A    
C32   C45   1.384441 A    
C31   N31   1.337439 A    
C62   Br22  1.934410 S    
C15   N15   1.333501 A    
C18   C35   1.369721 A    
C46   C72   1.445760 S    
N43   H37   1.044104 S    
N27   Ni5   1.890784 S    
N53   H57   1.044851 S    
N29   Ni8   1.887935 S    
C6    N6    1.333971 A    
N43   H38   1.045426 S    
C58   Br18  1.934339 S    
C83   C88   1.350663 D    
C52   C64   1.543784 S    
C29   Br13  1.921278 S    
C44   C66   1.445202 S    
C32   Br16  1.911395 S    
C60   Br20  1.935195 S    
C42   C68   1.445473 S    
C11   N35   1.419538 S    
N54   H60   1.045588 S    
C61   C78   1.528516 S    
N24   Ni7   1.912234 S    
N4    Ni2   1.884553 S    
N52   H55   1.043542 S    
C63   C80   1.528719 S    
C18   N42   1.422902 S    
C64   Br24  1.935031 S    
C27   Br11  1.921883 S    
N18   Ni6   1.915166 S    
N38   H27   1.037713 S    
C80   H16   1.109159 S    
C28   C41   1.384433 A    
N10   Ni1   1.891768 S    
C22   N46   1.423832 S    
N17   Ni5   1.915168 S    
C12   N36   1.419754 S    
C7    Br7   1.930239 S    
C20   N20   1.331139 A    
N33   H18   1.044379 S    
C53   C70   1.534311 S    
C21   N21   1.347996 A    
N20   Ni5   1.912234 S    
C2    N2    1.335008 A    
N26   Ni5   1.887936 S    
C63   Br23  1.943003 S    
C11   N11   1.332994 A    
N42   H35   1.040809 S    
N4    N17   1.359335 A    
C23   N23   1.346347 A    
N36   H23   1.037342 S    
C13   N13   1.333334 A    
C77   H13   1.108888 S    
N45   H41   1.042589 S    
C24   N24   1.329365 A    
N16   Ni3   1.891745 S    
C49   C66   1.534444 S    
C61   C69   1.530950 S    
N1    N20   1.360397 A    
N32   Ni8   1.890787 S    
C14   N14   1.338305 A    
N21   Ni7   1.915168 S    
N2    N19   1.360395 A    
N19   Ni6   1.912234 S    
C84   N52   1.438445 S    
N11   Ni2   1.891745 S    
C63   C71   1.531014 S    
C10   N34   1.419806 S    
C73   H9    1.108881 S    
C9    N9    1.333522 A    
C2    C34   1.356470 A    
C82   C85   1.353184 D    
C13   C45   1.380463 A    
N8    N21   1.359335 A    
N5    N24   1.360397 A    
C34   C88   1.454612 S    
N51   H54   1.042318 S    
C49   H1    1.110457 S    
C26   Br10  1.911611 S    
N6    N23   1.360395 A    
C71   C75   1.539981 S    
C55   C72   1.534392 S    
N49   H50   1.043375 S    
C12   N12   1.337958 A    
N30   Ni7   1.887937 S    
N5    Ni3   1.884596 S    
N52   H56   1.045409 S    
C41   C67   1.457473 S    
N22   Ni8   1.915166 S    
C60   C75   1.547294 S    
C17   N17   1.347916 A    
C60   C68   1.525244 S    
N34   H20   1.042358 S    
N35   H22   1.044463 S    
N44   H39   1.043778 S    
C14   N38   1.419896 S    
C31   Br15  1.921729 S    
N53   H58   1.043344 S    
N36   H24   1.042451 S    
C55   H7    1.110429 S    
C26   C43   1.383628 A    
N46   H43   1.040831 S    
N42   H36   1.041445 S    
C7    C39   1.370885 A    
C16   N16   1.338006 A    
N9    Ni2   1.891768 S    
C64   C79   1.547347 S    
C24   N48   1.424152 S    
N11   N26   1.406853 A    
C66   C78   1.531678 S    
C47   C69   1.456282 S    
C7    N7    1.336677 A    
N54   H59   1.043575 S    
C56   H8    1.109889 S    
C23   C38   1.368404 A    
N2    Ni2   1.884594 S    
C83   N51   1.437345 S    
C53   C77   1.549099 S    
C20   N44   1.424498 S    
C86   N54   1.438713 S    
C40   C82   1.440538 S    
C52   C67   1.537775 S    
N40   H32   1.042570 S    
C22   N22   1.338813 A    
C3    N3    1.336722 A    
N15   Ni4   1.891745 S    
C50   H2    1.109800 S    
C82   N50   1.438666 S    
N47   H45   1.045157 S    
C6    Br6   1.916068 S    
C5    N5    1.340353 A    
C55   C79   1.549035 S    
C27   N27   1.337253 A    
C78   H14   1.108954 S    
N37   H26   1.044402 S    
N41   H33   1.042537 S    
C68   C80   1.531699 S    
C21   C40   1.363618 A    
C81   N49   1.439486 S    
C88   N56   1.437381 S    
N48   H48   1.045360 S    
N7    N22   1.359333 A    
C28   Br12  1.911188 S    
C3    C35   1.370170 A    
C57   C65   1.530992 S    
C74   H10   1.108978 S    
C72   C76   1.531561 S    
C17   C36   1.363882 A    
N1    Ni1   1.884596 S    
C59   C76   1.528473 S    
C64   C72   1.525228 S    
C15   N39   1.420116 S    
C35   C85   1.431505 S    
