data_mof_unit_55557.cif
_audit_creation_date              2012-12-11T14:17:56-0500
_audit_creation_method            fapswitch 2.2
_symmetry_space_group_name_H-M    P1
_symmetry_Int_Tables_number       1
_space_group_crystal_system       triclinic
_cell_length_a                    11.498232
_cell_length_b                    11.26613
_cell_length_c                    18.903299
_cell_angle_alpha                 89.957107
_cell_angle_beta                  90.013398
_cell_angle_gamma                 119.712501
_cell_volume                      2126.7910415

loop_
_atom_site_label
_atom_site_type_symbol
_atom_type_description
_atom_site_fract_x
_atom_site_fract_y
_atom_site_fract_z
_atom_type_partial_charge
C1    C     C_R   0.522205 0.450831 0.144240 0.559986
C2    C     C_R   0.966270 0.392912 0.542104 -0.149248
C3    C     C_R   0.426869 0.029392 0.540542 -0.152132
C4    C     C_R   0.601655 0.567759 0.542006 -0.148311
C5    C     C_R   0.725279 0.975884 0.552561 0.022659
C6    C     C_R   0.004730 0.742973 0.559480 0.021394
C7    C     C_R   0.248735 0.272920 0.551330 0.021085
C8    C     C_R   0.104494 0.751601 0.424196 0.018195
C9    C     C_R   0.627203 0.878355 0.417403 0.014512
C10   C     C_R   0.257075 0.378454 0.416562 0.015316
C11   C     C_R   0.784536 0.919690 0.510003 -0.159833
C12   C     C_R   0.545642 0.063218 0.147231 0.559366
C13   C     C_R   0.064876 0.864034 0.521043 -0.157040
C14   C     C_R   0.135669 0.215696 0.507823 -0.160218
C15   C     C_R   0.114854 0.869009 0.454059 -0.147408
C16   C     C_R   0.735363 0.869689 0.443357 -0.139044
C17   C     C_R   0.139238 0.268820 0.441302 -0.138149
C18   C     C_R   0.521101 0.455982 0.353901 0.554458
C19   C     C_R   0.545095 0.065317 0.353823 0.557160
C20   C     C_R   0.934843 0.479839 0.354341 0.561460
C21   C     C_R   0.452268 0.516531 0.645867 0.549124
C22   C     C_R   0.061351 0.544953 0.646684 0.555307
C23   C     C_R   0.926048 0.476643 0.143653 0.564817
C24   C     C_R   0.482345 0.935504 0.645827 0.549371
C25   C     C_R   0.495617 0.996166 0.925459 -0.022502
C26   C     C_R   0.989128 0.510768 0.918402 0.002019
C27   C     C_R   0.481552 0.465547 0.918771 -0.002135
C28   C     C_R   0.964447 0.495764 0.066880 -0.023713
C29   C     C_R   0.517823 0.004944 0.073710 -0.012269
C30   C     C_R   0.498077 0.468278 0.067364 -0.023950
C31   C     C_R   0.384973 0.970622 0.968376 -0.024905
C32   C     C_R   0.967607 0.394385 0.953071 -0.004066
C33   C     C_R   0.601022 0.547075 0.951927 -0.002234
C34   C     C_R   0.452264 0.514345 0.851469 0.539372
C35   C     C_R   0.986941 0.401469 0.027113 -0.028183
C36   C     C_R   0.393564 0.953817 0.042049 -0.021951
C37   C     C_R   0.592076 0.575411 0.023705 -0.019269
C38   C     C_R   0.627400 0.041204 0.028817 -0.049173
C39   C     C_R   0.948927 0.595558 0.028020 -0.043258
C40   C     C_R   0.388378 0.357809 0.031811 -0.047182
C41   C     C_R   0.975093 0.611234 0.956225 -0.032575
C42   C     C_R   0.620324 0.070828 0.957318 -0.047326
C43   C     C_R   0.376435 0.361482 0.958959 -0.044563
C44   C     C_R   0.280694 0.991173 0.944724 0.012480
C45   C     C_R   0.060944 0.544515 0.850836 0.547275
C46   C     C_R   0.933614 0.272912 0.915936 0.026836
C47   C     C_R   0.706647 0.638467 0.909934 0.016588
C48   C     C_R   0.030654 0.315281 0.055114 0.011278
C49   C     C_R   0.279361 0.901554 0.082771 0.004039
C50   C     C_R   0.653220 0.713766 0.041603 0.020581
C51   C     C_R   0.183510 0.978202 0.993856 -0.124538
C52   C     C_R   0.946964 0.173539 0.950041 -0.124460
C53   C     C_R   0.757313 0.774776 0.924769 -0.107719
C54   C     C_R   0.015404 0.204769 0.013805 -0.117817
C55   C     C_R   0.179635 0.925567 0.061063 -0.113995
C56   C     C_R   0.478236 0.933859 0.853749 0.547142
C57   C     C_R   0.739094 0.811134 0.991535 -0.131019
C58   C     C_R   0.513242 0.992543 0.573135 0.005424
C59   C     C_R   0.998284 0.515529 0.575652 0.007320
C60   C     C_R   0.477769 0.483825 0.573538 0.006233
C61   C     C_R   0.987690 0.497673 0.426995 -0.000619
C62   C     C_R   0.504618 0.005814 0.424902 0.006908
C63   C     C_R   0.503576 0.495777 0.425463 -0.000680
C64   C     C_R   0.605950 0.974109 0.529348 0.010561
C65   C     C_R   0.008300 0.626042 0.533220 0.007834
C66   C     C_R   0.367667 0.393082 0.528925 0.009414
C67   C     C_R   0.432592 0.048926 0.467724 -0.156128
C68   C     C_R   0.036821 0.625443 0.460733 -0.000033
C69   C     C_R   0.574353 0.947325 0.456947 -0.001422
C70   C     C_R   0.375863 0.427648 0.456701 -0.001188
C71   C     C_1   0.742865 0.050211 0.061741 0.215389
C72   C     C_1   0.911879 0.686722 0.061696 0.224391
C73   C     C_1   0.283185 0.246516 0.070691 0.228232
C74   C     C_1   0.991967 0.732563 0.921033 0.229708
C75   C     C_1   0.658713 0.212615 0.947897 0.191968
C76   C     C_1   0.254161 0.264592 0.925220 0.225502
C77   C     C_1   0.283622 0.043632 0.874520 0.282688
C78   C     C_R   0.946655 0.380672 0.469220 -0.158446
C79   C     C_1   0.871208 0.242303 0.846673 0.247375
C80   C     C_1   0.738192 0.593629 0.844120 0.262512
C81   C     C_1   0.094757 0.340584 0.123088 0.261419
C82   C     C_1   0.255349 0.802441 0.136967 0.214128
C83   C     C_1   0.625832 0.756019 0.108366 0.250547
C84   C     C_1   0.803084 0.051312 0.613327 0.215571
C85   C     C_1   0.930236 0.741089 0.621552 0.217794
C86   C     C_1   0.243858 0.192505 0.612133 0.209953
C87   C     C_1   0.185238 0.768780 0.363071 0.219337
C88   C     C_1   0.565454 0.807751 0.352699 0.226055
C89   C     C_R   0.616727 0.562077 0.469341 -0.157584
C90   C     C_1   0.251882 0.447601 0.353497 0.224586
Cr1   Cr    Cr6+3 0.768550 0.541320 0.250660 1.074139
Cr2   Cr    Cr6+3 0.458680 0.227230 0.250660 1.071756
Cr3   Cr    Cr6+3 0.772770 0.231450 0.250660 1.078312
Cr4   Cr    Cr6+3 0.541320 0.768550 0.749340 1.075149
Cr5   Cr    Cr6+3 0.227230 0.458680 0.749340 1.099902
Cr6   Cr    Cr6+3 0.231450 0.772770 0.749340 1.102816
H1    H     H_    0.106542 0.001832 0.979831 0.142657
H2    H     H_    0.955754 0.307173 0.572168 0.156564
H3    H     H_    0.357885 0.046264 0.571512 0.156405
H4    H     H_    0.686632 0.635016 0.573657 0.153614
H5    H     H_    0.868705 0.913221 0.529136 0.108824
H6    H     H_    0.075035 0.955727 0.543976 0.113551
H7    H     H_    0.043078 0.130844 0.525918 0.106803
H8    H     H_    0.161886 0.964891 0.425497 0.122430
H9    H     H_    0.782980 0.825919 0.411579 0.125914
H10   H     H_    0.050333 0.223281 0.408596 0.125449
H11   H     H_    0.918160 0.077807 0.923796 0.124820
H12   H     H_    0.816881 0.852806 0.886494 0.152546
H13   H     H_    0.032611 0.127008 0.034823 0.152692
H14   H     H_    0.107951 0.916741 0.099674 0.181042
H15   H     H_    0.809538 0.912098 0.004197 0.136049
H16   H     H_    0.382872 0.100253 0.445240 0.143337
H17   H     H_    0.899397 0.279613 0.446144 0.141728
H18   H     H_    0.716978 0.608962 0.447749 0.141764
N1    N     N_1   0.822808 0.048067 0.098416 -0.275775
N2    N     N_1   0.146185 0.360754 0.177730 -0.211502
N3    N     N_1   0.235657 0.718444 0.177941 -0.214209
N4    N     N_1   0.602970 0.789231 0.161959 -0.216121
N5    N     N_1   0.866453 0.110068 0.662001 -0.258078
N6    N     N_1   0.871894 0.741958 0.671219 -0.253339
N7    N     N_1   0.238747 0.127985 0.660940 -0.253649
N8    N     N_1   0.253740 0.785491 0.315163 -0.229120
N9    N     N_1   0.514847 0.750242 0.301200 -0.208355
N10   N     N_1   0.247387 0.504489 0.303609 -0.201032
N11   N     N_1   0.885998 0.757831 0.093700 -0.296024
N12   N     N_1   0.206227 0.164279 0.108416 -0.300445
N13   N     N_1   0.008366 0.825197 0.887173 -0.307502
N14   N     N_1   0.684181 0.324862 0.940564 -0.321174
N15   N     N_1   0.161418 0.193158 0.891907 -0.284978
N16   N     N_1   0.288066 0.084097 0.817592 -0.202128
N17   N     N_1   0.820286 0.218357 0.791743 -0.232129
N18   N     N_1   0.762475 0.556064 0.792196 -0.237542
O1    O     O_R   0.910960 0.572410 0.171010 -0.491085
O2    O     O_R   0.528530 0.639750 0.824400 -0.505207
O3    O     O_R   0.111220 0.471470 0.824400 -0.498157
O4    O     O_R   0.360250 0.888780 0.824400 -0.498683
O5    O     O_R   0.909330 0.572400 0.331540 -0.516803
O6    O     O_R   0.427600 0.336930 0.331540 -0.512095
O7    O     O_R   0.663070 0.090670 0.331540 -0.516737
O8    O     O_R   0.572400 0.909330 0.668460 -0.501801
O9    O     O_R   0.336930 0.427600 0.668460 -0.505487
O10   O     O_R   0.090670 0.663070 0.668460 -0.504499
O11   O     O_R   0.638240 0.528520 0.324410 -0.507731
O12   O     O_R   0.427590 0.338550 0.171010 -0.477419
O13   O     O_R   0.471480 0.109720 0.324410 -0.503899
O14   O     O_R   0.890280 0.361760 0.324410 -0.503945
O15   O     O_R   0.528520 0.638240 0.675590 -0.488405
O16   O     O_R   0.109720 0.471480 0.675590 -0.490028
O17   O     O_R   0.361760 0.890280 0.675590 -0.486883
O18   O     O_3   0.666667 0.333333 0.250630 -0.310131
O19   O     O_3   0.333333 0.666667 0.749370 -0.308181
O20   O     O_R   0.661450 0.089040 0.171010 -0.476552
O21   O     O_R   0.572410 0.910960 0.828990 -0.496787
O22   O     O_R   0.338550 0.427590 0.828990 -0.488567
O23   O     O_R   0.089040 0.661450 0.828990 -0.491687
O24   O     O_R   0.639750 0.528530 0.175600 -0.480837
O25   O     O_R   0.471470 0.111220 0.175600 -0.492471
O26   O     O_R   0.888780 0.360250 0.175600 -0.487464

loop_
_geom_bond_atom_site_label_1
_geom_bond_atom_site_label_2
_ccdc_geom_bond_type
C25   C31   A    
C51   H1    S    
C80   N18   T    
C12   C29   S    
C85   N6    T    
Cr4   O8    S    
C12   O20   A    
C61   C68   A    
C25   C56   S    
Cr2   O6    S    
C39   C41   A    
C66   C70   A    
C24   O8    A    
C48   C54   A    
C29   C36   A    
C42   C75   S    
C19   O13   A    
C6    C85   S    
C62   C67   A    
C2    C78   A    
C21   O15   A    
C83   N4    T    
C44   C77   S    
C9    C16   A    
C9    C69   A    
C38   C42   A    
C84   N5    T    
C9    C88   S    
C46   C79   S    
C18   C63   S    
Cr6   O23   S    
C34   O2    A    
C19   C62   S    
C73   N12   T    
C23   O26   A    
C46   C52   A    
C6    C65   A    
C43   C76   S    
C48   C81   S    
C75   N14   T    
C76   N15   T    
C20   C61   S    
C18   O6    A    
C49   C82   S    
C26   C45   S    
C41   C74   S    
Cr1   O5    S    
C7    C14   A    
C28   C35   A    
C29   C38   A    
C39   C72   S    
C45   O23   A    
C12   O25   A    
C47   C53   A    
C60   C66   A    
C14   C17   A    
C22   O10   A    
Cr3   O18   S    
C32   C46   A    
C47   C80   S    
C88   N9    T    
C35   C48   A    
C56   O4    A    
C52   C54   A    
C50   C83   S    
Cr1   O11   S    
C34   O22   A    
C27   C34   S    
C58   C64   A    
C45   O3    A    
C31   C44   A    
C23   O1    A    
C71   N1    T    
C32   C35   A    
C52   H11   S    
C21   C60   S    
Cr6   O4    S    
C22   C59   S    
C5    C84   S    
C53   C57   A    
C26   C32   A    
C28   C39   A    
Cr4   O19   S    
C49   C55   A    
Cr6   O19   S    
C27   C33   A    
C62   C69   A    
Cr2   O25   S    
C20   O5    A    
C1    O24   A    
Cr3   O7    S    
C27   C43   A    
C87   N8    T    
C11   C16   A    
C74   N13   T    
Cr1   O1    S    
C63   C70   A    
C61   C78   A    
C65   C68   A    
C79   N17   T    
C63   C89   A    
C86   N7    T    
Cr5   O3    S    
C30   C40   A    
Cr3   O14   S    
C11   H5    S    
C23   C28   S    
C2    H2    S    
C16   H9    S    
C10   C70   A    
C44   C51   A    
C19   O7    A    
C22   O16   A    
Cr5   O9    S    
C8    C15   A    
C4    H4    S    
C55   H14   S    
Cr2   O18   S    
C15   H8    S    
C20   O14   A    
C78   H17   S    
Cr5   O19   S    
C4    C89   A    
Cr4   O15   S    
C38   C71   S    
C18   O11   A    
Cr2   O13   S    
C2    C59   A    
C50   C57   A    
C90   N10   T    
C3    C67   A    
Cr5   O16   S    
C56   O21   A    
C4    C60   A    
C25   C42   A    
Cr1   O18   S    
C13   H6    S    
C5    C11   A    
C54   H13   S    
C64   C69   A    
C72   N11   T    
C5    C64   A    
Cr5   O22   S    
C40   C43   A    
C8    C87   S    
C8    C68   A    
C13   C15   A    
C89   H18   S    
C21   O9    A    
Cr1   O24   S    
C1    O12   A    
C17   H10   S    
C59   C65   A    
C7    C66   A    
C37   C50   A    
C53   H12   S    
C14   H7    S    
C57   H15   S    
Cr4   O21   S    
C33   C47   A    
Cr6   O17   S    
C81   N2    T    
C1    C30   S    
Cr4   O2    S    
C51   C55   A    
C77   N16   T    
Cr3   O26   S    
Cr2   O12   S    
C33   C37   A    
C24   O17   A    
Cr6   O10   S    
C7    C86   S    
C3    C58   A    
C3    H3    S    
C67   H16   S    
C10   C90   S    
C30   C37   A    
C24   C58   S    
C31   C36   A    
Cr3   O20   S    
C10   C17   A    
C82   N3    T    
C40   C73   S    
C36   C49   A    
C26   C41   A    
C6    C13   A    
