data_mof_unit_29166.cif
_audit_creation_date              2012-12-11T14:52:51-0500
_audit_creation_method            fapswitch 2.2
_symmetry_space_group_name_H-M    P1
_symmetry_Int_Tables_number       1
_space_group_crystal_system       triclinic
_cell_length_a                    8.230502
_cell_length_b                    15.172144
_cell_length_c                    26.987495
_cell_angle_alpha                 97.58171
_cell_angle_beta                  92.364084
_cell_angle_gamma                 80.665806
_cell_volume                      3295.67310046

loop_
_atom_site_label
_atom_site_type_symbol
_atom_type_description
_atom_site_fract_x
_atom_site_fract_y
_atom_site_fract_z
_atom_type_partial_charge
Ba1   Ba    Ba6+2 0.860900 0.457020 0.523210 1.750647
Ba2   Ba    Ba6+2 0.328940 0.542910 0.476780 1.747263
C1    C     C_3   0.648848 0.157441 0.690942 0.334485
C2    C     C_R   0.908746 0.580568 0.182324 0.595413
C3    C     C_2   0.736341 0.525390 0.270737 -0.030199
C4    C     C_3   0.145400 0.270828 0.657068 0.357352
C5    C     C_3   0.692059 0.518966 0.324022 -0.025920
C6    C     C_1   0.984531 0.482837 0.343145 0.031875
C7    C     C_2   0.025620 0.479293 0.295538 -0.071971
C8    C     C_2   0.895590 0.503426 0.256506 0.197298
C9    C     C_R   0.001825 0.497588 0.101941 -0.085687
C10   C     C_R   0.030628 0.418018 0.124680 -0.093301
C11   C     C_R   0.078188 0.335862 0.094717 -0.048778
C12   C     C_3   0.597435 0.248628 0.672223 0.262201
C13   C     C_R   0.940349 0.579436 0.131062 -0.017630
C14   C     C_2   0.839720 0.525555 0.358781 -0.314451
C15   C     C_2   0.341880 0.470439 0.641491 -0.265917
C16   C     C_3   0.140470 0.248927 0.710273 -0.205880
C17   C     C_R   0.154425 0.414932 0.972003 0.033114
C18   C     C_R   0.022324 0.572701 0.974742 0.022604
C19   C     C_R   0.107803 0.493212 0.947953 0.056459
C20   C     C_R   0.266695 0.344358 0.947312 -0.007590
C21   C     C_R   0.309154 0.343883 0.897756 -0.006768
C22   C     C_R   0.248141 0.416608 0.871511 -0.035217
C23   C     C_3   0.565644 0.780863 0.645565 0.658884
C24   C     C_R   0.150487 0.492493 0.896984 -0.081907
C25   C     C_R   0.097778 0.568094 0.871859 -0.041598
C26   C     C_R   0.141345 0.566409 0.821420 0.631229
C27   C     C_R   0.287467 0.416084 0.820904 0.601125
C28   C     C_3   0.218679 0.266611 0.415571 0.330730
C29   C     C_2   0.440635 0.465136 0.730352 -0.092533
C30   C     C_3   0.486165 0.470803 0.677299 0.102954
C31   C     C_1   0.199789 0.515836 0.657271 0.048752
C32   C     C_2   0.155799 0.519459 0.704717 -0.089912
C33   C     C_2   0.281449 0.490484 0.744291 0.190033
C34   C     C_3   0.471614 0.865580 0.677338 0.159409
C35   C     C_R   0.097856 0.412440 0.021186 -0.056500
C36   C     C_R   0.033172 0.495272 0.049986 0.020184
C37   C     C_R   0.996785 0.575696 0.027045 0.038390
C38   C     C_R   0.100244 0.331370 0.043158 0.351085
C39   C     C_R   0.910196 0.658490 0.108280 -0.046642
C40   C     C_3   0.220595 0.165593 0.403311 -0.341164
C41   C     C_R   0.968001 0.646923 0.948234 -0.088691
C42   C     C_R   0.004184 0.644344 0.897927 -0.029279
C43   C     C_R   0.937454 0.656789 0.057519 -0.089677
C44   C     C_R   0.753826 0.768584 0.488336 -0.274630
C45   C     C_3   0.909657 0.791879 0.352308 0.273683
C46   C     C_R   0.841630 0.827006 0.469244 -0.012155
C47   C     C_R   0.780633 0.919458 0.473984 -0.124131
C48   C     C_R   0.626211 0.954174 0.496266 0.026208
C49   C     C_R   0.540197 0.891398 0.514715 -0.056107
C50   C     C_R   0.609909 0.801196 0.514722 -0.020509
C51   C     C_R   0.409204 0.088108 0.527526 -0.069131
C52   C     C_3   0.979282 0.730952 0.582023 0.342688
C53   C     C_R   0.349164 0.179907 0.535050 -0.000055
C54   C     C_R   0.580420 0.211498 0.492431 0.077057
C55   C     C_R   0.641366 0.118576 0.483992 -0.109253
C56   C     C_3   0.923710 0.808277 0.298191 -0.231383
C57   C     C_R   0.558979 0.054381 0.502561 0.010400
C58   C     C_R   0.437683 0.241469 0.519375 -0.285391
C59   C     C_3   0.967780 0.833446 0.592104 -0.308067
C60   C     C_3   0.718187 0.331236 0.372365 0.291467
C61   C     C_3   0.760053 0.293277 0.318230 0.261418
C62   C     C_1   0.580358 0.903737 0.716567 0.359544
C63   C     C_1   0.946377 0.901500 0.295524 0.308368
C64   C     C_3   0.474891 0.774452 0.367832 0.340279
C65   C     C_3   0.439958 0.866382 0.349470 -0.345457
C66   C     C_R   0.999767 0.421338 0.176290 0.655442
H1    H     H_    0.547226 0.237417 0.633372 -0.074421
H2    H     H_    0.829985 0.352437 0.391101 -0.060433
H3    H     H_    0.618184 0.390055 0.373685 0.042756
H4    H     H_    0.753475 0.118192 0.668709 0.053534
H5    H     H_    0.843357 0.227694 0.317379 0.055726
H6    H     H_    0.825741 0.339296 0.301046 -0.015633
H7    H     H_    0.501357 0.288535 0.697282 0.025507
H8    H     H_    0.543674 0.119739 0.685802 0.106300
H9    H     H_    0.670382 0.799362 0.627393 -0.137711
H10   H     H_    0.366157 0.846521 0.695754 0.077719
H11   H     H_    0.118680 0.312376 0.736407 0.092475
H12   H     H_    0.297400 0.138647 0.370194 0.160845
H13   H     H_    0.885912 0.721675 0.352241 0.014126
H14   H     H_    0.804603 0.840206 0.369219 -0.025657
H15   H     H_    0.029599 0.761593 0.280567 0.132787
H16   H     H_    0.809305 0.795710 0.277144 0.115051
H17   H     H_    0.584500 0.771761 0.393266 -0.048960
H18   H     H_    0.366455 0.766664 0.388866 0.124270
H19   H     H_    0.424778 0.920023 0.381961 0.071332
H20   H     H_    0.324935 0.871891 0.326312 0.150966
H21   H     H_    0.039259 0.323081 0.651224 0.097578
H22   H     H_    0.542956 0.876241 0.326581 0.111579
H23   H     H_    0.272024 0.130426 0.435217 0.032821
H24   H     H_    0.152541 0.458271 0.284454 0.162325
H25   H     H_    0.087396 0.273620 0.110976 0.158459
H26   H     H_    0.537292 0.447887 0.757629 0.136316
H27   H     H_    0.392325 0.286548 0.880266 0.149264
H28   H     H_    0.327079 0.289849 0.966517 0.154230
H29   H     H_    0.639109 0.540396 0.243251 0.106566
H30   H     H_    0.864685 0.722639 0.129749 0.130125
H31   H     H_    0.893951 0.707744 0.965190 0.089342
H32   H     H_    0.260097 0.297967 0.652289 -0.132282
H33   H     H_    0.959561 0.703233 0.879579 0.141955
H34   H     H_    0.093134 0.151564 0.395239 0.120992
H35   H     H_    0.028533 0.542099 0.715012 0.177098
H36   H     H_    0.914649 0.720972 0.043404 0.086563
H37   H     H_    0.827085 0.563519 0.395836 0.073645
H38   H     H_    0.349771 0.425728 0.606497 0.039059
H39   H     H_    0.333395 0.045417 0.540965 0.143162
H40   H     H_    0.855731 0.962074 0.459853 0.074831
H41   H     H_    0.750206 0.098454 0.461848 0.072263
H42   H     H_    0.419245 0.910034 0.529121 0.153265
H43   H     H_    0.388940 0.312602 0.524820 0.060758
H44   H     H_    0.039099 0.210189 0.713842 0.190119
H45   H     H_    0.856813 0.712504 0.572149 -0.064328
H46   H     H_    0.802915 0.697482 0.484787 0.054271
H47   H     H_    0.259247 0.208912 0.720578 0.172143
H48   H     H_    0.345834 0.279892 0.423119 0.007690
H49   H     H_    0.142898 0.290705 0.449215 0.039807
H50   H     H_    0.556099 0.150993 0.306567 0.328151
H51   H     H_    0.829380 0.742061 0.740147 0.364285
H52   H     H_    0.190598 0.015419 0.691254 0.359040
H53   H     H_    0.587681 0.156387 0.824268 0.380988
H54   H     H_    0.022663 0.134892 0.057956 0.356720
H55   H     H_    0.062222 0.706367 0.550034 0.061717
H56   H     H_    0.838022 0.867961 0.591917 0.087323
H57   H     H_    0.030264 0.857863 0.562032 0.132754
H58   H     H_    0.025948 0.854165 0.628907 0.189910
N1    N     N_R   0.938253 0.502007 0.204441 -0.429964
N2    N     N_R   0.234559 0.490633 0.796133 -0.430057
N3    N     N_1   0.665942 0.933431 0.747393 -0.174662
N4    N     N_1   0.964337 0.974967 0.293493 -0.264172
O1    O     O_2   0.905540 0.548000 0.618290 -0.392694
O2    O     O_2   0.182652 0.820347 0.468237 -0.491827
O3    O     O_3   0.056139 0.804799 0.378746 -0.600327
O4    O     O_3   0.137550 0.547930 0.558110 -0.512937
O5    O     O_3   0.574690 0.391440 0.474610 -0.492345
O6    O     O_2   0.341330 0.720570 0.525000 -0.433270
O7    O     O_3   0.457028 0.739789 0.611066 -0.593254
O8    O     O_2   0.345177 0.572118 0.327403 -0.454184
O9    O     O_3   0.503718 0.707009 0.326780 -0.604556
O10   O     O_2   0.024563 0.352073 0.195888 -0.534498
O11   O     O_2   0.368037 0.348713 0.798802 -0.557994
O12   O     O_3   0.667542 0.263837 0.395650 -0.637056
O13   O     O_2   0.854664 0.651630 0.207298 -0.608433
O14   O     O_2   0.098867 0.633267 0.800415 -0.555121
O15   O     O_3   0.688580 0.383890 0.587540 -0.469030
O16   O     O_2   0.824076 0.444779 0.672651 -0.459621
O17   O     O_3   0.037641 0.692328 0.624949 -0.560878
O18   O     O_3   0.735739 0.291706 0.672961 -0.593250
O19   O     O_2   0.848360 0.279400 0.474970 -0.471330
O20   O     O_3   0.104690 0.337720 0.562900 -0.521694
O21   O     O_2   0.010487 0.178570 0.532093 -0.472092
O22   O     O_2   0.469538 0.366690 0.280088 -0.291619
O23   O     O_3   0.135631 0.193396 0.623070 -0.541427
O24   O     O_2   0.627726 0.238924 0.228879 -0.229759
O25   O     O_3   0.476028 0.207070 0.305639 -0.469620
O26   O     O_2   0.533779 0.708698 0.731818 -0.332758
O27   O     O_2   0.634695 0.608872 0.657972 -0.293322
O28   O     O_3   0.836714 0.707817 0.706216 -0.507498
O29   O     O_2   0.525556 0.985580 0.617797 -0.371265
O30   O     O_2   0.269775 0.920958 0.602531 -0.352288
O31   O     O_3   0.286375 0.039138 0.680174 -0.494233
O32   O     O_2   0.850170 0.096987 0.764335 -0.261103
O33   O     O_2   0.752511 0.259471 0.773195 -0.263705
O34   O     O_2   0.284150 0.451970 0.381680 -0.437783
O35   O     O_3   0.545849 0.154272 0.789223 -0.469906
O36   O     O_2   0.020301 0.235462 0.955899 -0.227708
O37   O     O_2   0.250625 0.166237 0.005785 -0.281511
O38   O     O_3   0.953220 0.174209 0.036212 -0.459487
O39   O     O_3   0.052160 0.451990 0.441880 -0.511770
O40   O     O_3   0.501140 0.616030 0.412450 -0.495830
O41   O     O_3   0.154274 0.307800 0.374081 -0.596632
O42   O     O_3   0.615020 0.608480 0.525380 -0.465015
O43   O     O_3   0.085020 0.662210 0.437090 -0.478584
P1    P     P_3+3 0.070480 0.574800 0.610950 1.110226
P2    P     P_3+3 0.668430 0.292880 0.460530 0.992014
P3    P     P_3+3 0.147851 0.221237 0.562538 0.999683
P4    P     P_3+3 0.119230 0.425130 0.389040 1.034671
P5    P     P_3+3 0.040095 0.779715 0.439554 0.939357
P6    P     P_3+3 0.677793 0.397391 0.652908 1.030963
P7    P     P_3+3 0.519942 0.721047 0.547862 1.034465
P8    P     P_3+3 0.509870 0.601445 0.347295 0.999124
S1    S     S_3+6 0.579243 0.277626 0.281318 -0.021660
S2    S     S_3+6 0.641577 0.699253 0.686938 -0.090926
S3    S     S_3+6 0.388168 0.953436 0.641778 -0.140912
S4    S     S_3+6 0.706014 0.168414 0.756034 -0.023921
S5    S     S_3+6 0.084731 0.225044 0.008077 -0.040661

loop_
_geom_bond_atom_site_label_1
_geom_bond_atom_site_label_2
_ccdc_geom_bond_type
O20   P3    S    
C19   C24   A    
C40   H12   S    
C12   O18   S    
Ba2   O39   S    
Ba1   O15   S    
C52   H55   S    
C64   H17   S    
C46   P5    S    
C63   N4    T    
C51   C57   A    
O25   S1    S    
C28   H48   S    
C10   C66   A    
O23   P3    S    
C65   H20   S    
Ba2   O4    S    
C59   H56   S    
C23   H9    S    
C48   C57   S    
C17   C19   A    
C41   H31   S    
Ba1   Ba2   S    
C35   C38   A    
O1    P1    D    
Ba2   O43   S    
C36   C37   A    
O3    P5    S    
C55   C57   A    
C38   S5    S    
C56   H15   S    
C52   H45   S    
C44   C50   A    
C54   C55   A    
C60   H2    S    
C32   C33   S    
C45   H14   S    
O8    P8    D    
C7    H24   S    
C22   C27   A    
C11   C38   A    
C17   C35   A    
C9    C13   A    
C6    P4    S    
C55   H41   S    
C64   O9    S    
C21   H27   S    
C16   H11   S    
C60   H3    S    
C21   C22   A    
C30   P6    S    
Ba1   O19   S    
C59   H58   S    
C26   O14   D    
Ba2   P4    S    
O29   S3    D    
C7    C8    S    
O9    P8    S    
C37   C43   A    
O42   P7    S    
C64   C65   S    
C6    C14   D    
C61   S1    S    
C53   C58   A    
C45   O3    S    
C33   N2    S    
C15   C31   D    
C60   O12   S    
C1    S4    S    
C2    O13   D    
O39   P4    S    
O26   S2    D    
C48   C49   A    
C47   H40   S    
C16   H44   S    
C51   C53   A    
C4    C16   S    
C44   C46   A    
Ba1   P1    S    
O17   P1    S    
O38   S5    S    
C5    P8    S    
C54   P2    S    
C49   C50   A    
Ba1   O20   S    
C17   C20   A    
H54   O38   S    
C13   C39   A    
Ba2   O34   S    
C3    C5    S    
C18   C37   A    
C44   H46   S    
C6    C7    D    
C61   H5    S    
O2    P5    D    
O37   S5    D    
C65   H22   S    
O35   S4    S    
C54   C58   A    
C11   H25   S    
O19   P2    D    
C61   H6    S    
O5    P2    S    
O41   P4    S    
C9    C36   A    
C23   O7    S    
C41   C42   A    
C50   P7    S    
C35   C36   A    
C1    H8    S    
C43   H36   S    
C56   H16   S    
C51   H39   S    
C56   C63   S    
C29   C30   S    
C42   H33   S    
C27   O11   D    
O15   P6    S    
C60   C61   S    
C31   C32   D    
C24   C25   A    
H50   O25   S    
C18   C19   A    
C62   N3    T    
C31   P1    S    
C66   N1    Am   
C1    C12   S    
C23   S2    S    
H52   O31   S    
Ba2   O40   S    
C34   S3    S    
C14   H37   S    
C46   C47   A    
C52   C59   S    
C3    H29   S    
O18   P6    S    
O40   P8    S    
C12   H1    S    
C29   C33   D    
C66   O10   D    
O22   S1    D    
C8    N1    S    
C4    H21   S    
Ba1   O4    S    
C18   C41   A    
O28   S2    S    
Ba1   P2    S    
O21   P3    D    
O4    P1    S    
C2    N1    Am   
O36   S5    D    
C20   H28   S    
C20   C21   A    
C5    C14   S    
C32   H35   S    
C22   C24   A    
Ba1   O1    S    
C16   H47   S    
C64   H18   S    
O32   S4    D    
C9    C10   A    
O12   P2    S    
C28   H49   S    
C53   P3    S    
C49   H42   S    
C29   H26   S    
H53   O35   S    
O6    P7    D    
Ba1   O42   S    
C65   H19   S    
Ba2   O5    S    
O33   S4    D    
C12   H7    S    
C2    C13   A    
C1    H4    S    
C3    C8    D    
C58   H43   S    
C34   H10   S    
C15   H38   S    
C40   H34   S    
C45   C56   S    
O7    P7    S    
O43   P5    S    
O31   S3    S    
H51   O28   S    
O24   S1    D    
Ba1   O39   S    
C4    H32   S    
O16   P6    D    
C45   H13   S    
C25   C42   A    
Ba2   O6    S    
C28   O41   S    
C4    O23   S    
C23   C34   S    
C26   N2    Am   
C10   C11   A    
C47   C48   A    
C27   N2    Am   
Ba1   O5    S    
C25   C26   A    
C15   C30   S    
C39   C43   A    
C39   H30   S    
C28   C40   S    
C59   H57   S    
O27   S2    D    
C34   C62   S    
O30   S3    D    
O34   P4    D    
C40   H23   S    
Ba2   O42   S    
C52   O17   S    
