data_mof_unit_63766.cif
_audit_creation_date              2012-12-10T17:49:31-0500
_audit_creation_method            fapswitch 2.2
_symmetry_space_group_name_H-M    P1
_symmetry_Int_Tables_number       1
_space_group_crystal_system       triclinic
_cell_length_a                    23.529014
_cell_length_b                    23.523461
_cell_length_c                    46.995157
_cell_angle_alpha                 90.154607
_cell_angle_beta                  90.114755
_cell_angle_gamma                 90.008656
_cell_volume                      26010.9129211

loop_
_atom_site_label
_atom_site_type_symbol
_atom_type_description
_atom_site_fract_x
_atom_site_fract_y
_atom_site_fract_z
_atom_type_partial_charge
C1    C     C_R   0.999993 0.390217 0.500061 0.951978
C2    C     C_R   0.513020 0.995936 0.353750 0.141356
C3    C     C_R   0.499698 0.000097 0.764352 -0.018144
C4    C     C_R   0.499862 0.000182 0.734446 -0.017572
C5    C     C_R   0.002630 0.492328 0.734349 -0.018242
C6    C     C_R   0.512088 0.986608 0.264542 -0.018319
C7    C     C_R   0.999888 0.500384 0.265559 -0.017405
C8    C     C_R   0.897848 0.517258 0.235686 -0.163515
C9    C     C_R   0.408992 0.970171 0.235468 -0.162954
C10   C     C_R   0.102044 0.483817 0.235900 -0.163487
C11   C     C_R   0.613689 0.999581 0.234046 -0.162411
C12   C     C_R   0.898602 0.493935 0.763503 -0.162337
C13   C     C_R   0.004184 0.492076 0.645291 0.144032
C14   C     C_R   0.484566 0.102467 0.764386 -0.163407
C15   C     C_R   0.105498 0.494155 0.764705 -0.163222
C16   C     C_R   0.514828 0.897728 0.764037 -0.163531
C17   C     C_R   0.483984 0.102438 0.734759 -0.162755
C18   C     C_R   0.899177 0.492036 0.733890 -0.162758
C19   C     C_R   0.515729 0.897924 0.734414 -0.162950
C20   C     C_R   0.106079 0.492805 0.735088 -0.163471
C21   C     C_R   0.409766 0.971626 0.265093 -0.161146
C22   C     C_R   0.897926 0.517913 0.265313 -0.162969
C23   C     C_R   0.614411 0.001358 0.263690 -0.162156
C24   C     C_R   0.500146 0.000391 0.645380 0.138060
C25   C     C_R   0.101853 0.482868 0.265523 -0.162998
C26   C     C_R   0.002091 0.448101 0.369232 0.132323
C27   C     C_R   0.537084 0.951986 0.369926 0.124417
C28   C     C_R   0.997400 0.551940 0.369390 0.131903
C29   C     C_R   0.486650 0.042529 0.367069 0.101895
C30   C     C_R   0.016606 0.543573 0.631653 0.105174
C31   C     C_R   0.551948 0.996382 0.630720 0.132692
C32   C     C_R   0.990026 0.443138 0.629663 0.134809
C33   C     C_R   0.448319 0.004360 0.630649 0.132808
C34   C     C_R   0.451708 0.980309 0.868042 0.095325
C35   C     C_R   0.499610 0.999910 0.853426 0.150797
C36   C     C_R   0.016885 0.449373 0.868270 0.098472
C37   C     C_R   0.547636 0.019491 0.868095 0.094927
C38   C     C_R   0.983726 0.547593 0.867811 0.099763
C39   C     C_R   0.515960 0.041104 0.132301 0.105544
C40   C     C_R   0.019778 0.548378 0.131966 0.094588
C41   C     C_R   0.495830 0.939328 0.129142 0.137413
C42   C     C_R   0.980322 0.452557 0.131923 0.094329
C43   C     C_R   0.004425 0.448155 0.399036 0.312981
C44   C     C_R   0.536246 0.955500 0.399690 0.310354
C45   C     C_R   0.995155 0.551842 0.399189 0.313582
C46   C     C_R   0.000403 0.498165 0.853356 0.146804
C47   C     C_R   0.478960 0.042160 0.396776 0.361717
C48   C     C_R   0.018034 0.545527 0.601737 0.331929
C49   C     C_R   0.551735 0.993780 0.600916 0.311727
C50   C     C_R   0.984395 0.446868 0.600007 0.295714
C51   C     C_R   0.448459 0.006784 0.600852 0.311731
C52   C     C_R   0.453613 0.975802 0.897859 0.355517
C53   C     C_R   0.021955 0.451766 0.898048 0.354919
C54   C     C_R   0.545955 0.024065 0.897920 0.356011
C55   C     C_R   0.978762 0.546553 0.897628 0.353402
C56   C     C_R   0.516099 0.044745 0.102380 0.331248
C57   C     C_R   0.507745 0.988133 0.145390 0.141580
C58   C     C_R   0.024289 0.546425 0.102145 0.356583
C59   C     C_R   0.488409 0.944455 0.099607 0.294051
C60   C     C_R   0.975771 0.454201 0.102097 0.356919
C61   C     C_R   0.999831 0.499991 0.413813 -0.315424
C62   C     C_R   0.505044 0.999270 0.413171 -0.326723
C63   C     C_R   0.000271 0.497516 0.586246 -0.304943
C64   C     C_R   0.500075 0.000226 0.586189 -0.316113
C65   C     C_R   0.499833 0.999961 0.912950 -0.317821
C66   C     C_R   0.000332 0.499477 0.912917 -0.319484
C67   C     C_R   0.500612 0.996637 0.086352 -0.304909
C68   C     C_R   0.000044 0.500547 0.146583 0.151317
C69   C     C_R   0.000018 0.500237 0.087057 -0.319152
C70   C     C_3   0.946864 0.372945 0.347911 -0.712221
C71   C     C_3   0.523478 0.859703 0.348610 -0.716664
C72   C     C_3   0.052512 0.627255 0.348450 -0.711388
C73   C     C_3   0.511542 0.129812 0.343416 -0.731092
C74   C     C_3   0.978683 0.632052 0.649621 -0.719059
C75   C     C_3   0.628292 0.049810 0.652116 -0.714791
C76   C     C_3   0.033185 0.358979 0.649261 -0.720020
C77   C     C_3   0.371855 0.951119 0.651759 -0.715595
C78   C     C_3   0.362652 0.011691 0.848233 -0.724004
C79   C     C_1   0.999968 0.329758 0.500225 -0.180440
C80   C     C_3   0.978825 0.363849 0.847325 -0.730376
C81   C     C_3   0.636549 0.987953 0.848279 -0.724115
C82   C     C_3   0.021477 0.632145 0.846061 -0.728248
C83   C     C_3   0.471197 0.123902 0.152725 -0.721751
C84   C     C_3   0.988783 0.637839 0.151527 -0.720772
C85   C     C_3   0.544967 0.857870 0.148122 -0.721005
C86   C     C_3   0.011408 0.363272 0.151472 -0.721886
C87   C     C_3   0.062763 0.381496 0.418770 0.080932
C88   C     C_3   0.065672 0.317721 0.423777 -0.809031
C89   C     C_3   0.618088 0.934109 0.422971 0.115748
C90   C     C_1   0.670244 0.999975 0.499767 -0.189135
C91   C     C_3   0.649345 0.888203 0.439484 -0.784511
C92   C     C_3   0.936745 0.618400 0.419022 0.080868
C93   C     C_3   0.933669 0.682251 0.423929 -0.808881
C94   C     C_3   0.389129 0.075781 0.406107 0.077522
C95   C     C_3   0.362402 0.054828 0.433553 -0.800006
C96   C     C_3   0.088882 0.608706 0.589454 0.100878
C97   C     C_3   0.111240 0.626713 0.560500 -0.787331
C98   C     C_3   0.616534 0.932993 0.581454 0.083438
C99   C     C_3   0.679925 0.928227 0.575681 -0.806926
C100  C     C_3   0.910162 0.396298 0.581753 0.098010
C101  C     C_1   0.000069 0.670242 0.500173 -0.180066
C102  C     C_3   0.893837 0.339755 0.568282 -0.796781
C103  C     C_3   0.383650 0.067519 0.581386 0.082874
C104  C     C_3   0.320125 0.072395 0.575897 -0.807576
C105  C     C_3   0.411256 0.890691 0.909220 0.078265
C106  C     C_3   0.431169 0.863281 0.936694 -0.795515
C107  C     C_3   0.105064 0.405692 0.909569 0.073863
C108  C     C_3   0.133714 0.426423 0.936662 -0.786470
C109  C     C_3   0.588560 0.109147 0.909432 0.076963
C110  C     C_3   0.568823 0.136724 0.936928 -0.792496
C111  C     C_3   0.895868 0.593176 0.908906 0.073754
C112  C     C_R   0.609788 0.999996 0.499971 0.912269
C113  C     C_1   0.329747 0.999928 0.500202 -0.183598
C114  C     C_3   0.867678 0.573509 0.936218 -0.785351
C115  C     C_3   0.583019 0.112428 0.090538 0.099654
C116  C     C_3   0.604580 0.130149 0.061395 -0.796582
C117  C     C_3   0.109492 0.588637 0.090830 0.075010
C118  C     C_3   0.136989 0.568540 0.063400 -0.789921
C119  C     C_3   0.415374 0.891997 0.081679 0.096311
C120  C     C_3   0.400313 0.835102 0.068214 -0.803152
C121  C     C_3   0.890579 0.411791 0.090656 0.074812
C122  C     C_3   0.862989 0.431673 0.063210 -0.789819
C123  C     C_1   0.500082 0.829751 0.000326 -0.185055
C124  C     C_1   0.170264 0.499992 0.999854 -0.189232
C125  C     C_1   0.499975 0.170252 0.000301 -0.186998
C126  C     C_1   0.829736 0.500022 0.999865 -0.188727
C127  C     C_1   0.999926 0.278820 0.500296 -0.003041
C128  C     C_1   0.721178 0.999920 0.499694 -0.007595
C129  C     C_1   0.000120 0.721181 0.500173 -0.005665
C130  C     C_1   0.278814 0.999941 0.500119 -0.000821
C131  C     C_1   0.500033 0.778816 0.000276 0.008663
C132  C     C_R   0.000013 0.609782 0.500065 0.953288
C133  C     C_1   0.221192 0.499990 0.999846 0.010792
C134  C     C_1   0.500040 0.221185 0.000177 0.006727
C135  C     C_1   0.778808 0.500026 0.999919 0.010582
C136  C     C_1   0.999927 0.219298 0.500238 0.015329
C137  C     C_1   0.780700 0.999876 0.499768 0.010598
C138  C     C_1   0.000103 0.780702 0.500043 0.013909
C139  C     C_1   0.219294 0.999994 0.500086 0.011284
C140  C     C_1   0.499967 0.719295 0.000198 0.012905
C141  C     C_1   0.280711 0.499994 0.999872 0.008105
C142  C     C_1   0.500086 0.280705 0.000017 0.011495
C143  C     C_R   0.390217 0.999983 0.500281 0.915570
C144  C     C_1   0.719289 0.500018 0.000006 0.008137
C145  C     C_1   0.999954 0.168352 0.500141 -0.177890
C146  C     C_1   0.831643 0.999899 0.499875 -0.178596
C147  C     C_1   0.000061 0.831648 0.499951 -0.177796
C148  C     C_1   0.168352 0.000016 0.500069 -0.178484
C149  C     C_1   0.499955 0.668350 0.000123 -0.179254
C150  C     C_1   0.331652 0.499997 0.999913 -0.179801
C151  C     C_1   0.500074 0.331650 0.999937 -0.179303
C152  C     C_1   0.668348 0.500009 0.000050 -0.179755
C153  C     C_R   0.107863 0.000015 0.500024 0.880889
C154  C     C_R   0.500022 0.890225 0.000335 0.918875
C155  C     C_R   0.999990 0.107862 0.500038 0.880678
C156  C     C_R   0.892136 0.999964 0.499969 0.880646
C157  C     C_R   0.000011 0.892138 0.499972 0.880534
C158  C     C_R   0.607861 0.500001 0.000022 0.880829
C159  C     C_R   0.499978 0.607861 0.000035 0.880611
C160  C     C_R   0.392139 0.500000 0.999974 0.880802
C161  C     C_R   0.500026 0.392139 0.999970 0.880590
C162  C     C_R   0.999947 0.499983 0.444582 1.028451
C163  C     C_R   0.500511 0.999897 0.444331 0.972760
C164  C     C_R   0.000044 0.499653 0.555442 1.062836
C165  C     C_R   0.109783 0.499999 0.999907 0.873114
C166  C     C_R   0.500024 0.000070 0.555420 1.032030
C167  C     C_R   0.499948 0.999991 0.944278 0.984425
C168  C     C_R   0.000104 0.499897 0.944265 0.979694
C169  C     C_R   0.500080 0.999924 0.055491 1.061562
C170  C     C_R   0.000006 0.500072 0.055726 0.984456
C171  C     C_R   0.050337 0.493375 0.191077 0.544733
C172  C     C_R   0.560250 0.991318 0.189562 0.534024
C173  C     C_R   0.949700 0.507986 0.190968 0.544435
C174  C     C_R   0.459562 0.977363 0.190283 0.555643
C175  C     C_R   0.052028 0.496512 0.809152 0.542890
C176  C     C_R   0.499989 0.109777 0.000346 0.914174
C177  C     C_R   0.506119 0.949553 0.808894 0.544597
C178  C     C_R   0.950339 0.496923 0.808568 0.544322
C179  C     C_R   0.492918 0.050408 0.809068 0.544257
C180  C     C_R   0.508718 0.950188 0.689735 0.541656
C181  C     C_R   0.054338 0.491227 0.690016 0.534176
C182  C     C_R   0.491467 0.050426 0.689899 0.541766
C183  C     C_R   0.952655 0.490271 0.689431 0.555755
C184  C     C_R   0.563203 0.998057 0.308877 0.546129
C185  C     C_R   0.049747 0.490637 0.310237 0.541782
C186  C     C_R   0.462680 0.982937 0.309504 0.539563
C187  C     C_R   0.890216 0.500003 0.999875 0.873075
C188  C     C_R   0.949854 0.509660 0.310139 0.541852
C189  C     C_R   0.948662 0.508658 0.220681 -0.027203
C190  C     C_R   0.459525 0.977103 0.220034 -0.030604
C191  C     C_R   0.051284 0.492542 0.220791 -0.027336
C192  C     C_R   0.562287 0.991758 0.219311 -0.025571
C193  C     C_R   0.949827 0.495025 0.778857 -0.028713
C194  C     C_R   0.492340 0.051494 0.779356 -0.027515
C195  C     C_R   0.053685 0.494878 0.779457 -0.027569
C196  C     C_R   0.506908 0.948618 0.779180 -0.027616
C197  C     C_R   0.491661 0.051511 0.719616 -0.027722
C198  C     C_R   0.999741 0.500035 0.354618 0.138174
C199  C     C_R   0.950986 0.491343 0.719136 -0.029706
C200  C     C_R   0.508227 0.948939 0.719444 -0.027720
C201  C     C_R   0.054856 0.491975 0.719735 -0.024968
C202  C     C_R   0.461060 0.980212 0.279805 -0.028366
C203  C     C_R   0.948728 0.509440 0.280423 -0.027432
C204  C     C_R   0.563763 0.995221 0.279130 -0.030353
C205  C     C_R   0.050989 0.491169 0.280527 -0.027493
C206  C     C_R   0.999946 0.500535 0.235652 -0.018050
C207  C     C_R   0.511338 0.984927 0.234606 -0.017762
C208  C     C_R   0.002045 0.494022 0.764247 -0.018542
H1    H     H_    0.857963 0.523703 0.224608 0.189729
H2    H     H_    0.858977 0.491330 0.722625 0.189971
H3    H     H_    0.379490 0.012260 0.438991 0.229361
H4    H     H_    0.115954 0.573014 0.597351 0.136675
H5    H     H_    0.094138 0.645575 0.604002 0.154716
H6    H     H_    0.084040 0.660765 0.551435 0.259894
H7    H     H_    0.155299 0.643086 0.562729 0.201518
H8    H     H_    0.111893 0.589817 0.545802 0.272105
H9    H     H_    0.593302 0.916773 0.562526 0.177021
H10   H     H_    0.606474 0.905158 0.599974 0.137647
H11   H     H_    0.704358 0.942859 0.594573 0.253027
H12   H     H_    0.691198 0.883304 0.571072 0.210642
H13   H     H_    0.522108 0.858030 0.723312 0.190252
H14   H     H_    0.691610 0.954783 0.557119 0.265017
H15   H     H_    0.893809 0.430919 0.567985 0.173174
H16   H     H_    0.888591 0.399507 0.602770 0.136327
H17   H     H_    0.909102 0.304160 0.581765 0.255587
H18   H     H_    0.846899 0.336912 0.566219 0.207908
H19   H     H_    0.913086 0.336012 0.546814 0.262406
H20   H     H_    0.406448 0.083430 0.562349 0.177241
H21   H     H_    0.394254 0.095570 0.599847 0.138023
H22   H     H_    0.296142 0.058128 0.594915 0.252781
H23   H     H_    0.308870 0.117283 0.571290 0.211430
H24   H     H_    0.146706 0.492495 0.724291 0.190141
H25   H     H_    0.307864 0.045592 0.557424 0.264501
H26   H     H_    0.438944 0.875316 0.891508 0.138202
H27   H     H_    0.367602 0.875213 0.904586 0.162858
H28   H     H_    0.402674 0.875866 0.954411 0.274213
H29   H     H_    0.430244 0.816280 0.934481 0.208957
H30   H     H_    0.475389 0.876750 0.941412 0.228639
H31   H     H_    0.121354 0.431254 0.891313 0.142231
H32   H     H_    0.118562 0.361088 0.905739 0.163506
H33   H     H_    0.120404 0.399585 0.954849 0.276080
H34   H     H_    0.180591 0.423563 0.934384 0.208804
H35   H     H_    0.370031 0.966462 0.276393 0.189777
H36   H     H_    0.122047 0.471415 0.940712 0.228698
H37   H     H_    0.560817 0.124499 0.891723 0.138336
H38   H     H_    0.632224 0.124514 0.904860 0.163007
H39   H     H_    0.597363 0.124159 0.954654 0.274784
H40   H     H_    0.569835 0.183713 0.934789 0.208868
H41   H     H_    0.524594 0.123363 0.941576 0.229030
H42   H     H_    0.879292 0.566921 0.890861 0.140650
H43   H     H_    0.882299 0.637623 0.904790 0.163902
H44   H     H_    0.881645 0.600755 0.954232 0.276495
H45   H     H_    0.820776 0.576695 0.934103 0.208390
H46   H     H_    0.858099 0.524837 0.276307 0.189968
H47   H     H_    0.879039 0.528544 0.940453 0.227775
H48   H     H_    0.611977 0.078741 0.098956 0.137468
H49   H     H_    0.586218 0.150233 0.104632 0.155562
H50   H     H_    0.575849 0.162487 0.051963 0.260045
H51   H     H_    0.647812 0.148675 0.063448 0.201539
H52   H     H_    0.607014 0.092668 0.047131 0.272813
H53   H     H_    0.124751 0.560990 0.108569 0.137983
H54   H     H_    0.125007 0.632300 0.095441 0.162940
H55   H     H_    0.124520 0.596964 0.045647 0.275461
H56   H     H_    0.183970 0.569411 0.065648 0.208471
H57   H     H_    0.654665 0.007874 0.274434 0.189713
H58   H     H_    0.123476 0.524303 0.058720 0.229616
H59   H     H_    0.397131 0.926275 0.068267 0.172240
H60   H     H_    0.394882 0.893998 0.103018 0.139409
H61   H     H_    0.418021 0.799881 0.081189 0.256330
H62   H     H_    0.353406 0.830409 0.067033 0.206729
H63   H     H_    0.417961 0.832572 0.046376 0.261630
H64   H     H_    0.875341 0.439550 0.108399 0.137930
H65   H     H_    0.875119 0.368145 0.095205 0.162644
H66   H     H_    0.875436 0.403141 0.045444 0.275521
H67   H     H_    0.816015 0.430774 0.065395 0.208343
H68   H     H_    0.141639 0.475837 0.276599 0.189941
H69   H     H_    0.876452 0.475891 0.058596 0.229823
H70   H     H_    0.029996 0.365864 0.361682 0.251654
H71   H     H_    0.950994 0.334282 0.334471 0.227831
H72   H     H_    0.920332 0.404217 0.336267 0.259847
H73   H     H_    0.368685 0.963964 0.224728 0.189578
H74   H     H_    0.925495 0.361221 0.368136 0.258597
H75   H     H_    0.598642 0.889258 0.366013 0.256310
H76   H     H_    0.546306 0.825970 0.336655 0.230404
H77   H     H_    0.488790 0.876168 0.334882 0.251850
H78   H     H_    0.504971 0.840814 0.368168 0.253312
H79   H     H_    0.969324 0.634119 0.362025 0.251801
H80   H     H_    0.048330 0.665920 0.335112 0.227954
H81   H     H_    0.079149 0.596054 0.336787 0.259667
H82   H     H_    0.073798 0.639011 0.368767 0.258816
H83   H     H_    0.431031 0.108727 0.357164 0.241420
H84   H     H_    0.141969 0.477470 0.224908 0.189731
H85   H     H_    0.493996 0.162831 0.329026 0.232458
H86   H     H_    0.547499 0.108699 0.332392 0.260147
H87   H     H_    0.527305 0.150715 0.363150 0.248653
H88   H     H_    0.064767 0.612259 0.645729 0.227904
H89   H     H_    0.988113 0.666460 0.665140 0.228181
H90   H     H_    0.939586 0.609649 0.656651 0.260156
H91   H     H_    0.971356 0.651372 0.628386 0.261098
H92   H     H_    0.633606 0.966650 0.638155 0.251954
H93   H     H_    0.666880 0.044741 0.665507 0.227788
H94   H     H_    0.597630 0.076909 0.663859 0.259757
H95   H     H_    0.653403 0.004820 0.222737 0.189472
H96   H     H_    0.640416 0.071106 0.631934 0.257831
H97   H     H_    0.950133 0.365133 0.635582 0.251746
H98   H     H_    0.023204 0.320242 0.661742 0.229111
H99   H     H_    0.063930 0.384887 0.661656 0.263038
H100  H     H_    0.052837 0.345969 0.628763 0.253722
H101  H     H_    0.366777 0.034327 0.638051 0.252043
H102  H     H_    0.333321 0.956278 0.665116 0.227689
H103  H     H_    0.402467 0.923898 0.663452 0.259482
H104  H     H_    0.359607 0.929906 0.631491 0.257964
H105  H     H_    0.381774 0.928853 0.859065 0.237012
H106  H     H_    0.857974 0.494569 0.774295 0.189993
H107  H     H_    0.326950 0.997377 0.834488 0.229821
H108  H     H_    0.384022 0.047901 0.837588 0.264429
H109  H     H_    0.345253 0.026008 0.869024 0.251326
H110  H     H_    0.061783 0.374387 0.860636 0.241027
H111  H     H_    0.990932 0.326772 0.833983 0.231490
H112  H     H_    0.946223 0.388673 0.835634 0.260714
H113  H     H_    0.960506 0.348142 0.867622 0.249387
H114  H     H_    0.617543 0.070865 0.859207 0.237003
H115  H     H_    0.672157 0.002165 0.834558 0.229927
H116  H     H_    0.615083 0.951688 0.837589 0.264402
H117  H     H_    0.478725 0.142443 0.775489 0.190050
H118  H     H_    0.654091 0.973754 0.869057 0.251429
H119  H     H_    0.938689 0.622133 0.859546 0.240891
H120  H     H_    0.009162 0.668630 0.832436 0.230976
H121  H     H_    0.053939 0.606847 0.834527 0.260560
H122  H     H_    0.040054 0.648741 0.866201 0.249137
H123  H     H_    0.558141 0.113927 0.146081 0.229877
H124  H     H_    0.478785 0.158567 0.168354 0.229728
H125  H     H_    0.435694 0.097125 0.160638 0.257760
H126  H     H_    0.459213 0.143044 0.131975 0.260015
H127  H     H_    0.071645 0.617936 0.141087 0.236506
H128  H     H_    0.145700 0.494787 0.775971 0.190089
H129  H     H_    0.003124 0.673499 0.165303 0.230105
H130  H     H_    0.952193 0.616823 0.162024 0.264986
H131  H     H_    0.975028 0.655252 0.130655 0.251853
H132  H     H_    0.462133 0.858044 0.133692 0.254836
H133  H     H_    0.537676 0.817740 0.159954 0.230617
H134  H     H_    0.573024 0.885440 0.161207 0.259137
H135  H     H_    0.566411 0.847691 0.127679 0.252595
H136  H     H_    0.928495 0.383080 0.140975 0.236278
H137  H     H_    0.997137 0.327748 0.165230 0.229954
H138  H     H_    0.048055 0.384390 0.161999 0.264942
H139  H     H_    0.520559 0.857690 0.775003 0.189995
H140  H     H_    0.025052 0.345653 0.130606 0.251935
H141  H     H_    0.078746 0.403419 0.438140 0.176292
H142  H     H_    0.091612 0.391699 0.400653 0.138063
H143  H     H_    0.051613 0.294585 0.404371 0.252460
H144  H     H_    0.110007 0.305125 0.428883 0.211310
H145  H     H_    0.037717 0.305755 0.441771 0.264434
H146  H     H_    0.615261 0.972639 0.436705 0.124392
H147  H     H_    0.643533 0.944509 0.403699 0.135519
H148  H     H_    0.654513 0.849715 0.425997 0.247710
H149  H     H_    0.691999 0.903924 0.445917 0.205046
H150  H     H_    0.477717 0.142394 0.723791 0.190363
H151  H     H_    0.625038 0.876816 0.458879 0.269537
H152  H     H_    0.920970 0.596743 0.438419 0.176409
H153  H     H_    0.907788 0.607813 0.400915 0.138011
H154  H     H_    0.947459 0.705106 0.404482 0.252376
H155  H     H_    0.889342 0.694784 0.429037 0.211231
H156  H     H_    0.961761 0.694623 0.441888 0.264969
H157  H     H_    0.378044 0.045515 0.388585 0.144214
H158  H     H_    0.369224 0.117127 0.400591 0.163132
H159  H     H_    0.371569 0.085226 0.451072 0.273407
H160  H     H_    0.315630 0.051372 0.430863 0.211005
N1    N     N_R   0.000036 0.500690 0.176941 -0.300612
N2    N     N_2   0.562773 0.904638 0.356039 -0.269133
N3    N     N_2   0.996765 0.603990 0.353993 -0.279109
N4    N     N_2   0.467578 0.089142 0.350227 -0.278170
N5    N     N_2   0.025996 0.592942 0.648559 -0.284623
N6    N     N_2   0.603975 0.994565 0.646231 -0.278491
N7    N     N_2   0.981514 0.390577 0.644060 -0.280171
N8    N     N_2   0.396328 0.006300 0.646087 -0.278297
N9    N     N_2   0.401972 0.965227 0.852394 -0.281452
N10   N     N_2   0.028516 0.398270 0.852967 -0.278361
N11   N     N_2   0.597282 0.034462 0.852487 -0.281728
N12   N     N_R   0.509379 0.984615 0.175775 -0.304968
N13   N     N_2   0.971888 0.597937 0.852048 -0.276771
N14   N     N_2   0.522207 0.090225 0.149748 -0.282104
N15   N     N_2   0.034978 0.598094 0.147620 -0.282469
N16   N     N_2   0.491105 0.885471 0.142771 -0.275992
N17   N     N_2   0.965194 0.402981 0.147543 -0.282708
N18   N     N_R   0.000914 0.497465 0.822965 -0.302369
N19   N     N_R   0.499496 0.999948 0.823065 -0.300743
N20   N     N_R   0.500153 0.000344 0.675734 -0.305138
N21   N     N_R   0.003767 0.490319 0.675638 -0.304128
N22   N     N_R   0.513120 0.992192 0.323334 -0.305497
N23   N     N_R   0.999774 0.500079 0.324268 -0.304927
N24   N     N_2   0.002650 0.396075 0.353673 -0.279108
O1    O     O_R   0.953170 0.417210 0.499940 -0.615628
O2    O     O_R   0.082790 0.453170 0.999940 -0.622113
O3    O     O_R   0.546830 0.082790 0.999940 -0.637041
O4    O     O_R   0.917210 0.546830 0.999940 -0.622369
O5    O     O_R   0.453170 0.082790 0.000060 -0.610883
O6    O     O_R   0.082790 0.546830 0.000060 -0.620688
O7    O     O_R   0.546830 0.917210 0.000060 -0.611155
O8    O     O_R   0.917210 0.453170 0.000060 -0.620846
O9    O     O_R   0.953160 0.500010 0.458010 -0.633494
O10   O     O_R   0.499990 0.953160 0.458010 -0.583318
O11   O     O_R   0.046840 0.499990 0.458010 -0.633470
O12   O     O_R   0.582790 0.953170 0.499940 -0.633751
O13   O     O_R   0.500010 0.046840 0.458010 -0.580221
O14   O     O_R   0.953160 0.499990 0.541990 -0.641021
O15   O     O_R   0.499990 0.046840 0.541990 -0.633658
O16   O     O_R   0.046840 0.500010 0.541990 -0.625631
O17   O     O_R   0.500010 0.953160 0.541990 -0.634282
O18   O     O_R   0.453160 0.000010 0.958010 -0.577259
O19   O     O_R   0.999990 0.453160 0.958010 -0.575229
O20   O     O_R   0.546840 0.999990 0.958010 -0.577204
O21   O     O_R   0.000010 0.546840 0.958010 -0.575833
O22   O     O_R   0.453160 0.999990 0.041990 -0.638582
O23   O     O_R   0.046830 0.582790 0.499940 -0.621545
O24   O     O_R   0.999990 0.546840 0.041990 -0.576427
O25   O     O_R   0.546840 0.000010 0.041990 -0.625991
O26   O     O_R   0.000010 0.453160 0.041990 -0.576433
O27   O     O_2   0.099062 0.486594 0.176339 -0.585601
O28   O     O_2   0.608535 0.997780 0.174453 -0.583388
O29   O     O_2   0.901017 0.514837 0.176123 -0.585736
O30   O     O_2   0.410203 0.971326 0.175902 -0.580307
O31   O     O_2   0.100960 0.497460 0.824194 -0.584088
O32   O     O_2   0.512271 0.900716 0.823599 -0.585273
O33   O     O_2   0.900855 0.497678 0.823049 -0.582856
O34   O     O_R   0.417210 0.046830 0.499940 -0.632606
O35   O     O_2   0.486670 0.099172 0.823942 -0.585328
O36   O     O_2   0.517239 0.901770 0.674863 -0.579704
O37   O     O_2   0.103792 0.491531 0.675507 -0.584934
O38   O     O_2   0.483067 0.098919 0.675187 -0.579480
O39   O     O_2   0.903754 0.489884 0.674362 -0.580964
O40   O     O_2   0.612048 0.007230 0.323278 -0.576769
O41   O     O_2   0.097991 0.481187 0.325079 -0.579926
O42   O     O_2   0.414335 0.976186 0.324546 -0.581057
O43   O     O_2   0.901557 0.518978 0.324887 -0.579945
O44   O     O_R   0.081480 0.000000 0.475630 -0.607175
O45   O     O_R   0.953170 0.582790 0.500060 -0.626963
O46   O     O_R   0.000000 0.081480 0.475630 -0.607016
O47   O     O_R   0.918520 0.000000 0.475630 -0.607434
O48   O     O_R   0.000000 0.918520 0.475630 -0.606961
O49   O     O_R   0.081480 0.000000 0.524370 -0.606966
O50   O     O_R   0.000000 0.918520 0.524370 -0.606921
O51   O     O_R   0.918520 0.000000 0.524370 -0.606710
O52   O     O_R   1.000000 0.081480 0.524370 -0.606755
O53   O     O_R   0.581480 0.500000 0.975630 -0.606702
O54   O     O_R   0.500000 0.581480 0.975630 -0.607109
O55   O     O_R   0.418520 0.500000 0.975630 -0.606837
O56   O     O_R   0.582790 0.046830 0.500060 -0.609418
O57   O     O_R   0.500000 0.418520 0.975630 -0.607152
O58   O     O_R   0.581480 0.500000 0.024370 -0.607192
O59   O     O_R   0.500000 0.418520 0.024370 -0.606544
O60   O     O_R   0.418520 0.500000 0.024370 -0.607059
O61   O     O_R   0.500000 0.581480 0.024370 -0.606495
O62   O     O_3   0.005629 0.397115 0.413616 -0.603288
O63   O     O_3   0.563441 0.914003 0.415485 -0.579652
O64   O     O_3   0.993897 0.602862 0.413920 -0.603032
O65   O     O_3   0.448265 0.084992 0.409990 -0.585744
O66   O     O_3   0.030271 0.595438 0.587290 -0.609817
O67   O     O_R   0.046830 0.417210 0.500060 -0.627042
O68   O     O_3   0.602631 0.990711 0.586265 -0.602779
O69   O     O_3   0.970013 0.399163 0.584250 -0.605730
O70   O     O_3   0.397525 0.009815 0.586139 -0.603534
O71   O     O_3   0.408993 0.950691 0.912384 -0.581822
O72   O     O_3   0.045063 0.406246 0.912751 -0.581956
O73   O     O_3   0.590710 0.049157 0.912507 -0.581623
O74   O     O_3   0.955918 0.592776 0.911948 -0.582277
O75   O     O_3   0.525160 0.096005 0.088540 -0.608903
O76   O     O_3   0.049525 0.590964 0.087614 -0.581535
O77   O     O_3   0.475189 0.897050 0.083384 -0.604855
O78   O     O_R   0.417210 0.953170 0.500060 -0.607552
O79   O     O_3   0.950540 0.409500 0.087517 -0.581468
O80   O     O_R   0.453170 0.917210 0.999940 -0.630675
Zn1   Zn    Zn3+2 0.937490 0.500000 0.500000 0.966078
Zn2   Zn    Zn3+2 0.000000 0.000000 0.531500 0.981346
Zn3   Zn    Zn3+2 0.500000 0.500000 0.968500 0.983414
Zn4   Zn    Zn3+2 0.500000 0.500000 0.031500 0.982594
Zn5   Zn    Zn3+2 0.500000 0.937490 0.500000 0.984912
Zn6   Zn    Zn3+2 0.062510 0.500000 0.500000 0.963829
Zn7   Zn    Zn3+2 0.500000 0.062510 0.500000 0.986503
Zn8   Zn    Zn3+2 0.437490 0.000000 0.000000 0.985597
Zn9   Zn    Zn3+2 1.000000 0.437490 0.000000 1.004037
Zn10  Zn    Zn3+2 0.562510 0.000000 0.000000 0.983396
Zn11  Zn    Zn3+2 1.000000 0.562510 0.000000 1.003312
Zn12  Zn    Zn3+2 0.000000 0.000000 0.468500 0.981843

loop_
_geom_bond_atom_site_label_1
_geom_bond_atom_site_label_2
_ccdc_geom_bond_type
C31   N6    S    
C149  C159  S    
C184  C204  A    
C28   N3    S    
C24   N20   S    
C188  N23   A    
H101  N8    S    
C161  O57   A    
C54   C65   A    
C171  N1    A    
C43   C61   A    
C19   C200  A    
C22   C203  A    
C2    C29   A    
C71   H76   S    
C126  C187  S    
C18   H2    S    
C20   C201  A    
C122  H66   S    
C32   N7    S    
C1    O67   A    
C35   N19   S    
C120  H62   S    
C186  C202  A    
C177  O32   S    
C11   C192  A    
C12   C193  A    
C7    C203  A    
C131  C140  S    
C38   C55   A    
C143  O34   A    
C151  C161  S    
C86   H137  S    
C46   N18   S    
C17   C197  A    
C58   O76   S    
C181  O37   S    
C172  O28   S    
C162  O11   A    
C115  O75   S    
C89   H146  S    
C14   C194  A    
C99   H14   S    
C193  C208  A    
C105  H27   S    
C183  O39   S    
C7    C206  A    
C87   H141  S    
C175  C195  A    
O59   Zn4   S    
O60   Zn4   S    
C43   O62   S    
C76   H98   S    
C110  H41   S    
C198  N23   S    
C178  C193  A    
C84   H130  S    
C78   H108  S    
C137  C146  T    
C127  C136  S    
C48   C63   A    
C10   H84   S    
C153  O44   A    
C70   H74   S    
O44   Zn12  S    
C102  H17   S    
C67   C169  S    
C191  C206  A    
C142  C151  T    
O2    Zn9   S    
C50   O69   S    
O78   Zn5   S    
C62   C163  S    
C189  C206  A    
H83   N4    S    
C80   N10   S    
C185  O41   S    
C121  H64   S    
C117  H54   S    
C124  C133  T    
C176  O5    A    
C155  O52   A    
C98   H10   S    
C1    C79   S    
C33   C51   A    
C148  C153  S    
O7    Zn10  S    
O26   Zn9   S    
C161  O59   A    
C79   C127  T    
O22   Zn8   S    
C163  O13   A    
C173  O29   S    
C181  C201  A    
C51   C64   A    
C24   C33   A    
C171  O27   S    
O47   Zn12  S    
C169  O25   A    
C81   H115  S    
C107  H32   S    
C10   C191  A    
C44   C62   A    
C84   N15   S    
C39   N14   S    
C9    C21   A    
C11   C23   A    
C23   H57   S    
C85   H135  S    
O18   Zn8   S    
C89   O63   S    
C162  O9    A    
C170  O24   A    
C49   O68   S    
C76   N7    S    
O21   Zn11  S    
H105  N9    S    
C101  C132  S    
C157  O50   A    
C98   C99   S    
C158  O53   A    
C178  N18   A    
C146  C156  S    
C40   N15   S    
C52   C65   A    
C71   N2    S    
C76   H100  S    
C123  C154  S    
C110  H39   S    
C36   N10   S    
C168  O19   A    
C112  O56   A    
C13   C32   A    
O12   Zn5   S    
C141  C150  T    
C47   C62   A    
C70   H72   S    
O6    Zn11  S    
C172  C192  A    
C107  O72   S    
C106  H28   S    
C29   C47   A    
C30   C48   A    
C119  O77   S    
C34   N9    S    
C5    C201  A    
C165  O6    A    
C115  C116  S    
C72   H82   S    
C59   C67   A    
C183  N21   A    
C27   C44   A    
C195  C208  A    
C97   H8    S    
C108  H33   S    
C8    C22   A    
C107  C108  S    
C86   N17   S    
C82   H120  S    
C36   C53   A    
C75   H93   S    
C169  O22   A    
C21   H35   S    
H88   N5    S    
C109  H37   S    
C49   C64   A    
C86   H140  S    
C93   H155  S    
C57   N12   S    
C80   H113  S    
C14   C17   A    
C182  C197  A    
C187  O8    A    
C139  C148  T    
C155  O46   A    
C113  C130  T    
C61   C162  S    
C27   N2    S    
C159  O61   A    
C44   O63   S    
C115  H49   S    
O55   Zn3   S    
O10   Zn5   S    
C104  H23   S    
C100  H15   S    
C163  O10   A    
C73   H86   S    
C180  C200  A    
C182  N20   A    
C103  O70   S    
C174  N12   A    
C182  O38   S    
C179  O35   S    
C51   O70   S    
C99   H12   S    
C45   O64   S    
O11   Zn6   S    
C2    N22   S    
C116  H51   S    
C10   C25   A    
C98   O68   S    
C77   H103  S    
C60   O79   S    
C85   H133  S    
C40   C68   A    
C97   H6    S    
C192  C207  A    
C74   H90   S    
O48   Zn12  S    
C3    C4    A    
C47   O65   S    
O20   Zn10  S    
H127  N15   S    
C135  C144  S    
O4    Zn11  S    
C172  N12   A    
O56   Zn7   S    
O24   Zn11  S    
C23   C204  A    
C12   H106  S    
C117  H53   S    
C144  C152  T    
C117  C118  S    
C186  N22   A    
C70   N24   S    
C41   N16   S    
C60   C69   A    
C109  O73   S    
C119  H60   S    
C156  O47   A    
C105  O71   S    
C83   H126  S    
C26   C198  A    
C80   H111  S    
C38   C46   A    
O5    Zn8   S    
C124  C165  S    
H75   N2    S    
C190  C207  A    
C4    C200  A    
C86   H138  S    
O1    Zn1   S    
C71   H78   S    
O13   Zn7   S    
C125  C176  S    
C140  C149  T    
C179  C194  A    
C112  O12   A    
C101  C129  T    
C125  C134  T    
C103  H21   S    
C87   C88   S    
C4    C197  A    
C96   H4    S    
C132  O45   A    
C105  H26   S    
C15   H128  S    
C7    C205  A    
O54   Zn3   S    
C5    C199  A    
C94   O65   S    
C111  H42   S    
C114  H47   S    
O50   Zn2   S    
C78   H109  S    
C150  C160  S    
C143  O78   A    
C29   N4    S    
C34   C35   A    
C175  N18   A    
C180  N20   A    
C173  N1    A    
C102  H18   S    
C38   N13   S    
C181  N21   A    
C156  O51   A    
C82   H122  S    
C74   N5    S    
C179  N19   A    
C64   C166  S    
C117  O76   S    
O19   Zn9   S    
C115  H48   S    
C72   H80   S    
C59   O77   S    
C2    C27   A    
C30   N5    S    
C175  O31   S    
C94   H157  S    
C15   C195  A    
C15   C20   A    
C153  O49   A    
H136  N17   S    
C31   C49   A    
C25   C205  A    
C130  C139  S    
H79   N3    S    
C165  O2    A    
C63   C164  S    
C152  C158  S    
C26   N24   S    
O49   Zn2   S    
C92   H152  S    
C166  O15   A    
C40   C58   A    
C16   H139  S    
C176  O3    A    
C103  H20   S    
C107  H31   S    
C28   C198  A    
C70   H71   S    
C113  C143  S    
O67   Zn6   S    
C83   H124  S    
O80   Zn8   S    
C6    C204  A    
C16   C196  A    
C134  C142  S    
C92   H153  S    
C104  H22   S    
C167  O20   A    
C114  H44   S    
C171  C191  A    
C85   H134  S    
C164  O14   A    
C121  C122  S    
C187  O4    A    
C174  C190  A    
C128  C137  S    
C99   H11   S    
C126  C135  T    
C178  O33   S    
O8    Zn9   S    
C106  H30   S    
C9    C190  A    
O23   Zn6   S    
C87   H142  S    
H110  N10   S    
C55   C66   A    
C116  H50   S    
C35   C37   A    
O25   Zn10  S    
C110  H40   S    
O57   Zn3   S    
C114  H45   S    
C84   H129  S    
C78   H107  S    
C166  O17   A    
C123  C131  T    
C21   C202  A    
C54   O73   S    
C84   H131  S    
C119  C120  S    
C58   C69   A    
C157  O48   A    
C91   H148  S    
C25   H68   S    
C105  C106  S    
C65   C167  S    
C133  C141  S    
C3    C196  A    
C66   C168  S    
C160  O60   A    
H123  N14   S    
C180  O36   S    
C88   H143  S    
C41   C57   A    
C109  C110  S    
C5    C208  A    
C177  N19   A    
H97   N7    S    
C16   C19   A    
C45   C61   A    
C92   C93   S    
O14   Zn1   S    
O15   Zn7   S    
C111  C114  S    
C94   C95   S    
C121  H65   S    
C132  O23   A    
C96   H5    S    
C118  H56   S    
C13   C30   A    
C97   H7    S    
C98   H9    S    
C108  H34   S    
C103  C104  S    
H114  N11   S    
C83   N14   S    
C75   H96   S    
C122  H67   S    
O53   Zn3   S    
O51   Zn2   S    
H132  N16   S    
C17   H150  S    
C82   N13   S    
C20   H24   S    
C177  C196  A    
O16   Zn6   S    
C93   H154  S    
C82   H121  S    
C19   H13   S    
C90   C112  S    
C88   H144  S    
C81   H116  S    
C120  H63   S    
O3    Zn10  S    
C120  H61   S    
C184  O40   S    
C6    C202  A    
C14   H117  S    
C100  H16   S    
C167  O18   A    
C111  H43   S    
C39   C57   A    
C168  O21   A    
C1    O1    A    
C73   H85   S    
C164  O16   A    
C34   C52   A    
C118  H58   S    
C13   N21   S    
C129  C138  S    
C39   C56   A    
C160  O55   A    
C91   H151  S    
C100  O69   S    
C96   O66   S    
C88   H145  S    
O61   Zn4   S    
C8    C189  A    
C136  C145  T    
C116  H52   S    
C76   H99   S    
C77   H102  S    
C111  O74   S    
C186  O42   S    
C42   C68   A    
C74   H91   S    
C26   C43   A    
C42   N17   S    
C50   C63   A    
C28   C45   A    
C3    C194  A    
C118  H55   S    
C154  O7    A    
C185  C205  A    
C41   C59   A    
C33   N8    S    
C42   C60   A    
C85   N16   S    
O58   Zn4   S    
C174  O30   S    
C87   O62   S    
C24   C31   A    
C92   O64   S    
C106  H29   S    
C183  C199  A    
H70   N24   S    
C184  N22   A    
C72   H81   S    
C170  O26   A    
O17   Zn5   S    
C52   O71   S    
C11   H95   S    
H92   N6    S    
C138  C147  T    
C77   N8    S    
C119  H59   S    
C96   C97   S    
C108  H36   S    
C100  C102  S    
C9    H73   S    
C83   H125  S    
C75   H94   S    
C36   C46   A    
C53   C66   A    
C80   H112  S    
C72   N3    S    
C32   C50   A    
C6    C207  A    
C158  O58   A    
C73   N4    S    
C81   N11   S    
C37   C54   A    
C121  O79   S    
C104  H25   S    
C89   H147  S    
C109  H38   S    
C95   H160  S    
C93   H156  S    
O45   Zn1   S    
C71   H77   S    
C89   C91   S    
C8    H1    S    
C147  C157  S    
C122  H69   S    
C48   O66   S    
C53   O72   S    
C188  O43   S    
C81   H118  S    
C78   N9    S    
C185  N23   A    
C37   N11   S    
O52   Zn2   S    
C95   H3    S    
C56   C67   A    
C188  C203  A    
C68   N1    S    
C73   H87   S    
C159  O54   A    
O46   Zn12  S    
C75   N6    S    
C91   H149  S    
C173  C189  A    
C102  H19   S    
C69   C170  S    
C22   H46   S    
O34   Zn7   S    
C145  C155  S    
C77   H104  S    
O9    Zn1   S    
C56   O75   S    
C154  O80   A    
C12   C18   A    
C18   C199  A    
C90   C128  T    
H119  N13   S    
C74   H89   S    
C95   H159  S    
C94   H158  S    
C55   O74   S    
