data_mof_unit_59498.cif
_audit_creation_date              2012-10-26T20:18:14-0400
_audit_creation_method            fapswitch 2.2
_symmetry_space_group_name_H-M    P1
_symmetry_Int_Tables_number       1
_space_group_crystal_system       triclinic
_cell_length_a                    23.430185
_cell_length_b                    8.719061
_cell_length_c                    7.429898
_cell_angle_alpha                 102.625986
_cell_angle_beta                  94.006576
_cell_angle_gamma                 92.607537
_cell_volume                      1474.64139517

loop_
_atom_site_label
_atom_site_type_symbol
_atom_type_description
_atom_site_fract_x
_atom_site_fract_y
_atom_site_fract_z
_atom_type_partial_charge
C1    C     C_R   0.494761 0.199818 0.454465 0.580156
C2    C     C_R   0.701346 0.636542 0.464057 0.222161
C3    C     C_R   0.235011 0.374051 0.474721 -0.046343
C4    C     C_R   0.761303 0.641698 0.475312 -0.042075
C5    C     C_R   0.211180 0.520238 0.525072 0.204113
C6    C     C_R   0.790595 0.509066 0.497216 0.188583
C7    C     C_2   0.485169 0.031990 0.434947 0.217166
C8    C     C_2   0.509540 0.966683 0.567154 0.225346
C9    C     C_R   0.391352 0.500924 0.502979 0.593608
C10   C     C_R   0.608712 0.499899 0.497163 0.570543
C11   C     C_R   0.879795 0.561344 0.365907 0.403605
C12   C     C_R   0.502362 0.799720 0.545846 0.581260
C13   C     C_R   0.123203 0.475133 0.662534 0.406648
C14   C     C_R   0.882840 0.470479 0.647348 0.403704
C15   C     C_R   0.120389 0.581108 0.391387 0.402225
C16   C     C_R   0.942794 0.469736 0.653315 0.025005
C17   C     C_R   0.060462 0.581700 0.385383 0.024815
C18   C     C_R   0.971430 0.522840 0.515983 -0.028046
C19   C     C_R   0.031797 0.526295 0.521385 -0.028856
C20   C     C_R   0.939841 0.571612 0.372615 0.030515
C21   C     C_R   0.063316 0.473370 0.662052 0.027905
C22   C     C_R   0.974650 0.417475 0.793182 -0.140082
C23   C     C_R   0.246665 0.658926 0.569407 -0.079146
C24   C     C_R   0.028609 0.634314 0.245924 -0.140600
C25   C     C_R   0.034281 0.418710 0.797127 -0.133556
C26   C     C_R   0.968892 0.628392 0.238924 -0.133347
C27   C     C_3   0.297008 0.130004 0.246781 -0.007754
C28   C     C_3   0.273939 0.970162 0.270606 -0.353434
C29   C     C_3   0.670498 0.762975 0.243410 -0.004783
C30   C     C_3   0.632971 0.890853 0.202689 -0.387604
C31   C     C_3   0.448964 0.947548 0.127054 0.008904
C32   C     C_3   0.408789 0.819576 0.003139 -0.331930
C33   C     C_3   0.599135 0.036105 0.713645 -0.008555
C34   C     C_R   0.759102 0.372117 0.512517 -0.069431
C35   C     C_3   0.632532 0.160139 0.865144 -0.355623
C36   C     C_R   0.305762 0.651513 0.563685 -0.206818
C37   C     C_R   0.699654 0.370172 0.513777 -0.204882
C38   C     C_R   0.329592 0.505664 0.510522 0.034508
C39   C     C_R   0.670725 0.502319 0.491197 0.019692
C40   C     C_R   0.294387 0.365770 0.461961 0.242174
Cu1   Cu    Cu3+1 0.506340 0.517380 0.684380 0.953302
Cu2   Cu    Cu3+1 0.493660 0.482620 0.315620 0.964970
H1    H     H_    0.953607 0.374438 0.899346 0.172288
H2    H     H_    0.784971 0.748714 0.465281 0.150076
H3    H     H_    0.455302 0.378451 0.948840 0.250626
H4    H     H_    0.544563 0.621684 0.051211 0.233523
H5    H     H_    0.332581 0.111653 0.154812 0.159342
H6    H     H_    0.262884 0.184022 0.173159 0.126646
H7    H     H_    0.238221 0.984959 0.362342 0.161968
H8    H     H_    0.257862 0.895415 0.133885 0.128649
H9    H     H_    0.308533 0.910331 0.332676 0.188137
H10   H     H_    0.651635 0.647763 0.158736 0.145801
H11   H     H_    0.714103 0.785815 0.200402 0.157591
H12   H     H_    0.049650 0.678546 0.140565 0.169810
H13   H     H_    0.653251 0.008809 0.270385 0.137913
H14   H     H_    0.627493 0.881108 0.051101 0.110136
H15   H     H_    0.590145 0.877089 0.254217 0.141238
H16   H     H_    0.493916 0.923947 0.094804 0.146125
H17   H     H_    0.437160 0.060302 0.093110 0.168331
H18   H     H_    0.363593 0.841523 0.030122 0.129135
H19   H     H_    0.413943 0.819313 0.855913 0.131945
H20   H     H_    0.418144 0.702830 0.029994 0.200413
H21   H     H_    0.612963 0.051863 0.578243 0.128172
H22   H     H_    0.609668 0.917323 0.732873 0.174397
H23   H     H_    0.057500 0.376985 0.906446 0.174312
H24   H     H_    0.679089 0.141713 0.863230 0.116994
H25   H     H_    0.625001 0.279564 0.842445 0.182758
H26   H     H_    0.618492 0.152645 0.002764 0.158618
H27   H     H_    0.945611 0.668272 0.128314 0.177147
H28   H     H_    0.228396 0.772135 0.608665 0.137270
H29   H     H_    0.780722 0.267468 0.525537 0.158541
H30   H     H_    0.332916 0.759456 0.598910 0.115481
H31   H     H_    0.676152 0.265138 0.530290 0.102984
H32   H     H_    0.207247 0.267339 0.444486 0.126067
N1    N     N_R   0.852322 0.513515 0.503499 -0.395304
N2    N     N_R   0.150301 0.527348 0.527749 -0.397848
N3    N     N_2   0.484110 0.456420 0.038520 -0.261215
N4    N     N_2   0.515890 0.543580 0.961480 -0.273812
O1    O     O_R   0.504120 0.286130 0.619770 -0.459653
O2    O     O_2   0.154167 0.425138 0.796292 -0.477977
O3    O     O_2   0.855386 0.430261 0.785609 -0.473971
O4    O     O_2   0.148535 0.631530 0.260627 -0.486291
O5    O     O_3   0.319368 0.222316 0.420902 -0.555831
O6    O     O_3   0.672750 0.765109 0.434451 -0.594050
O7    O     O_3   0.440567 0.948062 0.313481 -0.586197
O8    O     O_3   0.540017 0.055828 0.725681 -0.578931
O9    O     O_R   0.495880 0.713870 0.380230 -0.498729
O10   O     O_R   0.493410 0.256770 0.308360 -0.525984
O11   O     O_R   0.506590 0.743230 0.691640 -0.515536
O12   O     O_R   0.423230 0.514630 0.655730 -0.521069
O13   O     O_R   0.576770 0.485370 0.344270 -0.504749
O14   O     O_R   0.412530 0.485280 0.344320 -0.489482
O15   O     O_R   0.587470 0.514720 0.655680 -0.511421
O16   O     O_2   0.849156 0.596911 0.221452 -0.482429

loop_
_geom_bond_atom_site_label_1
_geom_bond_atom_site_label_2
_ccdc_geom_bond_type
C27   H6    S    
Cu1   O11   S    
C31   O7    S    
C34   C37   A    
Cu1   Cu2   S    
C2    O6    S    
C40   O5    S    
C7    C8    D    
N3    N4    D    
C20   C26   A    
C31   H16   S    
C19   C21   A    
C24   C26   A    
C32   H19   S    
Cu2   O13   S    
C28   H9    S    
C24   H12   S    
C30   H15   S    
C18   C20   A    
C18   C19   A    
C31   H17   S    
C3    H32   S    
C37   H31   S    
C17   C19   A    
C28   H8    S    
C2    C39   A    
Cu1   O15   S    
C22   H1    S    
C22   C25   A    
Cu2   O14   S    
C33   H21   S    
C1    O10   A    
C15   N2    A    
C13   O2    S    
C23   H28   S    
C9    O14   A    
C15   O4    S    
C11   C20   A    
C17   C24   A    
C12   O11   A    
C6    N1    S    
C25   H23   S    
C29   O6    S    
C4    C6    A    
Cu1   N4    S    
H4    N4    S    
C4    H2    S    
C10   O15   A    
C30   H14   S    
C6    C34   A    
C10   C39   S    
C2    C4    A    
C33   O8    S    
Cu1   O1    S    
C29   C30   S    
C28   H7    S    
C31   C32   S    
C5    C23   A    
C13   N2    A    
C35   H25   S    
C8    C12   S    
C13   C21   A    
C11   O16   S    
C3    C40   A    
C1    O1    A    
C14   C16   A    
Cu2   O10   S    
C32   H18   S    
C27   H5    S    
C15   C17   A    
C21   C25   A    
C16   C22   A    
C12   O9    A    
C1    C7    S    
C3    C5    A    
C9    O12   A    
C10   O13   A    
C30   H13   S    
C35   H24   S    
C14   N1    A    
C5    N2    S    
C36   C38   A    
C32   H20   S    
C37   C39   A    
C11   N1    A    
C38   C40   A    
C7    O7    S    
C29   H11   S    
C35   H26   S    
C33   H22   S    
C27   O5    S    
C9    C38   S    
C33   C35   S    
Cu1   O12   S    
C8    O8    S    
Cu2   N3    S    
C16   C18   A    
C23   C36   A    
C27   C28   S    
C26   H27   S    
H3    N3    S    
Cu2   O9    S    
C14   O3    S    
C34   H29   S    
C36   H30   S    
C29   H10   S    
