data_mof_unit_17571.cif
_audit_creation_date              2012-12-10T18:33:55-0500
_audit_creation_method            fapswitch 2.2
_symmetry_space_group_name_H-M    P1
_symmetry_Int_Tables_number       1
_space_group_crystal_system       triclinic
_cell_length_a                    15.111131
_cell_length_b                    13.866578
_cell_length_c                    10.920291
_cell_angle_alpha                 90.010501
_cell_angle_beta                  90.256928
_cell_angle_gamma                 89.999742
_cell_volume                      2288.21120061

loop_
_atom_site_label
_atom_site_type_symbol
_atom_type_description
_atom_site_fract_x
_atom_site_fract_y
_atom_site_fract_z
_atom_type_partial_charge
C1    C     C_R   0.329887 0.500017 0.499752 0.808202
C2    C     C_R   0.670113 0.500017 0.500241 0.808141
C3    C     C_R   0.048485 0.501487 0.498238 0.018084
C4    C     C_R   0.951514 0.501491 0.501694 0.018118
C5    C     C_R   0.531659 0.107583 0.602000 0.343827
C6    C     C_R   0.468345 0.107556 0.397991 0.343842
C7    C     C_R   0.533273 0.209376 0.597888 -0.046089
C8    C     C_R   0.466730 0.209352 0.402108 -0.046096
C9    C     C_R   0.500002 0.054499 0.499994 -0.094412
C10   C     C_R   0.426153 0.892378 0.458716 -0.225674
C11   C     C_R   0.573851 0.892389 0.541272 -0.225635
C12   C     C_R   0.427858 0.790902 0.458144 0.070577
C13   C     C_R   0.572144 0.790913 0.541851 0.070509
C14   C     C_R   0.500002 0.945298 0.499993 0.172424
C15   C     C_R   0.504584 0.499953 0.265519 0.715636
C16   C     C_R   0.495443 0.499975 0.734488 0.716330
C17   C     C_2   0.504410 0.424868 0.933545 -0.254939
C18   C     C_2   0.495127 0.424937 0.066460 -0.254966
C19   C     C_2   0.478845 0.500511 0.865333 0.425419
C20   C     C_2   0.521221 0.500387 0.134671 0.425766
C21   C     C_R   0.095160 0.578660 0.444873 0.579697
C22   C     C_R   0.904843 0.578673 0.555081 0.579669
C23   C     C_R   0.187459 0.578778 0.448611 -0.286381
C24   C     C_R   0.812544 0.578790 0.551361 -0.286342
C25   C     C_R   0.233390 0.500217 0.498593 -0.104619
C26   C     C_R   0.766610 0.500219 0.501377 -0.104621
C27   C     C_R   0.186673 0.421803 0.546769 -0.194089
C28   C     C_R   0.813322 0.421799 0.453173 -0.194069
C29   C     C_R   0.094733 0.422864 0.547570 -0.268836
C30   C     C_R   0.905262 0.422860 0.452354 -0.268800
Cu1   Cu    Cu3+1 0.500000 0.596430 0.500000 0.965614
Cu2   Cu    Cu3+1 0.500000 0.403570 0.500000 0.923856
N1    N     N_R   0.500000 0.258690 0.500000 -0.217629
N2    N     N_R   0.500000 0.741330 0.500000 -0.171206
O1    O     O_R   0.371460 0.581430 0.500010 -0.597630
O2    O     O_R   0.628540 0.581430 0.499990 -0.597873
O3    O     O_R   0.371470 0.418560 0.500010 -0.572156
O4    O     O_R   0.628530 0.418560 0.499990 -0.572071
O5    O     O_R   0.500000 0.581410 0.321940 -0.545291
O6    O     O_R   0.500000 0.581410 0.678060 -0.544745
O7    O     O_R   0.500010 0.418540 0.321940 -0.618513
O8    O     O_R   0.499990 0.418540 0.678060 -0.618691
H1    H     H_    0.530847 0.360134 0.891193 0.120459
H2    H     H_    0.468239 0.360441 0.108819 0.120270
H3    H     H_    0.370758 0.752163 0.424244 0.127798
H4    H     H_    0.629243 0.752183 0.575752 0.127845
O9    O     O_3   0.437280 0.579540 0.917889 -0.511371
C31   C     C_3   0.347091 0.578679 0.884038 -0.311442
H5    H     H_    0.314657 0.509619 0.910310 0.138688
H6    H     H_    0.338375 0.592299 0.784338 0.160879
H7    H     H_    0.312883 0.637557 0.933709 0.192448
O10   O     O_3   0.563308 0.579057 0.082048 -0.511594
C32   C     C_3   0.653197 0.578477 0.117450 -0.311540
H8    H     H_    0.685755 0.508970 0.093404 0.138003
H9    H     H_    0.661036 0.593588 0.216933 0.162244
H10   H     H_    0.687972 0.636520 0.066989 0.192292
O11   O     O_3   0.050962 0.655634 0.392491 -0.543934
C33   C     C_3   0.040371 0.636837 0.266427 -0.346424
H11   H     H_    0.000586 0.570374 0.250478 0.155134
H12   H     H_    0.105525 0.631167 0.219769 0.152433
H13   H     H_    0.003946 0.697932 0.224283 0.199366
O12   O     O_3   0.949043 0.655656 0.607473 -0.543952
C34   C     C_3   0.959696 0.636850 0.733517 -0.346298
H14   H     H_    0.999518 0.570407 0.749390 0.155139
H15   H     H_    0.894564 0.631139 0.780225 0.152528
H16   H     H_    0.996111 0.697959 0.775671 0.199347
H17   H     H_    0.222976 0.639292 0.409784 0.158200
H18   H     H_    0.777031 0.639311 0.590208 0.158254
H19   H     H_    0.221246 0.360658 0.586010 0.162174
H20   H     H_    0.778746 0.360647 0.413925 0.162171
H21   H     H_    0.059517 0.362782 0.587934 0.161034
H22   H     H_    0.940475 0.362771 0.411972 0.161021
O13   O     O_3   0.563699 0.060615 0.704600 -0.579505
C35   C     C_3   0.497119 0.060529 0.794611 -0.310065
H23   H     H_    0.435986 0.024062 0.760988 0.168170
H24   H     H_    0.481770 0.135025 0.825988 0.146183
H25   H     H_    0.521508 0.019515 0.875173 0.190544
O14   O     O_3   0.436305 0.060561 0.295389 -0.579543
C36   C     C_3   0.502881 0.060462 0.205373 -0.310132
H26   H     H_    0.564034 0.024046 0.239002 0.168169
H27   H     H_    0.518193 0.134950 0.173966 0.146269
H28   H     H_    0.478508 0.019391 0.124829 0.190542
H29   H     H_    0.560567 0.248760 0.674686 0.156415
H30   H     H_    0.439438 0.248718 0.325311 0.156354
H31   H     H_    0.366873 0.929031 0.427916 0.175537
H32   H     H_    0.633132 0.929050 0.572070 0.175552

loop_
_geom_bond_atom_site_label_1
_geom_bond_atom_site_label_2
_ccdc_geom_bond_type
C7    H29   S    
C34   H15   S    
C10   H31   S    
C27   C29   A    
O13   C35   S    
C6    C9    A    
C32   H8    S    
C21   O11   S    
C35   H24   S    
C24   C26   A    
C13   H4    S    
C11   C14   A    
C19   O9    S    
C6    O14   S    
C11   H32   S    
C33   H12   S    
Cu1   O6    S    
C23   H17   S    
C3    C29   A    
C31   H7    S    
O9    C31   S    
C35   H25   S    
Cu2   O7    S    
Cu2   O4    S    
C27   H19   S    
C1    O3    A    
C33   H13   S    
C31   H6    S    
C34   H16   S    
C1    C25   S    
C7    N1    A    
C32   H9    S    
C15   C20   S    
C35   H23   S    
C15   O7    A    
C10   C14   A    
C5    C7    A    
O14   C36   S    
C6    C8    A    
C33   H11   S    
C36   H26   S    
C9    C14   S    
C17   H1    S    
C5    C9    A    
O12   C34   S    
C18   H2    S    
C22   O12   S    
C4    C22   A    
C2    O4    A    
Cu1   Cu2   S    
C17   C18   S    
Cu1   N2    S    
C2    C26   S    
Cu2   O3    S    
C15   O5    A    
C10   C12   A    
C16   O6    A    
C31   H5    S    
C21   C23   A    
C22   C24   A    
C3    C21   A    
C12   N2    A    
C3    C4    S    
C16   O8    A    
O10   C32   S    
C1    O1    A    
C36   H27   S    
C32   H10   S    
C2    O2    A    
C8    H30   S    
C28   H20   S    
C12   H3    S    
C36   H28   S    
C30   H22   S    
C25   C27   A    
C26   C28   A    
Cu2   N1    S    
C28   C30   A    
C13   N2    A    
C20   O10   S    
C11   C13   A    
O11   C33   S    
C16   C19   S    
Cu1   O1    S    
C17   C19   D    
Cu1   O5    S    
C18   C20   D    
C8    N1    A    
C23   C25   A    
C5    O13   S    
C24   H18   S    
C34   H14   S    
Cu2   O8    S    
Cu1   O2    S    
C4    C30   A    
C29   H21   S    
