data_mof_unit_50904.cif
_audit_creation_date              2012-12-10T17:19:19-0500
_audit_creation_method            fapswitch 2.2
_symmetry_space_group_name_H-M    P1
_symmetry_Int_Tables_number       1
_space_group_crystal_system       triclinic
_cell_length_a                    18.33206
_cell_length_b                    18.332191
_cell_length_c                    34.364587
_cell_angle_alpha                 89.998327
_cell_angle_beta                  89.997675
_cell_angle_gamma                 89.99963
_cell_volume                      11548.7976427

loop_
_atom_site_label
_atom_site_type_symbol
_atom_type_description
_atom_site_fract_x
_atom_site_fract_y
_atom_site_fract_z
_atom_type_partial_charge
C1    C     C_R   0.633695 0.995471 0.520434 -0.050071
C2    C     C_R   0.866326 0.495834 0.979462 -0.049894
C3    C     C_R   0.508640 0.933375 0.958944 0.025571
C4    C     C_R   0.933370 0.508618 0.041058 0.025569
C5    C     C_R   0.066600 0.508558 0.958906 0.025487
C6    C     C_R   0.491434 0.933407 0.041093 0.025495
C7    C     C_R   0.491359 0.066635 0.958942 0.025564
C8    C     C_R   0.000002 0.500001 0.644251 0.882860
C9    C     C_R   0.999999 0.499997 0.355754 0.883074
C10   C     C_R   0.500000 0.000001 0.644246 0.883058
C11   C     C_R   0.499998 0.999999 0.355748 0.882876
C12   C     C_R   0.500001 0.000002 0.144252 0.882886
C13   C     C_R   0.504130 0.133680 0.020539 -0.049905
C14   C     C_R   0.499999 0.000001 0.855754 0.883051
C15   C     C_R   0.000003 0.500000 0.144246 0.883060
C16   C     C_R   0.999997 0.499999 0.855748 0.882863
C17   C     C_R   0.860159 0.639842 0.750000 0.780783
C18   C     C_R   0.139826 0.360174 0.250000 0.793023
C19   C     C_R   0.360161 0.860155 0.750003 0.780799
C20   C     C_R   0.639825 0.139826 0.249999 0.792786
C21   C     C_R   0.139843 0.360159 0.750000 0.780819
C22   C     C_R   0.860175 0.639828 0.250002 0.793028
C23   C     C_R   0.639845 0.139839 0.749997 0.780793
C24   C     C_R   0.504506 0.866311 0.979561 -0.050063
C25   C     C_R   0.360172 0.860177 0.250003 0.792778
C26   C     C_R   0.860158 0.360158 0.250001 0.780800
C27   C     C_R   0.139821 0.639830 0.749995 0.792779
C28   C     C_R   0.360158 0.139840 0.250001 0.780787
C29   C     C_R   0.639825 0.860173 0.750000 0.793008
C30   C     C_R   0.139842 0.639842 0.249999 0.780795
C31   C     C_R   0.860171 0.360178 0.750003 0.792771
C32   C     C_R   0.639842 0.860158 0.250000 0.780815
C33   C     C_R   0.360173 0.139825 0.749999 0.793028
C34   C     C_R   0.269703 0.622658 0.795652 -0.105510
C35   C     C_R   0.866305 0.504471 0.020446 -0.050049
C36   C     C_R   0.729170 0.378284 0.205303 -0.129597
C37   C     C_R   0.377773 0.270157 0.795245 -0.105684
C38   C     C_R   0.621257 0.728700 0.205752 -0.130128
C39   C     C_R   0.730286 0.377313 0.795673 -0.105528
C40   C     C_R   0.270838 0.621734 0.205294 -0.129619
C41   C     C_R   0.622232 0.729845 0.795269 -0.105662
C42   C     C_R   0.378754 0.271297 0.205750 -0.130122
C43   C     C_R   0.270208 0.377814 0.204789 -0.105691
C44   C     C_R   0.728730 0.621281 0.794291 -0.130091
C45   C     C_R   0.377342 0.730293 0.204347 -0.105512
C46   C     C_R   0.133674 0.504131 0.979454 -0.049893
C47   C     C_R   0.621715 0.270821 0.794700 -0.129581
C48   C     C_R   0.729832 0.622217 0.204767 -0.105685
C49   C     C_R   0.271290 0.378732 0.794259 -0.130122
C50   C     C_R   0.622667 0.269724 0.204346 -0.105525
C51   C     C_R   0.378262 0.729161 0.794710 -0.129606
C52   C     C_R   0.769715 0.122660 0.295652 -0.105523
C53   C     C_R   0.229170 0.878293 0.705309 -0.129579
C54   C     C_R   0.877771 0.770162 0.295249 -0.105696
C55   C     C_R   0.121263 0.228718 0.705739 -0.130127
C56   C     C_R   0.230281 0.877326 0.295664 -0.105522
C57   C     C_R   0.495865 0.866334 0.020544 -0.049901
C58   C     C_R   0.770833 0.121743 0.705286 -0.129583
C59   C     C_R   0.122182 0.229795 0.295211 -0.105693
C60   C     C_R   0.878724 0.771275 0.705713 -0.130106
C61   C     C_R   0.770160 0.877773 0.704737 -0.105661
C62   C     C_R   0.228688 0.121237 0.294242 -0.130136
C63   C     C_R   0.877330 0.230310 0.704333 -0.105510
C64   C     C_R   0.121714 0.770829 0.294701 -0.129581
C65   C     C_R   0.229836 0.122228 0.704754 -0.105694
C66   C     C_R   0.771285 0.878735 0.294261 -0.130130
C67   C     C_R   0.122686 0.769717 0.704327 -0.105535
C68   C     C_R   0.495494 0.133700 0.979555 -0.050045
C69   C     C_R   0.878265 0.229173 0.294708 -0.129595
C70   C     C_R   0.332701 0.613600 0.817798 -0.122140
C71   C     C_R   0.666338 0.387103 0.183006 -0.157712
C72   C     C_R   0.387060 0.333398 0.817165 -0.121761
C73   C     C_R   0.612216 0.665644 0.183662 -0.157705
C74   C     C_R   0.667276 0.386360 0.817814 -0.122160
C75   C     C_R   0.333678 0.612921 0.182999 -0.157712
C76   C     C_R   0.612960 0.666615 0.817207 -0.121736
C77   C     C_R   0.387812 0.334365 0.183670 -0.157689
C78   C     C_R   0.333461 0.387106 0.182875 -0.121719
C79   C     C_R   0.314372 0.740067 0.772289 0.071842
C80   C     C_R   0.665687 0.612250 0.816400 -0.157770
C81   C     C_R   0.386408 0.667284 0.182210 -0.122133
C82   C     C_R   0.612901 0.333642 0.817007 -0.157731
C83   C     C_R   0.666585 0.612926 0.182852 -0.121761
C84   C     C_R   0.334340 0.387767 0.816354 -0.157727
C85   C     C_R   0.613612 0.332737 0.182210 -0.122159
C86   C     C_R   0.387065 0.666329 0.817012 -0.157676
C87   C     C_R   0.832718 0.113605 0.317794 -0.122137
C88   C     C_R   0.166349 0.887109 0.683002 -0.157717
C89   C     C_R   0.887049 0.833398 0.317174 -0.121779
C90   C     C_R   0.685821 0.259607 0.227469 0.069810
C91   C     C_R   0.112224 0.165667 0.683646 -0.157758
C92   C     C_R   0.167269 0.886379 0.317803 -0.122164
C93   C     C_R   0.833655 0.112948 0.682973 -0.157654
C94   C     C_R   0.112884 0.166538 0.317121 -0.121711
C95   C     C_R   0.887758 0.834323 0.683609 -0.157772
C96   C     C_R   0.833394 0.887050 0.682803 -0.121726
C97   C     C_R   0.165616 0.112180 0.316320 -0.157685
C98   C     C_R   0.886380 0.167316 0.682181 -0.122151
C99   C     C_R   0.112897 0.833658 0.317003 -0.157698
C100  C     C_R   0.166593 0.112945 0.682835 -0.121753
C101  C     C_R   0.260160 0.314609 0.772063 0.071869
C102  C     C_R   0.834330 0.887767 0.316360 -0.157776
C103  C     C_R   0.113636 0.832731 0.682190 -0.122169
C104  C     C_R   0.887076 0.166341 0.317008 -0.157679
C105  C     C_R   0.499999 0.999990 0.520488 0.003978
C106  C     C_R   0.499996 0.999990 0.479489 0.004013
C107  C     C_R   0.000017 0.499992 0.520510 0.004015
C108  C     C_R   0.000012 0.499989 0.479512 0.003978
C109  C     C_R   0.000002 0.499987 0.020488 0.003976
C110  C     C_R   0.000000 0.499985 0.979490 0.004017
C111  C     C_R   0.499999 0.000007 0.020511 0.004016
C112  C     C_R   0.366323 0.995861 0.479460 -0.049898
C113  C     C_R   0.740166 0.685590 0.227690 0.069791
C114  C     C_R   0.500000 0.000006 0.979512 0.003979
C115  C     C_R   0.704330 0.000852 0.541438 0.139997
C116  C     C_R   0.719413 0.062320 0.564492 -0.135900
C117  C     C_R   0.786257 0.068205 0.583759 -0.144645
C118  C     C_R   0.838650 0.013235 0.579895 -0.152817
C119  C     C_R   0.824560 0.952776 0.556335 -0.122526
C120  C     C_R   0.757598 0.946161 0.537354 -0.089117
C121  C     C_R   0.295823 0.001683 0.458328 0.139604
C122  C     C_R   0.281483 0.063003 0.435020 -0.136559
C123  C     C_R   0.214966 0.069133 0.415451 -0.143259
C124  C     C_R   0.685619 0.259922 0.772288 0.071875
C125  C     C_R   0.162129 0.014590 0.419289 -0.154129
C126  C     C_R   0.175445 0.954320 0.443111 -0.123385
C127  C     C_R   0.242098 0.947429 0.462376 -0.088242
C128  C     C_R   0.998346 0.704164 0.541676 0.139620
C129  C     C_R   0.937032 0.718496 0.564992 -0.136540
C130  C     C_R   0.930895 0.785015 0.584557 -0.143362
C131  C     C_R   0.985424 0.837866 0.580708 -0.154157
C132  C     C_R   0.045687 0.824559 0.556878 -0.123379
C133  C     C_R   0.052589 0.757901 0.537619 -0.088233
C134  C     C_R   0.999088 0.295664 0.458557 0.139967
C135  C     C_R   0.314181 0.740403 0.227468 0.069825
C136  C     C_R   0.937616 0.280617 0.435499 -0.135923
C137  C     C_R   0.931708 0.213787 0.416222 -0.144535
C138  C     C_R   0.986656 0.161371 0.420078 -0.152814
C139  C     C_R   0.047117 0.175424 0.443642 -0.122541
C140  C     C_R   0.053756 0.242371 0.462635 -0.089116
C141  C     C_R   0.295678 0.999079 0.541459 0.139980
C142  C     C_R   0.280651 0.937617 0.564530 -0.135957
C143  C     C_R   0.213826 0.931702 0.583815 -0.144537
C144  C     C_R   0.161395 0.986636 0.579954 -0.152897
C145  C     C_R   0.175428 0.047088 0.556376 -0.122584
C146  C     C_R   0.739847 0.685395 0.772078 0.071873
C147  C     C_R   0.242371 0.053733 0.537376 -0.089091
C148  C     C_R   0.704159 0.998250 0.458309 0.139600
C149  C     C_R   0.718457 0.936922 0.434999 -0.136581
C150  C     C_R   0.784963 0.930756 0.415422 -0.143215
C151  C     C_R   0.837828 0.985274 0.419247 -0.154218
C152  C     C_R   0.824558 0.045547 0.443074 -0.123399
C153  C     C_R   0.757916 0.052473 0.462349 -0.088190
C154  C     C_R   0.001724 0.295828 0.541689 0.139587
C155  C     C_R   0.063052 0.281521 0.564995 -0.136567
C156  C     C_R   0.069209 0.215016 0.584573 -0.143230
C157  C     C_R   0.259852 0.314422 0.227698 0.069784
C158  C     C_R   0.014680 0.162161 0.580752 -0.154225
C159  C     C_R   0.954405 0.175441 0.556929 -0.123406
C160  C     C_R   0.947488 0.242082 0.537652 -0.088200
C161  C     C_R   0.000915 0.704316 0.458545 0.139990
C162  C     C_R   0.062370 0.719362 0.435472 -0.135949
C163  C     C_R   0.068267 0.786194 0.416193 -0.144576
C164  C     C_R   0.013324 0.838614 0.420063 -0.152875
C165  C     C_R   0.952881 0.824563 0.443644 -0.122576
C166  C     C_R   0.946252 0.757612 0.462637 -0.089096
C167  C     C_R   0.204322 0.500938 0.041451 0.139954
C168  C     C_R   0.314624 0.260167 0.227945 0.071873
C169  C     C_R   0.219325 0.562399 0.064524 -0.135958
C170  C     C_R   0.286138 0.568325 0.083816 -0.144498
C171  C     C_R   0.338583 0.513404 0.079959 -0.152851
C172  C     C_R   0.324577 0.452955 0.056377 -0.122575
C173  C     C_R   0.257644 0.446298 0.037371 -0.089095
C174  C     C_R   0.795822 0.501649 0.958330 0.139620
C175  C     C_R   0.781477 0.562967 0.935020 -0.136517
C176  C     C_R   0.714952 0.569100 0.915461 -0.143360
C177  C     C_R   0.662109 0.514564 0.919308 -0.154150
C178  C     C_R   0.675430 0.454296 0.943132 -0.123374
C179  C     C_R   0.685597 0.740171 0.772330 0.069771
C180  C     C_R   0.742094 0.447398 0.962386 -0.088248
C181  C     C_R   0.498315 0.204182 0.041670 0.139615
C182  C     C_R   0.436992 0.218535 0.064975 -0.136542
C183  C     C_R   0.430864 0.285059 0.084536 -0.143257
C184  C     C_R   0.485413 0.337890 0.080697 -0.154120
C185  C     C_R   0.545686 0.324560 0.056877 -0.123380
C186  C     C_R   0.552575 0.257900 0.037620 -0.088253
C187  C     C_R   0.499106 0.795683 0.958549 0.139986
C188  C     C_R   0.437646 0.780638 0.935481 -0.135929
C189  C     C_R   0.431746 0.713808 0.916203 -0.144607
C190  C     C_R   0.259929 0.685629 0.227711 0.071853
C191  C     C_R   0.486692 0.661390 0.920068 -0.152876
C192  C     C_R   0.547143 0.675443 0.943641 -0.122547
C193  C     C_R   0.553773 0.742391 0.962635 -0.089076
C194  C     C_R   0.795681 0.499054 0.041462 0.139969
C195  C     C_R   0.780657 0.437593 0.064535 -0.135964
C196  C     C_R   0.713834 0.431679 0.083822 -0.144536
C197  C     C_R   0.661403 0.486613 0.079963 -0.152890
C198  C     C_R   0.675432 0.547062 0.056383 -0.122581
C199  C     C_R   0.742371 0.553706 0.037380 -0.089077
C200  C     C_R   0.204173 0.498308 0.958318 0.139597
C201  C     C_R   0.740396 0.314171 0.772539 0.069797
C202  C     C_R   0.218515 0.436982 0.935015 -0.136544
C203  C     C_R   0.285033 0.430848 0.915446 -0.143290
C204  C     C_R   0.337866 0.485397 0.919273 -0.154158
C205  C     C_R   0.324550 0.545672 0.943091 -0.123374
C206  C     C_R   0.257897 0.552566 0.962358 -0.088245
C207  C     C_R   0.501686 0.795833 0.041678 0.139621
C208  C     C_R   0.563014 0.781487 0.064979 -0.136562
C209  C     C_R   0.569154 0.714961 0.084540 -0.143268
C210  C     C_R   0.514609 0.662125 0.080706 -0.154130
C211  C     C_R   0.454333 0.675445 0.056889 -0.123366
C212  C     C_R   0.685386 0.739835 0.227943 0.071870
C213  C     C_R   0.447433 0.742106 0.037631 -0.088228
C214  C     C_R   0.500916 0.204323 0.958539 0.139979
C215  C     C_R   0.562381 0.219341 0.935468 -0.135965
C216  C     C_R   0.568301 0.286161 0.916180 -0.144544
C217  C     C_R   0.513369 0.338595 0.920037 -0.152907
C218  C     C_R   0.452915 0.324572 0.943615 -0.122584
C219  C     C_R   0.446265 0.257635 0.962620 -0.089077
C220  C     C_R   0.004165 0.633665 0.520541 -0.049895
C221  C     C_R   0.314405 0.259829 0.772317 0.069793
C222  C     C_R   0.740072 0.314382 0.227715 0.071861
C223  C     C_R   0.259597 0.685816 0.772529 0.069834
C224  C     C_R   0.814374 0.240072 0.272288 0.071853
C225  C     C_R   0.185826 0.759606 0.727462 0.069793
C226  C     C_R   0.760159 0.814612 0.272063 0.071887
C227  C     C_R   0.240166 0.185595 0.727683 0.069784
C228  C     C_R   0.185617 0.759926 0.272288 0.071858
C229  C     C_R   0.814179 0.240408 0.727464 0.069830
C230  C     C_R   0.239826 0.185372 0.272052 0.071871
C231  C     C_R   0.004501 0.366293 0.479564 -0.050053
C232  C     C_R   0.759830 0.814405 0.727673 0.069777
C233  C     C_R   0.814607 0.760155 0.727924 0.071870
C234  C     C_R   0.185574 0.240147 0.272302 0.069784
C235  C     C_R   0.759930 0.185631 0.727707 0.071839
C236  C     C_R   0.240394 0.814176 0.272536 0.069802
C237  C     C_R   0.185387 0.239843 0.727936 0.071891
C238  C     C_R   0.814406 0.759834 0.272318 0.069784
C239  C     C_R   0.240073 0.814385 0.727716 0.071874
C240  C     C_R   0.759602 0.185818 0.272530 0.069819
C241  C     C_R   0.304032 0.804034 0.750004 -0.141985
C242  C     C_R   0.366303 0.004495 0.520445 -0.050046
C243  C     C_R   0.695923 0.195922 0.249998 -0.140829
C244  C     C_R   0.195966 0.304034 0.749999 -0.142002
C245  C     C_R   0.804078 0.695924 0.250003 -0.140822
C246  C     C_R   0.695967 0.195966 0.749997 -0.141982
C247  C     C_R   0.304077 0.804079 0.250003 -0.140825
C248  C     C_R   0.804034 0.695967 0.750000 -0.141990
C249  C     C_R   0.195923 0.304076 0.250000 -0.140806
C250  C     C_R   0.304033 0.195963 0.250000 -0.141981
C251  C     C_R   0.695923 0.804076 0.750000 -0.140811
C252  C     C_R   0.195965 0.695969 0.249999 -0.141984
C253  C     C_R   0.633668 0.004106 0.479450 -0.049889
C254  C     C_R   0.804077 0.304079 0.750003 -0.140821
C255  C     C_R   0.695966 0.804034 0.250001 -0.142005
C256  C     C_R   0.304075 0.195921 0.750000 -0.140819
C257  C     C_R   0.804032 0.304035 0.250002 -0.141982
C258  C     C_R   0.195921 0.695923 0.749994 -0.140824
C259  C     C_R   0.437356 0.022254 0.581643 0.062944
C260  C     C_R   0.562588 0.022322 0.418344 0.063005
C261  C     C_R   0.977676 0.437405 0.581656 0.063017
C262  C     C_R   0.977750 0.562637 0.418358 0.062931
C263  C     C_R   0.562650 0.977741 0.581642 0.062950
C264  C     C_R   0.995875 0.366320 0.520549 -0.049883
C265  C     C_R   0.437398 0.977671 0.418346 0.062996
C266  C     C_R   0.022351 0.562586 0.581652 0.062985
C267  C     C_R   0.022243 0.437336 0.418356 0.062951
C268  C     C_R   0.937357 0.522247 0.081643 0.062949
C269  C     C_R   0.062591 0.522323 0.918344 0.063015
C270  C     C_R   0.477674 0.937411 0.081656 0.062994
C271  C     C_R   0.477737 0.062647 0.918357 0.062952
C272  C     C_R   0.062653 0.477744 0.081642 0.062946
C273  C     C_R   0.937405 0.477658 0.918347 0.062981
C274  C     C_R   0.522320 0.062604 0.081654 0.062994
C275  C     C_R   0.995520 0.633687 0.479558 -0.050055
C276  C     C_R   0.522262 0.937360 0.918358 0.062947
C277  C     C_R   0.500003 0.000001 0.601818 -0.119867
C278  C     C_R   0.499994 0.999998 0.398162 -0.120216
C279  C     C_R   0.000007 0.499998 0.601837 -0.120225
C280  C     C_R   0.999996 0.499989 0.398182 -0.119864
C281  C     C_R   0.000005 0.500000 0.101819 -0.119886
C282  C     C_R   0.999997 0.499996 0.898163 -0.120210
C283  C     C_R   0.500000 0.000005 0.101837 -0.120201
C284  C     C_R   0.499998 0.000002 0.898182 -0.119884
C285  C     C_R   0.566633 0.991351 0.541054 0.025577
C286  C     C_R   0.133698 0.495502 0.020438 -0.050033
C287  C     C_R   0.433395 0.991428 0.458909 0.025497
C288  C     C_R   0.008592 0.566591 0.541090 0.025494
C289  C     C_R   0.008634 0.433354 0.458944 0.025573
C290  C     C_R   0.433369 0.008630 0.541057 0.025566
C291  C     C_R   0.566594 0.008554 0.458905 0.025486
C292  C     C_R   0.991443 0.433395 0.541094 0.025483
C293  C     C_R   0.991378 0.566622 0.458943 0.025575
C294  C     C_R   0.066635 0.491360 0.041055 0.025560
C295  C     C_R   0.933399 0.491413 0.958911 0.025497
C296  C     C_R   0.508561 0.066609 0.041091 0.025501
H1    H     H_    0.229035 0.579940 0.797031 0.125502
H2    H     H_    0.768578 0.577731 0.794958 0.120866
H3    H     H_    0.105481 0.679355 0.432479 0.144429
H4    H     H_    0.115872 0.797592 0.398619 0.154775
H5    H     H_    0.018059 0.890468 0.405204 0.109208
H6    H     H_    0.911223 0.865480 0.447437 0.140162
H7    H     H_    0.898693 0.747156 0.480482 0.134069
H8    H     H_    0.179296 0.605491 0.067510 0.144432
H9    H     H_    0.297499 0.615932 0.101393 0.154798
H10   H     H_    0.390423 0.518162 0.094829 0.109201
H11   H     H_    0.365513 0.411314 0.052596 0.140108
H12   H     H_    0.247220 0.398731 0.019529 0.134077
H13   H     H_    0.420062 0.770961 0.202965 0.125494
H14   H     H_    0.821836 0.605746 0.932017 0.144414
H15   H     H_    0.704130 0.616555 0.897667 0.155541
H16   H     H_    0.610482 0.519490 0.904244 0.109425
H17   H     H_    0.634177 0.412961 0.946884 0.139387
H18   H     H_    0.752016 0.399908 0.980367 0.134116
H19   H     H_    0.394206 0.178184 0.067972 0.144419
H20   H     H_    0.383408 0.295891 0.102327 0.155554
H21   H     H_    0.480494 0.389513 0.095764 0.109429
H22   H     H_    0.587032 0.365802 0.053134 0.139385
H23   H     H_    0.600070 0.247970 0.019643 0.134122
H24   H     H_    0.578163 0.230976 0.795363 0.120737
H25   H     H_    0.394532 0.820643 0.932493 0.144424
H26   H     H_    0.384136 0.702410 0.898634 0.154742
H27   H     H_    0.481952 0.609535 0.905211 0.109199
H28   H     H_    0.588805 0.634529 0.947429 0.140129
H29   H     H_    0.601337 0.752848 0.980474 0.134073
H30   H     H_    0.820674 0.394490 0.067521 0.144433
H31   H     H_    0.702453 0.384069 0.101396 0.154804
H32   H     H_    0.609555 0.481864 0.094828 0.109211
H33   H     H_    0.634505 0.588713 0.052600 0.140113
H34   H     H_    0.752811 0.601271 0.019537 0.134075
H35   H     H_    0.770504 0.579507 0.203369 0.125481
H36   H     H_    0.178160 0.394197 0.932025 0.144419
H37   H     H_    0.295855 0.383385 0.897660 0.155563
H38   H     H_    0.389481 0.480477 0.904196 0.109428
H39   H     H_    0.365796 0.587017 0.946827 0.139356
H40   H     H_    0.247976 0.600062 0.980333 0.134130
H41   H     H_    0.605796 0.821843 0.067972 0.144412
H42   H     H_    0.616618 0.704134 0.102324 0.155554
H43   H     H_    0.519534 0.610502 0.095775 0.109426
H44   H     H_    0.412994 0.634196 0.053146 0.139376
H45   H     H_    0.399937 0.752029 0.019655 0.134120
H46   H     H_    0.231450 0.422287 0.794920 0.120875
H47   H     H_    0.605481 0.179322 0.932484 0.144431
H48   H     H_    0.615914 0.297536 0.898608 0.154805
H49   H     H_    0.518123 0.390440 0.905170 0.109218
H50   H     H_    0.411265 0.365500 0.947396 0.140127
H51   H     H_    0.398697 0.247199 0.980461 0.134076
H52   H     H_    0.579950 0.229056 0.202961 0.125497
H53   H     H_    0.421806 0.769012 0.795388 0.120718
H54   H     H_    0.729050 0.079938 0.297031 0.125492
H55   H     H_    0.269013 0.921847 0.704649 0.120739
H56   H     H_    0.920478 0.729488 0.296650 0.125479
H57   H     H_    0.769020 0.421830 0.204632 0.120735
H58   H     H_    0.077710 0.268562 0.705076 0.120878
H59   H     H_    0.270950 0.920042 0.297049 0.125491
H60   H     H_    0.730988 0.078193 0.704616 0.120719
H61   H     H_    0.079463 0.270461 0.296604 0.125471
H62   H     H_    0.922274 0.731428 0.705045 0.120864
H63   H     H_    0.729490 0.920489 0.703340 0.125484
H64   H     H_    0.268537 0.077689 0.294909 0.120875
H65   H     H_    0.920045 0.270981 0.702951 0.125504
H66   H     H_    0.078164 0.730982 0.295370 0.120730
H67   H     H_    0.270510 0.079516 0.703355 0.125473
H68   H     H_    0.420480 0.229482 0.796646 0.125483
H69   H     H_    0.731442 0.922288 0.294921 0.120879
H70   H     H_    0.079977 0.729041 0.702930 0.125497
H71   H     H_    0.921807 0.269026 0.295383 0.120728
H72   H     H_    0.065683 0.839385 0.664235 0.134207
H73   H     H_    0.936007 0.158771 0.334040 0.128569
H74   H     H_    0.159751 0.064803 0.665050 0.133797
H75   H     H_    0.842069 0.936871 0.333226 0.128530
H76   H     H_    0.934342 0.160672 0.664230 0.134208
H77   H     H_    0.063951 0.841238 0.334026 0.128576
H78   H     H_    0.840234 0.935190 0.665008 0.133816
H79   H     H_    0.577706 0.768541 0.205089 0.120878
H80   H     H_    0.157862 0.063061 0.333177 0.128491
H81   H     H_    0.064720 0.159676 0.334891 0.133746
H82   H     H_    0.936860 0.842058 0.666734 0.128512
H83   H     H_    0.160612 0.934342 0.335750 0.134175
H84   H     H_    0.841225 0.064021 0.665937 0.128580
H85   H     H_    0.935184 0.840234 0.334966 0.133810
H86   H     H_    0.063112 0.157926 0.666785 0.128526
H87   H     H_    0.839379 0.065632 0.335733 0.134179
H88   H     H_    0.158774 0.936057 0.665983 0.128588
H89   H     H_    0.565645 0.339398 0.164267 0.134171
H90   H     H_    0.770957 0.420027 0.797063 0.125498
H91   H     H_    0.435991 0.658756 0.834049 0.128576
H92   H     H_    0.659738 0.564780 0.165070 0.133783
H93   H     H_    0.342086 0.436875 0.833217 0.128512
H94   H     H_    0.434388 0.660621 0.164275 0.134164
H95   H     H_    0.563957 0.341215 0.834031 0.128590
H96   H     H_    0.340327 0.435270 0.165106 0.133734
H97   H     H_    0.657955 0.563151 0.833277 0.128519
H98   H     H_    0.564825 0.659778 0.835007 0.133820
H99   H     H_    0.436926 0.342110 0.166808 0.128498
H100  H     H_    0.660622 0.434315 0.835767 0.134217
H101  H     H_    0.230988 0.578188 0.204620 0.120726
H102  H     H_    0.341260 0.563983 0.165974 0.128558
H103  H     H_    0.435203 0.340239 0.834952 0.133797
H104  H     H_    0.563103 0.657893 0.166804 0.128499
H105  H     H_    0.339352 0.565631 0.835743 0.134193
H106  H     H_    0.658761 0.436047 0.165983 0.128580
H107  H     H_    0.679428 0.105452 0.567479 0.144428
H108  H     H_    0.797684 0.115821 0.601318 0.154702
H109  H     H_    0.890515 0.017964 0.594743 0.109193
H110  H     H_    0.865454 0.911095 0.552548 0.140152
H111  H     H_    0.747113 0.898591 0.519523 0.134075
H112  H     H_    0.579516 0.770514 0.796668 0.125477
H113  H     H_    0.321840 0.105784 0.432023 0.144418
H114  H     H_    0.204146 0.116586 0.397657 0.155561
H115  H     H_    0.110511 0.019512 0.404217 0.109435
H116  H     H_    0.134199 0.912978 0.446851 0.139368
H117  H     H_    0.252019 0.899936 0.480354 0.134124
H118  H     H_    0.894259 0.678131 0.567997 0.144415
H119  H     H_    0.883443 0.795827 0.602355 0.155556
H120  H     H_    0.980494 0.889489 0.595776 0.109429
H121  H     H_    0.087015 0.865818 0.553125 0.139377
H122  H     H_    0.100076 0.747989 0.519633 0.134114
H123  H     H_    0.422297 0.231442 0.205079 0.120877
H124  H     H_    0.894502 0.320621 0.432517 0.144434
H125  H     H_    0.884093 0.202389 0.398657 0.154753
H126  H     H_    0.981910 0.109517 0.405221 0.109198
H127  H     H_    0.088781 0.134511 0.447423 0.140128
H128  H     H_    0.101329 0.252830 0.480466 0.134080
H129  H     H_    0.320667 0.894514 0.567517 0.144430
H130  H     H_    0.202443 0.884092 0.601388 0.154798
H131  H     H_    0.109545 0.981885 0.594816 0.109217
H132  H     H_    0.134503 0.088739 0.552590 0.140151
H133  H     H_    0.252814 0.101300 0.519535 0.134074
H134  H     H_    0.229547 0.420538 0.203399 0.125456
H135  H     H_    0.678076 0.894162 0.432009 0.144415
H136  H     H_    0.795750 0.883292 0.397630 0.155613
H137  H     H_    0.889434 0.980329 0.404164 0.109435
H138  H     H_    0.865831 0.086864 0.446809 0.139326
H139  H     H_    0.748031 0.099970 0.480330 0.134123
H140  H     H_    0.105820 0.321894 0.567983 0.144417
H141  H     H_    0.116671 0.204221 0.602364 0.155600
H142  H     H_    0.019616 0.110556 0.595836 0.109438
H143  H     H_    0.913077 0.134177 0.553198 0.139317
H144  H     H_    0.899990 0.251976 0.519675 0.134132
I1    I     I_    0.357952 0.086181 0.613195 -0.380233
I2    I     I_    0.141842 0.586635 0.886928 -0.379898
I3    I     I_    0.413366 0.858157 0.113071 -0.379904
I4    I     I_    0.413807 0.142047 0.886805 -0.380225
I5    I     I_    0.142066 0.413836 0.113198 -0.380193
I6    I     I_    0.858159 0.413341 0.886936 -0.379934
I7    I     I_    0.586609 0.141866 0.113072 -0.379961
I8    I     I_    0.586190 0.857959 0.886804 -0.380230
I9    I     I_    0.641844 0.086637 0.386933 -0.379897
I10   I     I_    0.913353 0.358159 0.613068 -0.379904
I11   I     I_    0.913823 0.642042 0.386808 -0.380248
I12   I     I_    0.642062 0.913843 0.613206 -0.380269
I13   I     I_    0.358143 0.913371 0.386931 -0.379940
I14   I     I_    0.086680 0.641826 0.613060 -0.379913
I15   I     I_    0.086119 0.357911 0.386788 -0.380260
I16   I     I_    0.857949 0.586169 0.113196 -0.380229
O1    O     O_3   1.000000 0.500000 0.750000 -0.507872
O2    O     O_R   0.060740 0.500000 0.337440 -0.615108
O3    O     O_R   0.500000 0.939260 0.662560 -0.615104
O4    O     O_R   0.500000 0.060740 0.337440 -0.615184
O5    O     O_R   0.560740 1.000000 0.162560 -0.615197
O6    O     O_R   0.439260 1.000000 0.837440 -0.615115
O7    O     O_R   1.000000 0.560740 0.162560 -0.615113
O8    O     O_R   1.000000 0.439260 0.837440 -0.615190
O9    O     O_R   0.439260 1.000000 0.162560 -0.615180
O10   O     O_R   0.560740 1.000000 0.837440 -0.615101
O11   O     O_R   1.000000 0.439260 0.162560 -0.615106
O12   O     O_3   0.000000 0.500000 0.250000 -0.507877
O13   O     O_R   1.000000 0.560740 0.837440 -0.615185
O14   O     O_R   0.853850 0.585450 0.727070 -0.632879
O15   O     O_R   0.146150 0.414550 0.272930 -0.622919
O16   O     O_R   0.414550 0.853850 0.727070 -0.632825
O17   O     O_R   0.585450 0.146150 0.272930 -0.622889
O18   O     O_R   0.146150 0.414550 0.727070 -0.632885
O19   O     O_R   0.853850 0.585450 0.272930 -0.622925
O20   O     O_R   0.585450 0.146150 0.727070 -0.632841
O21   O     O_R   0.414550 0.853850 0.272930 -0.622907
O22   O     O_R   0.853850 0.414550 0.272930 -0.632843
O23   O     O_3   0.500000 1.000000 0.750000 -0.507879
O24   O     O_R   0.146150 0.585450 0.727070 -0.622913
O25   O     O_R   0.414550 0.146150 0.272930 -0.632882
O26   O     O_R   0.585450 0.853850 0.727070 -0.622909
O27   O     O_R   0.146150 0.585450 0.272930 -0.632836
O28   O     O_R   0.853850 0.414550 0.727070 -0.622883
O29   O     O_R   0.585450 0.853850 0.272930 -0.632885
O30   O     O_R   0.414550 0.146150 0.727070 -0.622915
O31   O     O_R   0.353850 0.085450 0.227070 -0.632884
O32   O     O_R   0.646150 0.914550 0.772930 -0.622912
O33   O     O_R   0.914550 0.353850 0.227070 -0.632836
O34   O     O_3   0.500000 0.000000 0.250000 -0.507870
O35   O     O_R   0.085450 0.646150 0.772930 -0.622877
O36   O     O_R   0.646150 0.914550 0.227070 -0.632884
O37   O     O_R   0.353850 0.085450 0.772930 -0.622919
O38   O     O_R   0.085450 0.646150 0.227070 -0.632847
O39   O     O_R   0.914550 0.353850 0.772930 -0.622906
O40   O     O_R   0.353850 0.914550 0.772930 -0.632853
O41   O     O_R   0.646150 0.085450 0.227070 -0.622909
O42   O     O_R   0.914550 0.646150 0.772930 -0.632878
O43   O     O_R   0.085450 0.353850 0.227070 -0.622915
O44   O     O_R   0.646150 0.085450 0.772930 -0.632832
O45   O     O_R   0.060740 0.500000 0.662560 -0.615196
O46   O     O_R   0.353850 0.914550 0.227070 -0.622890
O47   O     O_R   0.085450 0.353850 0.772930 -0.632876
O48   O     O_R   0.914550 0.646150 0.227070 -0.622913
O49   O     O_R   0.939260 0.500000 0.337440 -0.615106
O50   O     O_R   0.500000 0.060740 0.662560 -0.615105
O51   O     O_R   0.500000 0.939260 0.337440 -0.615199
O52   O     O_R   0.939260 0.500000 0.662560 -0.615187
Zn1   Zn    Zn3+2 1.000000 0.586740 0.782740 0.997844
Zn2   Zn    Zn3+2 0.500000 0.913260 0.717260 0.998015
Zn3   Zn    Zn3+2 0.913260 0.500000 0.282740 0.998021
Zn4   Zn    Zn3+2 0.086740 0.500000 0.717260 0.997839
Zn5   Zn    Zn3+2 0.500000 0.913260 0.282740 0.997837
Zn6   Zn    Zn3+2 0.500000 0.086740 0.717260 0.998020
Zn7   Zn    Zn3+2 0.086740 0.500000 0.282740 0.998011
Zn8   Zn    Zn3+2 0.913260 0.500000 0.717260 0.997838
Zn9   Zn    Zn3+2 1.000000 0.413260 0.217260 0.998018
Zn10  Zn    Zn3+2 0.413260 0.000000 0.782740 0.998009
Zn11  Zn    Zn3+2 0.586740 0.000000 0.217260 0.997845
Zn12  Zn    Zn3+2 1.000000 0.413260 0.782740 0.997846
Zn13  Zn    Zn3+2 1.000000 0.586740 0.217260 0.998013
Zn14  Zn    Zn3+2 0.586740 0.000000 0.782740 0.998013
Zn15  Zn    Zn3+2 0.413260 0.000000 0.217260 0.997846
Zn16  Zn    Zn3+2 0.500000 0.086740 0.282740 0.997845

loop_
_geom_bond_atom_site_label_1
_geom_bond_atom_site_label_2
_ccdc_geom_bond_type
C22   O48   A    
C231  C264  A    
C126  C127  A    
C99   H77   S    
C177  H16   S    
C118  C119  A    
C47   C124  A    
C3    C276  A    
O22   Zn3   S    
O6    Zn10  S    
O52   Zn8   S    
C169  H8    S    
C17   O42   A    
C63   C98   A    
C122  H113  S    
C6    C270  A    
C170  H9    S    
C143  C144  A    
C31   O28   A    
C266  I14   S    
C264  C292  A    
C39   C74   A    
C182  C183  A    
C7    C68   A    
C98   H76   S    
C49   H46   S    
C50   C90   A    
C77   H99   S    
C143  H130  S    
C147  H133  S    
C76   H98   S    
C91   C100  A    
O47   Zn12  S    
C173  H12   S    
C36   C71   A    
O3    Zn2   S    
C112  C242  A    
C221  C256  A    
O10   Zn14  S    
C187  C193  A    
C253  C291  A    
C157  C168  A    
C229  C254  A    
O45   Zn4   S    
C206  H40   S    
C274  I7    S    
C33   O37   A    
C202  C203  A    
C106  C287  A    
C46   C286  A    
C94   H81   S    
C54   C238  A    
C58   C235  A    
C199  H34   S    
C196  C197  A    
O48   Zn13  S    
C94   C97   A    
C181  C182  A    
C65   H67   S    
C15   O7    A    
C140  H128  S    
C215  C216  A    
C153  H139  S    
C18   O15   A    
C93   H84   S    
C108  C293  A    
C137  H125  S    
C262  C293  A    
C271  C284  A    
C55   C237  A    
C52   H54   S    
C27   O24   A    
C72   C84   A    
C182  H19   S    
C151  H137  S    
C158  C159  A    
C225  C239  A    
C43   H134  S    
C44   H2    S    
C86   H91   S    
C32   O36   A    
C63   H65   S    
C148  C153  A    
C7    C114  A    
C19   O16   A    
C105  C106  A    
C82   H95   S    
C13   C296  A    
C237  C244  A    
C2    C295  A    
C45   C81   A    
C60   C233  A    
C113  C212  A    
C144  C145  A    
C157  C249  A    
C8    O45   A    
C197  H32   S    
C139  C140  A    
C25   O21   A    
C265  C287  A    
C276  C284  A    
C5    C46   A    
C268  C281  A    
O12   Zn7   S    
C141  C242  S    
C27   O35   A    
C124  C201  A    
C23   C246  S    
C156  C158  A    
C130  C131  A    
C23   O44   A    
O1    Zn8   S    
C37   C221  A    
C41   C76   A    
O23   Zn2   S    
C26   C257  S    
C113  C245  A    
C238  C245  A    
C230  C234  A    
C79   C241  A    
C124  C246  A    
C267  I15   S    
C123  C125  A    
C19   C241  S    
C195  C196  A    
C60   C95   A    
O26   Zn2   S    
C200  C202  A    
O11   Zn9   S    
C155  C156  A    
C42   H123  S    
C1    C115  S    
C38   C212  A    
C149  C150  A    
C178  H17   S    
C73   C83   A    
C11   O51   A    
C224  C257  A    
O29   Zn5   S    
C20   C243  S    
C9    O49   A    
C4    C109  A    
C263  C285  A    
C75   H102  S    
C95   C96   A    
C6    C111  A    
C128  C129  A    
C166  H7    S    
C61   C96   A    
C67   C103  A    
C167  C169  A    
C70   H105  S    
C158  H142  S    
C28   O31   A    
C142  H129  S    
C273  C282  A    
C26   O33   A    
C50   H52   S    
C110  C295  A    
C167  C286  S    
C265  C278  A    
C170  C171  A    
C201  C254  A    
C261  C292  A    
C267  C280  A    
C61   C232  A    
C184  C185  A    
C65   C227  A    
C20   O17   A    
C189  C191  A    
C31   O39   A    
C174  C175  A    
O23   Zn14  S    
C161  C275  S    
C35   C194  S    
C30   O27   A    
C64   C99   A    
C30   C252  S    
C24   C57   A    
C16   O8    A    
C156  H141  S    
C9    C280  S    
C128  C220  S    
C11   C278  S    
O27   Zn7   S    
C83   H92   S    
C19   O40   A    
C220  C275  A    
C69   H71   S    
C3    C24   A    
C202  H36   S    
C192  H28   S    
C204  H38   S    
C73   H104  S    
C66   H69   S    
C16   O13   A    
O12   Zn9   S    
C218  H50   S    
C135  C247  A    
C138  C139  A    
C141  C147  A    
O5    Zn11  S    
C217  C218  A    
C78   H96   S    
C105  C285  A    
C125  H115  S    
C126  H116  S    
C18   O43   A    
C72   H103  S    
C150  H136  S    
C135  C190  A    
C91   H86   S    
C53   H55   S    
C62   C97   A    
O34   Zn16  S    
C87   H87   S    
C209  C210  A    
C239  C241  A    
C41   H112  S    
C183  H20   S    
C224  C240  A    
O36   Zn11  S    
C96   H78   S    
C226  C255  A    
C59   C94   A    
C13   C181  S    
C259  C277  A    
C174  C180  A    
C8    C279  S    
C107  C292  A    
O33   Zn9   S    
C129  C130  A    
C191  C192  A    
O9    Zn15  S    
C132  H121  S    
C15   O11   A    
C85   H89   S    
C41   C179  A    
O38   Zn13  S    
C274  C283  A    
C76   C80   A    
O40   Zn10  S    
C136  C137  A    
C43   C157  A    
C3    C114  A    
C181  C186  A    
O28   Zn8   S    
C79   C223  A    
C227  C256  A    
C266  C279  A    
C168  C250  A    
C127  H117  S    
C54   H56   S    
C211  H44   S    
C48   C83   A    
C63   C229  A    
C220  C288  A    
C198  H33   S    
C112  C121  S    
C117  C118  A    
C270  I3    S    
C203  H37   S    
C48   H35   S    
C56   H59   S    
C194  C195  A    
C10   C277  S    
C197  C198  A    
C28   C250  S    
C84   H93   S    
C222  C257  A    
C154  C264  S    
C52   C240  A    
C112  C287  A    
C266  C288  A    
C58   H60   S    
C152  C153  A    
C42   C77   A    
C92   H83   S    
O18   Zn4   S    
C150  C151  A    
C48   C113  A    
C10   O50   A    
C263  I12   S    
C162  H3    S    
C92   C99   A    
C272  C294  A    
C261  I10   S    
C149  H135  S    
C13   C68   A    
C2    C35   A    
O34   Zn5   S    
C171  H10   S    
C213  H45   S    
O13   Zn1   S    
O1    Zn12  S    
C203  C204  A    
C195  H30   S    
C53   C239  A    
C1    C285  A    
C161  C162  A    
C77   C78   A    
C34   C223  A    
C43   C78   A    
C139  H127  S    
O19   Zn3   S    
C29   C251  S    
C95   H82   S    
C164  C165  A    
C58   C93   A    
C225  C258  A    
C121  C127  A    
O7    Zn13  S    
C21   O18   A    
C49   C101  A    
C242  C290  A    
C67   C225  A    
C18   C249  S    
C146  C248  A    
C155  H140  S    
C234  C249  A    
C273  C295  A    
C118  H109  S    
O15   Zn7   S    
C101  C244  A    
C274  C296  A    
C55   C91   A    
C275  C293  A    
C50   C85   A    
C165  H6    S    
O30   Zn6   S    
C1    C253  A    
C208  C209  A    
C176  H15   S    
O16   Zn2   S    
C151  C152  A    
C102  H75   S    
C39   H90   S    
C68   C214  S    
C34   C70   A    
C235  C246  A    
C167  C173  A    
C97   H80   S    
C209  H42   S    
C4    C35   A    
C88   H88   S    
C6    C57   A    
O14   Zn8   S    
C74   C82   A    
C51   C86   A    
C145  C147  A    
C42   C168  A    
C11   O4    A    
O4    Zn16  S    
C152  H138  S    
C9    O2    A    
C207  C208  A    
C44   C80   A    
C71   H106  S    
C259  C290  A    
C14   C284  S    
C189  H26   S    
C160  H144  S    
C240  C243  A    
C104  H73   S    
C229  C235  A    
C223  C258  A    
C260  C278  A    
C159  C160  A    
C261  C279  A    
O17   Zn16  S    
C262  C280  A    
C66   C226  A    
C268  I16   S    
C81   H94   S    
C61   H63   S    
C232  C251  A    
C89   H85   S    
C121  C122  A    
C36   H57   S    
C117  H108  S    
O34   Zn11  S    
O12   Zn13  S    
O49   Zn3   S    
C24   C187  S    
C125  C126  A    
C191  H27   S    
O39   Zn12  S    
C80   H97   S    
O24   Zn4   S    
C162  C163  A    
C10   O3    A    
C101  C221  A    
C272  C281  A    
C27   C258  S    
C33   C256  S    
C65   C100  A    
C26   O22   A    
O23   Zn6   S    
C178  C180  A    
C119  C120  A    
C32   O29   A    
C4    C268  A    
O1    Zn4   S    
C271  I4    S    
C5    C269  A    
C17   C248  S    
C40   C75   A    
C32   C255  S    
C159  H143  S    
C25   O46   A    
O12   Zn3   S    
C7    C271  A    
C45   H13   S    
C187  C188  A    
O2    Zn7   S    
O51   Zn5   S    
C163  H4    S    
C185  C186  A    
C212  C255  A    
C175  H14   S    
C60   H62   S    
C172  H11   S    
C232  C233  A    
O32   Zn14  S    
C146  C179  A    
C111  C114  A    
O44   Zn14  S    
C20   O41   A    
C231  C289  A    
C272  I5    S    
C12   C283  S    
C87   C104  A    
C100  H74   S    
C37   H68   S    
C177  C178  A    
C5    C110  A    
C37   C72   A    
C47   H24   S    
C215  H47   S    
C142  C143  A    
C105  C290  A    
C40   H101  S    
O50   Zn6   S    
C33   O30   A    
C208  H41   S    
C228  C252  A    
C171  C172  A    
C165  C166  A    
C226  C238  A    
O31   Zn15  S    
C89   C102  A    
C169  C170  A    
C66   C102  A    
C67   H70   S    
C163  C164  A    
C183  C184  A    
O34   Zn15  S    
C205  C206  A    
C286  C294  A    
C51   H53   S    
C196  H31   S    
C193  H29   S    
C38   H79   S    
C90   C222  A    
C214  C219  A    
C14   O6    A    
C134  C140  A    
C109  C294  A    
C17   O14   A    
C227  C237  A    
C207  C213  A    
C179  C251  A    
C116  C117  A    
C210  H43   S    
C136  H124  S    
C47   C82   A    
C184  H21   S    
C8    O52   A    
C120  H111  S    
C23   O20   A    
C141  C142  A    
C175  C176  A    
C29   O32   A    
C132  C133  A    
C28   O25   A    
C116  H107  S    
C44   C146  A    
C216  C217  A    
C64   H66   S    
C198  C199  A    
C270  C283  A    
O25   Zn16  S    
C161  C166  A    
C138  H126  S    
C12   O5    A    
C45   C135  A    
C185  H22   S    
C71   C85   A    
C90   C243  A    
C269  I2    S    
C164  H5    S    
C130  H119  S    
C236  C247  A    
C128  C133  A    
O21   Zn5   S    
C259  I1    S    
C55   H58   S    
C262  I11   S    
C265  I13   S    
C51   C79   A    
C219  H51   S    
C260  I9    S    
C228  C236  A    
C267  C289  A    
C148  C149  A    
O35   Zn1   S    
C54   C89   A    
C21   O47   A    
C14   O10   A    
C214  C215  A    
C75   C81   A    
C134  C136  A    
C62   C230  A    
C263  C277  A    
C31   C254  S    
C188  C189  A    
C123  H114  S    
O20   Zn6   S    
C22   O19   A    
C154  C160  A    
C131  H120  S    
C108  C289  A    
C46   C200  S    
C194  C199  A    
C115  C116  A    
C107  C108  A    
C133  H122  S    
C190  C252  A    
C154  C155  A    
C134  C231  S    
C204  C205  A    
C144  H131  S    
C21   C244  S    
C25   C247  S    
C176  C177  A    
C211  C213  A    
C12   O9    A    
C115  C120  A    
C205  H39   S    
C15   C281  S    
C59   C234  A    
O46   Zn15  S    
C70   C86   A    
C36   C222  A    
C64   C228  A    
C88   C103  A    
C172  C173  A    
C69   C104  A    
C49   C84   A    
C200  C206  A    
C111  C296  A    
C216  H48   S    
O37   Zn10  S    
C52   C87   A    
C56   C236  A    
C276  I8    S    
C22   C245  S    
C233  C248  A    
C273  I6    S    
C137  C138  A    
C57   C207  S    
O8    Zn12  S    
C69   C224  A    
C192  C193  A    
C119  H110  S    
C39   C201  A    
C107  C288  A    
C145  H132  S    
C106  C291  A    
C2    C174  S    
C218  C219  A    
C34   H1    S    
C180  H18   S    
C29   O26   A    
C30   O38   A    
O1    Zn1   S    
C129  H118  S    
C188  H25   S    
C53   C88   A    
C62   H64   S    
C16   C282  S    
C269  C282  A    
C260  C291  A    
C217  H49   S    
C59   H61   S    
C148  C253  S    
C40   C190  A    
C210  C211  A    
O41   Zn11  S    
C109  C110  A    
C186  H23   S    
O42   Zn1   S    
C103  H72   S    
O43   Zn9   S    
C122  C123  A    
C230  C250  A    
C56   C92   A    
C74   H100  S    
C93   C98   A    
O23   Zn10  S    
C131  C132  A    
C38   C73   A    
