data_mof_unit_57087.cif
_audit_creation_date              2012-12-10T18:58:41-0500
_audit_creation_method            fapswitch 2.2
_symmetry_space_group_name_H-M    P1
_symmetry_Int_Tables_number       1
_space_group_crystal_system       triclinic
_cell_length_a                    10.839075
_cell_length_b                    10.064649
_cell_length_c                    17.062185
_cell_angle_alpha                 91.969531
_cell_angle_beta                  98.062789
_cell_angle_gamma                 90.727125
_cell_volume                      1841.56255234

loop_
_atom_site_label
_atom_site_type_symbol
_atom_type_description
_atom_site_fract_x
_atom_site_fract_y
_atom_site_fract_z
_atom_type_partial_charge
C1    C     C_R   0.261000 0.497797 0.506810 0.987288
C2    C     C_R   0.501597 0.502594 0.648531 1.006069
C3    C     C_R   0.871305 0.497393 0.485969 -0.383534
C4    C     C_R   0.128324 0.489240 0.517836 -0.353395
C5    C     C_R   0.675679 0.576284 0.848285 0.265563
C6    C     C_R   0.666704 0.401116 0.176360 0.339274
C7    C     C_R   0.560503 0.604644 0.140585 0.277848
C8    C     C_R   0.556522 0.370444 0.854010 0.331441
C9    C     C_R   0.596220 0.609862 0.779528 0.290054
C10   C     C_R   0.587525 0.387858 0.233898 0.285527
C11   C     C_R   0.534951 0.620954 0.219843 0.245922
C12   C     C_R   0.738774 0.499901 0.494232 0.979567
C13   C     C_R   0.490118 0.395666 0.778776 0.313517
C14   C     C_R   0.522786 0.506859 0.737193 -0.371283
C15   C     C_R   0.538478 0.503622 0.267269 -0.396929
C16   C     C_R   0.585347 0.077415 0.553460 0.327564
C17   C     C_R   0.409033 0.923886 0.450423 0.333168
C18   C     C_R   0.413673 0.068329 0.448026 0.297441
C19   C     C_R   0.587623 0.931857 0.551836 0.299391
C20   C     C_R   0.647895 0.463426 0.888858 -0.247937
C21   C     C_R   0.641134 0.502382 0.122966 -0.292766
C22   C     C_1   0.673436 0.471723 0.973854 0.306169
C23   C     C_1   0.670507 0.484998 0.043759 0.273381
C24   C     C_R   0.058366 0.367492 0.503490 0.297080
C25   C     C_R   0.941247 0.615345 0.494806 0.328004
C26   C     C_R   0.930843 0.375569 0.477112 0.323903
C27   C     C_R   0.065618 0.608113 0.528174 0.356374
C28   C     C_R   0.506200 0.499938 0.351469 1.001898
H1    H     H_    0.928624 0.817283 0.838349 0.404105
H2    H     H_    0.223102 0.665327 0.318512 0.397169
H3    H     H_    0.204234 0.323765 0.336274 0.392566
H4    H     H_    0.796728 0.670347 0.658788 0.396504
H5    H     H_    0.074188 0.166535 0.677083 0.405367
H6    H     H_    0.969191 0.728860 0.299174 0.397510
H7    H     H_    0.917744 0.081328 0.347928 0.419352
H8    H     H_    0.071622 0.697048 0.736489 0.415329
H9    H     H_    0.829945 0.084233 0.199511 0.387065
H10   H     H_    0.339995 0.847041 0.043925 0.406605
H11   H     H_    0.409683 0.180515 0.994806 0.409179
H12   H     H_    0.593967 0.891552 0.887803 0.419879
H13   H     H_    0.332628 0.333237 0.165342 0.363920
H14   H     H_    0.663836 0.879077 0.205735 0.365863
H15   H     H_    0.206712 0.220431 0.806259 0.392642
H16   H     H_    0.768623 0.353140 0.687371 0.372659
N1    N     N_R   0.500000 0.857200 0.500000 -0.207096
N2    N     N_R   0.500000 0.142800 0.500000 -0.212501
O1    O     O_R   0.316770 0.614620 0.500000 -0.523686
O2    O     O_2   0.915979 0.578341 0.910434 -0.234672
O3    O     O_3   0.854856 0.765329 0.812588 -0.468122
O4    O     O_2   0.805333 0.254755 0.085451 -0.231262
O5    O     O_2   0.908819 0.353369 0.210491 -0.224881
O6    O     O_3   0.766745 0.146072 0.215376 -0.439692
O7    O     O_2   0.578557 0.798241 0.037859 -0.242390
O8    O     O_2   0.437581 0.611491 0.991778 -0.260183
O9    O     O_3   0.362914 0.785342 0.087393 -0.417070
O10   O     O_2   0.467464 0.114730 0.853197 -0.186042
O11   O     O_2   0.649329 0.176499 0.948500 -0.210421
O12   O     O_R   0.683230 0.385380 0.500000 -0.527652
O13   O     O_3   0.435215 0.266360 0.974764 -0.497600
O14   O     O_2   0.483670 0.820276 0.703107 -0.170748
O15   O     O_2   0.412297 0.752740 0.824469 -0.231189
O16   O     O_3   0.622024 0.882750 0.835124 -0.375521
O17   O     O_2   0.517251 0.160627 0.151001 -0.193284
O18   O     O_2   0.532918 0.158536 0.295308 -0.138052
O19   O     O_3   0.346782 0.283067 0.214657 -0.475639
O20   O     O_2   0.371958 0.812078 0.243726 -0.153486
O21   O     O_2   0.565954 0.823449 0.335829 -0.247846
O22   O     O_3   0.573102 0.894995 0.195330 -0.381639
O23   O     O_R   0.683230 0.614620 0.500000 -0.543723
O24   O     O_2   0.269323 0.401902 0.688118 -0.245789
O25   O     O_2   0.367229 0.183703 0.707851 -0.194207
O26   O     O_3   0.266253 0.294761 0.823200 -0.438008
O27   O     O_2   0.642803 0.140751 0.708313 -0.218333
O28   O     O_2   0.819662 0.116556 0.633877 -0.175779
O29   O     O_3   0.716437 0.333178 0.635706 -0.552473
O30   O     O_2   0.190561 0.823299 0.468957 -0.200312
O31   O     O_2   0.185515 0.895092 0.337264 -0.183348
O32   O     O_3   0.288111 0.680680 0.364916 -0.518279
O33   O     O_2   0.299275 0.082081 0.299284 -0.116134
O34   O     O_R   0.316770 0.385380 0.500000 -0.546571
O35   O     O_2   0.175031 0.112869 0.407206 -0.203928
O36   O     O_3   0.289493 0.308791 0.363683 -0.503036
O37   O     O_2   0.828836 0.873677 0.575506 -0.192505
O38   O     O_2   0.736675 0.915757 0.695630 -0.122105
O39   O     O_3   0.711116 0.691318 0.634661 -0.546631
O40   O     O_2   0.031566 0.101485 0.524787 -0.121668
O41   O     O_2   0.237348 0.195178 0.567561 -0.213873
O42   O     O_3   0.060905 0.252126 0.650437 -0.465087
O43   O     O_2   0.777310 0.707978 0.376623 -0.292642
O44   O     O_2   0.937458 0.864962 0.440999 -0.136600
O45   O     O_R   0.500010 0.614710 0.389120 -0.524811
O46   O     O_3   0.000710 0.678317 0.346445 -0.541833
O47   O     O_2   0.797803 0.144585 0.461897 -0.217633
O48   O     O_2   0.750753 0.306054 0.359506 -0.285189
O49   O     O_3   0.950618 0.173341 0.358856 -0.440227
O50   O     O_2   0.250103 0.693902 0.642877 -0.231355
O51   O     O_2   0.081295 0.848218 0.605083 -0.151717
O52   O     O_3   0.036337 0.646194 0.687572 -0.527616
O53   O     O_R   0.499990 0.385290 0.610880 -0.546380
O54   O     O_R   0.499990 0.614710 0.610880 -0.528410
O55   O     O_R   0.500010 0.385290 0.389120 -0.522751
O56   O     O_2   0.789736 0.758862 0.953535 -0.228790
S1    S     S_3+6 0.812221 0.671440 0.883983 0.104573
S2    S     S_3+6 0.267789 0.833106 0.403519 0.195134
S3    S     S_3+6 0.296106 0.146184 0.379673 0.202715
S4    S     S_3+6 0.714890 0.851934 0.614271 0.190859
S5    S     S_3+6 0.101167 0.224017 0.559811 0.192536
S6    S     S_3+6 0.910107 0.722631 0.414701 0.113885
S7    S     S_3+6 0.853181 0.246653 0.414283 0.155803
S8    S     S_3+6 0.112729 0.704707 0.616450 0.143943
S9    S     S_3+6 0.790368 0.287906 0.170019 0.154181
S10   S     S_3+6 0.485208 0.701575 0.061879 0.112471
S11   S     S_3+6 0.527996 0.225395 0.906869 0.137812
S12   S     S_3+6 0.525648 0.768526 0.783666 0.198522
S13   S     S_3+6 0.497422 0.240630 0.224091 0.180281
S14   S     S_3+6 0.509303 0.788355 0.252441 0.169483
S15   S     S_3+6 0.345170 0.316182 0.746257 0.159307
S16   S     S_3+6 0.690326 0.168949 0.631779 0.165750
Zn1   Zn    Zn3+2 0.500000 0.653120 0.500000 1.194290
Zn2   Zn    Zn3+2 0.500000 0.346880 0.500000 1.190557

loop_
_geom_bond_atom_site_label_1
_geom_bond_atom_site_label_2
_ccdc_geom_bond_type
O30   S2    D    
C12   O23   A    
O34   Zn2   S    
C8    C13   A    
O52   S8    S    
O9    S10   S    
C6    S9    S    
O14   S12   D    
O40   S5    D    
C9    C14   A    
C5    S1    S    
C5    C20   A    
H1    O3    S    
C7    C11   A    
C8    C20   A    
H3    O36   S    
O20   S14   D    
C9    S12   S    
N2    Zn2   S    
C17   S2    S    
C24   C26   A    
O16   S12   S    
C10   C15   A    
C4    C24   A    
O24   S15   D    
H12   O16   S    
C7    S10   S    
O33   S3    D    
O36   S3    S    
C3    C12   S    
O53   Zn2   S    
C11   C15   A    
C28   O55   A    
O46   S6    S    
H10   O9    S    
C27   S8    S    
O26   S15   S    
O38   S4    D    
O10   S11   D    
C12   O12   A    
N1    Zn1   S    
O1    Zn1   S    
C2    O54   A    
O18   S13   D    
C13   C14   A    
H14   O22   S    
O19   S13   S    
O29   S16   S    
C18   N2    A    
O28   S16   D    
O35   S3    D    
O25   S15   D    
O32   S2    S    
C3    C25   A    
O49   S7    S    
C16   N2    A    
O54   Zn1   S    
H9    O6    S    
C1    O1    A    
O11   S11   D    
O6    S9    S    
C7    C21   A    
O2    S1    D    
O50   S8    D    
O23   Zn1   S    
H16   O29   S    
O21   S14   D    
C5    C9    A    
C16   S16   S    
O13   S11   S    
H11   O13   S    
O12   Zn2   S    
C17   C18   A    
O8    S10   D    
C24   S5    S    
C11   S14   S    
C26   S7    S    
C8    S11   S    
O22   S14   S    
O7    S10   D    
C20   C22   S    
C2    O53   A    
C21   C23   S    
O45   Zn1   S    
O39   S4    S    
C4    C27   A    
O42   S5    S    
H15   O26   S    
O5    S9    D    
O27   S16   D    
O55   Zn2   S    
H5    O42   S    
C3    C26   A    
C17   N1    A    
O3    S1    S    
C13   S15   S    
C19   N1    A    
H7    O49   S    
C25   C27   A    
O48   S7    D    
O37   S4    D    
C1    C4    S    
C18   S3    S    
O17   S13   D    
O51   S8    D    
C6    C21   A    
C15   C28   S    
C16   C19   A    
H4    O39   S    
O43   S6    D    
O4    S9    D    
C28   O45   A    
H13   O19   S    
O56   S1    D    
C2    C14   S    
H6    O46   S    
C6    C10   A    
O44   S6    D    
H2    O32   S    
C19   S4    S    
O41   S5    D    
O15   S12   D    
C1    O34   A    
C22   C23   T    
O31   S2    D    
H8    O52   S    
C10   S13   S    
C25   S6    S    
O47   S7    D    
