data_mof_unit_38462.cif
_audit_creation_date              2013-03-05T15:59:27-0500
_audit_creation_method            fapswitch 2.2
_symmetry_space_group_name_H-M    P1
_symmetry_Int_Tables_number       1
_space_group_crystal_system       triclinic
_cell_length_a                    18.580157
_cell_length_b                    25.997534
_cell_length_c                    18.168783
_cell_angle_alpha                 89.551434
_cell_angle_beta                  89.941215
_cell_angle_gamma                 90.020065
_cell_volume                      8775.94324816

loop_
_atom_site_label
_atom_site_type_symbol
_atom_site_description
_atom_site_fract_x
_atom_site_fract_y
_atom_site_fract_z
_atom_type_partial_charge
Zn1   Zn    Zn3+2 0.500000 0.706650 0.586810 0.981478
Zn2   Zn    Zn3+2 0.500000 0.293350 0.413190 0.983823
Zn3   Zn    Zn3+2 0.500000 0.706650 0.413190 0.988012
Zn4   Zn    Zn3+2 0.500000 0.293350 0.586810 0.986606
Zn5   Zn    Zn3+2 0.000000 0.206650 0.086810 0.981530
Zn6   Zn    Zn3+2 0.000000 0.793350 0.913190 0.983463
Zn7   Zn    Zn3+2 0.000000 0.206650 0.913190 0.988090
Zn8   Zn    Zn3+2 0.000000 0.793350 0.086810 0.986778
Zn9   Zn    Zn3+2 0.586710 0.793420 0.500000 0.967706
Zn10  Zn    Zn3+2 0.413290 0.206580 0.500000 0.966469
Zn11  Zn    Zn3+2 0.413290 0.793420 0.500000 0.966657
Zn12  Zn    Zn3+2 0.586710 0.206580 0.500000 0.968334
Zn13  Zn    Zn3+2 0.086710 0.293420 0.000000 0.967760
Zn14  Zn    Zn3+2 0.913290 0.706580 0.000000 0.966468
Zn15  Zn    Zn3+2 0.913290 0.293420 0.000000 0.966583
Zn16  Zn    Zn3+2 0.086710 0.706580 0.000000 0.968340
O1    O     O_3   0.500000 0.750040 0.500000 -0.514775
O2    O     O_3   0.500000 0.249960 0.500000 -0.515487
O3    O     O_3   0.000000 0.250040 0.000000 -0.514789
O4    O     O_3   0.000000 0.749960 0.000000 -0.515462
O5    O     O_R   0.585420 0.719700 0.353880 -0.636893
O6    O     O_R   0.414580 0.280300 0.646120 -0.578671
O7    O     O_R   0.414580 0.719700 0.646120 -0.651985
O8    O     O_R   0.585420 0.280300 0.353880 -0.622312
O9    O     O_R   0.585420 0.280300 0.646120 -0.638786
O10   O     O_R   0.414580 0.719700 0.353880 -0.578255
O11   O     O_R   0.414580 0.280300 0.353880 -0.641259
O12   O     O_R   0.585420 0.719700 0.646120 -0.617275
O13   O     O_R   0.085420 0.219700 0.853880 -0.636857
O14   O     O_R   0.914580 0.780300 0.146120 -0.578490
O15   O     O_R   0.914580 0.219700 0.146120 -0.652022
O16   O     O_R   0.085420 0.780300 0.853880 -0.622535
O17   O     O_R   0.085420 0.780300 0.146120 -0.638645
O18   O     O_R   0.914580 0.219700 0.853880 -0.578277
O19   O     O_R   0.914580 0.780300 0.853880 -0.641658
O20   O     O_R   0.085420 0.219700 0.146120 -0.617114
O21   O     O_R   0.646120 0.780390 0.585510 -0.630442
O22   O     O_R   0.353880 0.219610 0.414490 -0.626279
O23   O     O_R   0.353880 0.780390 0.414490 -0.615839
O24   O     O_R   0.646120 0.219610 0.585510 -0.603823
O25   O     O_R   0.646120 0.219610 0.414490 -0.633800
O26   O     O_R   0.353880 0.780390 0.585510 -0.631875
O27   O     O_R   0.353880 0.219610 0.585510 -0.616580
O28   O     O_R   0.646120 0.780390 0.414490 -0.604849
O29   O     O_R   0.146120 0.280390 0.085510 -0.630257
O30   O     O_R   0.853880 0.719610 0.914490 -0.626395
O31   O     O_R   0.853880 0.280390 0.914490 -0.615656
O32   O     O_R   0.146120 0.719610 0.085510 -0.603895
O33   O     O_R   0.146120 0.719610 0.914490 -0.633754
O34   O     O_R   0.853880 0.280390 0.085510 -0.632205
O35   O     O_R   0.853880 0.719610 0.085510 -0.616604
O36   O     O_R   0.146120 0.280390 0.914490 -0.604922
O37   O     O_R   0.560660 0.865840 0.500000 -0.650102
O38   O     O_R   0.439340 0.134160 0.500000 -0.651642
O39   O     O_R   0.439340 0.865840 0.500000 -0.653938
O40   O     O_R   0.560660 0.134160 0.500000 -0.649986
O41   O     O_R   0.060660 0.365840 0.000000 -0.650030
O42   O     O_R   0.939340 0.634160 0.000000 -0.651714
O43   O     O_R   0.939340 0.365840 0.000000 -0.653932
O44   O     O_R   0.060660 0.634160 0.000000 -0.649971
O45   O     O_R   0.500000 0.634240 0.439310 -0.620092
O46   O     O_R   0.500000 0.365760 0.560690 -0.619593
O47   O     O_R   0.500000 0.634240 0.560690 -0.607401
O48   O     O_R   0.500000 0.365760 0.439310 -0.600656
O49   O     O_R   0.000000 0.134240 0.939310 -0.620002
O50   O     O_R   1.000000 0.865760 0.060690 -0.619560
O51   O     O_R   0.000000 0.134240 0.060690 -0.607417
O52   O     O_R   0.000000 0.865760 0.939310 -0.601013
C1    C     C_R   0.639692 0.750130 0.359739 0.898203
C2    C     C_R   0.359752 0.250852 0.639878 0.897519
C3    C     C_R   0.360425 0.749769 0.640501 0.954690
C4    C     C_R   0.639127 0.249607 0.358733 0.940901
C5    C     C_R   0.639680 0.249868 0.640291 0.898347
C6    C     C_R   0.359775 0.749183 0.360075 0.900561
C7    C     C_R   0.360703 0.249911 0.359002 0.939552
C8    C     C_R   0.638940 0.750456 0.641365 0.935717
C9    C     C_R   0.139690 0.250132 0.859737 0.898092
C10   C     C_R   0.859765 0.750840 0.139893 0.897652
C11   C     C_R   0.860423 0.249765 0.140496 0.954717
C12   C     C_R   0.139132 0.749613 0.858742 0.941135
C13   C     C_R   0.139683 0.749872 0.140287 0.898403
C14   C     C_R   0.859783 0.249193 0.860068 0.900895
C15   C     C_R   0.860691 0.749924 0.859017 0.940081
C16   C     C_R   0.138935 0.250458 0.141369 0.935476
C17   C     C_R   0.500007 0.890026 0.500049 0.785767
C18   C     C_R   0.499992 0.109973 0.499960 0.786461
C19   C     C_R   0.000007 0.390026 0.000049 0.785713
C20   C     C_R   0.999992 0.609973 0.999960 0.786470
C21   C     C_R   0.499427 0.609828 0.500418 0.854680
C22   C     C_R   0.499353 0.390247 0.499723 0.847583
C23   C     C_R   0.999440 0.109827 0.000414 0.854449
C24   C     C_R   0.999370 0.890246 0.999726 0.847833
C25   C     C_R   0.453073 0.548495 0.369268 0.412638
C26   C     C_R   0.460589 0.451778 0.634044 0.414043
C27   C     C_R   0.539880 0.543210 0.633402 0.394241
C28   C     C_R   0.533116 0.457497 0.365465 0.403016
C29   C     C_R   0.953405 0.048460 0.869157 0.412667
C30   C     C_R   0.960611 0.951796 0.134038 0.413979
C31   C     C_R   0.039901 0.043228 0.133408 0.394293
C32   C     C_R   0.033449 0.957461 0.865552 0.402682
C33   C     C_R   0.474665 0.528544 0.301263 0.285031
C34   C     C_R   0.486572 0.471354 0.700614 0.277003
C35   C     C_R   0.528003 0.516993 0.700381 0.292717
C36   C     C_R   0.516456 0.483140 0.299158 0.297223
C37   C     C_R   0.975157 0.028508 0.801204 0.284806
C38   C     C_R   0.986573 0.971379 0.200616 0.276862
C39   C     C_R   0.028011 0.017014 0.200385 0.292744
C40   C     C_R   0.016939 0.983094 0.799201 0.297100
C41   C     C_R   0.503786 0.475479 0.433055 -0.187823
C42   C     C_R   0.507515 0.524887 0.567341 -0.192238
C43   C     C_R   0.485597 0.473586 0.566622 -0.202933
C44   C     C_R   0.481733 0.526650 0.435050 -0.206402
C45   C     C_R   0.003997 0.975463 0.933075 -0.187810
C46   C     C_R   0.007564 0.024895 0.067338 -0.192330
C47   C     C_R   0.985649 0.973594 0.066621 -0.202893
C48   C     C_R   0.981940 0.026634 0.935010 -0.206351
C49   C     C_R   0.495988 0.446511 0.499509 -0.034532
C50   C     C_R   0.495972 0.553702 0.501267 -0.033303
C51   C     C_R   0.996075 0.946509 0.999521 -0.034497
C52   C     C_R   0.996054 0.053699 0.001249 -0.033349
C53   C     C_R   0.267866 0.795215 0.712146 0.365025
C54   C     C_R   0.731835 0.202943 0.286546 0.380570
C55   C     C_R   0.766830 0.763923 0.322709 0.385217
C56   C     C_R   0.231079 0.241785 0.675531 0.386485
C57   C     C_R   0.262781 0.205748 0.292697 0.364826
C58   C     C_R   0.735923 0.795548 0.708545 0.376265
C59   C     C_R   0.766885 0.236225 0.677203 0.385271
C60   C     C_R   0.231116 0.758344 0.324424 0.384901
C61   C     C_R   0.767925 0.295215 0.212199 0.364848
C62   C     C_R   0.231906 0.702971 0.786630 0.380536
C63   C     C_R   0.266794 0.263997 0.822651 0.385646
C64   C     C_R   0.731106 0.741797 0.175558 0.386351
C65   C     C_R   0.762918 0.705719 0.792560 0.364861
C66   C     C_R   0.236050 0.295490 0.208403 0.376080
C67   C     C_R   0.266877 0.736232 0.177219 0.385360
C68   C     C_R   0.731171 0.258471 0.824371 0.385000
C69   C     C_R   0.708565 0.294066 0.259415 0.348708
C70   C     C_R   0.286173 0.702847 0.732991 0.366968
C71   C     C_R   0.318250 0.270388 0.767056 0.377945
C72   C     C_R   0.677322 0.743722 0.229029 0.406689
C73   C     C_R   0.703895 0.707324 0.745013 0.349320
C74   C     C_R   0.292990 0.294755 0.258646 0.373105
C75   C     C_R   0.318396 0.729906 0.232740 0.383420
C76   C     C_R   0.677378 0.256484 0.770989 0.404968
C77   C     C_R   0.208553 0.794076 0.759423 0.348415
C78   C     C_R   0.786076 0.202816 0.232873 0.366942
C79   C     C_R   0.818323 0.770307 0.267120 0.377950
C80   C     C_R   0.177297 0.243699 0.729012 0.406643
C81   C     C_R   0.203762 0.207369 0.245145 0.349437
C82   C     C_R   0.792796 0.794849 0.758878 0.372843
C83   C     C_R   0.818409 0.229903 0.732726 0.383156
C84   C     C_R   0.177340 0.756428 0.271009 0.404822
C85   C     C_R   0.693555 0.248835 0.300398 -0.395830
C86   C     C_R   0.304895 0.749279 0.697128 -0.386980
C87   C     C_R   0.302459 0.253860 0.695030 -0.399525
C88   C     C_R   0.695683 0.750940 0.303386 -0.386929
C89   C     C_R   0.693061 0.751211 0.699786 -0.401284
C90   C     C_R   0.305610 0.250024 0.301596 -0.393896
C91   C     C_R   0.302526 0.746276 0.304864 -0.397799
C92   C     C_R   0.695703 0.249148 0.696607 -0.386643
C93   C     C_R   0.193575 0.748850 0.800428 -0.395905
C94   C     C_R   0.804884 0.249264 0.197109 -0.386921
C95   C     C_R   0.802495 0.753829 0.195073 -0.399179
C96   C     C_R   0.195662 0.250959 0.803364 -0.387334
C97   C     C_R   0.193048 0.251211 0.199795 -0.401374
C98   C     C_R   0.805585 0.750054 0.801631 -0.393779
C99   C     C_R   0.802558 0.246327 0.804830 -0.398027
C100  C     C_R   0.195690 0.749137 0.196620 -0.386873
C101  C     C_R   0.434687 0.973272 0.500371 -0.185408
C102  C     C_R   0.565310 0.026726 0.499673 -0.179030
C103  C     C_R   0.565319 0.973312 0.499766 -0.179451
C104  C     C_R   0.434679 0.026687 0.500270 -0.182508
C105  C     C_R   0.934687 0.473272 0.000363 -0.185512
C106  C     C_R   0.065310 0.526726 0.999681 -0.179015
C107  C     C_R   0.065318 0.473312 0.999773 -0.179407
C108  C     C_R   0.934678 0.526687 0.000262 -0.182561
H1    H     H_    0.383559 0.953241 0.500672 0.157186
H2    H     H_    0.616439 0.046758 0.499376 0.163343
H3    H     H_    0.616450 0.953311 0.499570 0.162993
H4    H     H_    0.383547 0.046686 0.500459 0.159587
H5    H     H_    0.883559 0.453241 0.000658 0.157130
H6    H     H_    0.116439 0.546758 0.999390 0.163358
H7    H     H_    0.116449 0.453311 0.999584 0.163033
H8    H     H_    0.883547 0.546687 0.000444 0.159497
C109  C     C_R   0.499990 0.053764 0.499950 0.009309
C110  C     C_R   0.500008 0.946234 0.500081 0.009890
C111  C     C_R   0.999990 0.553765 0.999950 0.009332
C112  C     C_R   0.000007 0.446234 0.000081 0.009888
O53   O     O_3   0.563184 0.534709 0.762735 -0.561945
C113  C     C_3   0.514812 0.542206 0.821742 -0.221203
H9    H     H_    0.515546 0.508235 0.859084 0.206900
H10   H     H_    0.458753 0.550665 0.803846 0.129137
H11   H     H_    0.533522 0.575480 0.854344 0.137322
O54   O     O_3   0.547230 0.465232 0.234549 -0.577159
C114  C     C_3   0.494482 0.456200 0.180147 -0.248445
H12   H     H_    0.492783 0.489070 0.140855 0.210787
H13   H     H_    0.439622 0.448811 0.202799 0.157697
H14   H     H_    0.510380 0.421737 0.148431 0.133585
O55   O     O_3   0.454918 0.553694 0.237110 -0.575703
C115  C     C_3   0.505335 0.593108 0.222842 -0.138503
H15   H     H_    0.560794 0.577419 0.216993 0.137249
H16   H     H_    0.503948 0.622994 0.266362 0.212321
H17   H     H_    0.491065 0.612074 0.169949 0.179106
O56   O     O_3   0.471019 0.445773 0.765675 -0.579213
C116  C     C_3   0.521336 0.405654 0.775158 -0.142142
H18   H     H_    0.577485 0.420627 0.776475 0.137540
H19   H     H_    0.515716 0.376081 0.731567 0.212881
H20   H     H_    0.510790 0.386494 0.828853 0.177202
O57   O     O_3   0.063199 0.034720 0.262739 -0.561684
C117  C     C_3   0.014820 0.042268 0.321724 -0.220624
H21   H     H_    0.015458 0.008294 0.359063 0.206733
H22   H     H_    0.958790 0.050796 0.303800 0.128744
H23   H     H_    0.033595 0.075518 0.354338 0.137445
O58   O     O_3   0.047832 0.965148 0.734669 -0.576793
C118  C     C_3   0.995228 0.956252 0.680074 -0.248200
H24   H     H_    0.993908 0.989099 0.640724 0.210622
H25   H     H_    0.940231 0.949084 0.702510 0.157205
H26   H     H_    0.010999 0.921704 0.648485 0.133372
O59   O     O_3   0.955555 0.053659 0.737003 -0.575756
C119  C     C_3   0.005973 0.093096 0.722883 -0.138742
H27   H     H_    0.061465 0.077435 0.717207 0.137208
H28   H     H_    0.004427 0.122986 0.766393 0.212345
H29   H     H_    0.991840 0.112050 0.669942 0.178865
O60   O     O_3   0.970987 0.945814 0.265681 -0.579370
C120  C     C_3   0.021262 0.905670 0.275185 -0.141971
H30   H     H_    0.077428 0.920611 0.276469 0.137489
H31   H     H_    0.015593 0.876080 0.231624 0.213165
H32   H     H_    0.010712 0.886541 0.328902 0.176974
O61   O     O_3   0.404501 0.589019 0.368915 -0.524993
C121  C     C_3   0.341517 0.574437 0.407159 -0.251724
H33   H     H_    0.351328 0.571538 0.467365 0.137691
H34   H     H_    0.319125 0.537643 0.386039 0.153484
H35   H     H_    0.300193 0.604652 0.398375 0.169634
O62   O     O_3   0.411094 0.411839 0.637494 -0.520989
C122  C     C_3   0.346649 0.426875 0.602443 -0.245808
H36   H     H_    0.353504 0.429128 0.541749 0.133800
H37   H     H_    0.326262 0.464123 0.624047 0.151538
H38   H     H_    0.305080 0.397237 0.614001 0.171638
O63   O     O_3   0.587833 0.583955 0.633662 -0.516922
C123  C     C_3   0.652803 0.568276 0.600519 -0.199117
H39   H     H_    0.645403 0.560274 0.540959 0.102085
H40   H     H_    0.675968 0.534066 0.629156 0.151595
H41   H     H_    0.692338 0.600077 0.605043 0.191596
O64   O     O_3   0.583248 0.418197 0.363059 -0.528977
C124  C     C_3   0.648555 0.435770 0.393419 -0.205782
H42   H     H_    0.643091 0.443550 0.453268 0.106426
H43   H     H_    0.668652 0.470621 0.363864 0.148531
H44   H     H_    0.689658 0.405181 0.387225 0.205005
O65   O     O_3   0.904776 0.088950 0.868680 -0.524842
C125  C     C_3   0.841746 0.074343 0.906824 -0.251188
H45   H     H_    0.851454 0.071488 0.967051 0.137565
H46   H     H_    0.819448 0.037518 0.885709 0.153399
H47   H     H_    0.800391 0.104521 0.897925 0.169725
O66   O     O_3   0.911105 0.911863 0.137479 -0.521079
C126  C     C_3   0.846675 0.926906 0.102406 -0.245849
H48   H     H_    0.853551 0.929160 0.041714 0.133872
H49   H     H_    0.826289 0.964156 0.124004 0.151530
H50   H     H_    0.805096 0.897273 0.113949 0.171631
O67   O     O_3   0.087841 0.083981 0.133683 -0.516686
C127  C     C_3   0.152827 0.068313 0.100560 -0.199144
H51   H     H_    0.145449 0.060320 0.040995 0.102101
H52   H     H_    0.175989 0.034102 0.129195 0.151595
H53   H     H_    0.192353 0.100119 0.105110 0.191427
O68   O     O_3   0.083538 0.918128 0.863265 -0.528900
C128  C     C_3   0.148815 0.935672 0.893724 -0.205602
H54   H     H_    0.143261 0.943475 0.953558 0.106345
H55   H     H_    0.169001 0.970501 0.864180 0.148635
H56   H     H_    0.189891 0.905054 0.887619 0.204673
O69   O     O_3   0.296792 0.841977 0.689432 -0.581132
C129  C     C_3   0.258200 0.862628 0.629146 -0.142873
H57   H     H_    0.224937 0.833982 0.598867 0.123650
H58   H     H_    0.297380 0.878946 0.589171 0.181880
H59   H     H_    0.224364 0.895050 0.648187 0.177666
O70   O     O_3   0.708647 0.156689 0.316944 -0.567235
C130  C     C_3   0.752940 0.142075 0.376992 -0.166686
H60   H     H_    0.720574 0.141484 0.428287 0.208063
H61   H     H_    0.800899 0.167099 0.386098 0.101551
H62   H     H_    0.771394 0.101997 0.368722 0.152812
O71   O     O_3   0.784729 0.776096 0.394474 -0.548190
C131  C     C_3   0.795999 0.730000 0.434638 -0.327410
H63   H     H_    0.836239 0.704648 0.407606 0.123852
H64   H     H_    0.745013 0.708448 0.443202 0.150155
H65   H     H_    0.817247 0.739936 0.489771 0.179233
O72   O     O_3   0.212916 0.228182 0.604303 -0.550983
C132  C     C_3   0.204566 0.273064 0.560847 -0.231694
H66   H     H_    0.198564 0.261489 0.502529 0.166356
H67   H     H_    0.252000 0.299102 0.563807 0.117758
H68   H     H_    0.155151 0.294257 0.576476 0.156806
O73   O     O_3   0.285909 0.158947 0.321441 -0.573450
C133  C     C_3   0.244077 0.144126 0.383027 -0.127648
H69   H     H_    0.213355 0.176192 0.408799 0.114982
H70   H     H_    0.280626 0.128301 0.425824 0.183437
H71   H     H_    0.207311 0.112475 0.367225 0.176806
O74   O     O_3   0.714660 0.841897 0.676932 -0.569437
C134  C     C_3   0.757467 0.854131 0.614752 -0.133863
H72   H     H_    0.721715 0.861169 0.566857 0.200164
H73   H     H_    0.797042 0.823882 0.598788 0.105861
H74   H     H_    0.785943 0.890883 0.624809 0.153599
O75   O     O_3   0.784811 0.224104 0.605395 -0.547796
C135  C     C_3   0.795953 0.270234 0.565229 -0.323332
H75   H     H_    0.836063 0.295686 0.592223 0.123107
H76   H     H_    0.744899 0.291664 0.556715 0.150169
H77   H     H_    0.817303 0.260356 0.510075 0.181922
O76   O     O_3   0.212919 0.772015 0.395649 -0.550785
C136  C     C_3   0.204460 0.727185 0.439220 -0.223530
H78   H     H_    0.198659 0.738826 0.497546 0.169695
H79   H     H_    0.251755 0.701051 0.436103 0.118091
H80   H     H_    0.154901 0.706082 0.423858 0.155612
O77   O     O_3   0.797011 0.341976 0.189695 -0.581329
C137  C     C_3   0.758571 0.362786 0.129423 -0.143271
H81   H     H_    0.725587 0.334177 0.098764 0.124169
H82   H     H_    0.797845 0.379347 0.089750 0.181600
H83   H     H_    0.724507 0.395053 0.148580 0.177910
O78   O     O_3   0.208746 0.656716 0.817052 -0.567202
C138  C     C_3   0.253027 0.642137 0.877125 -0.166307
H84   H     H_    0.220634 0.641528 0.928403 0.208022
H85   H     H_    0.300945 0.667196 0.886255 0.101560
H86   H     H_    0.271535 0.602070 0.868872 0.152819
O79   O     O_3   0.284756 0.276170 0.894400 -0.547689
C139  C     C_3   0.296108 0.230072 0.934533 -0.327080
H87   H     H_    0.245128 0.208537 0.943229 0.150113
H88   H     H_    0.317500 0.240003 0.989610 0.179094
H89   H     H_    0.336267 0.204707 0.907395 0.123635
O80   O     O_3   0.712938 0.728225 0.104319 -0.550944
C140  C     C_3   0.704611 0.773122 0.060890 -0.231466
H90   H     H_    0.698694 0.761569 0.002553 0.166487
H91   H     H_    0.752018 0.799181 0.063935 0.117649
H92   H     H_    0.655157 0.794285 0.076470 0.156890
O81   O     O_3   0.786207 0.658911 0.821140 -0.573619
C141  C     C_3   0.744440 0.643920 0.882690 -0.128036
H93   H     H_    0.713638 0.675895 0.908591 0.115222
H94   H     H_    0.781052 0.628072 0.925414 0.183359
H95   H     H_    0.707758 0.612244 0.866787 0.176949
O82   O     O_3   0.214875 0.341838 0.176723 -0.569548
C142  C     C_3   0.257698 0.353989 0.114526 -0.132928
H96   H     H_    0.221923 0.361253 0.066714 0.199878
H97   H     H_    0.296964 0.323582 0.098389 0.106085
H98   H     H_    0.286506 0.390598 0.124661 0.153629
O83   O     O_3   0.284829 0.724154 0.105402 -0.547732
C143  C     C_3   0.295947 0.770308 0.065286 -0.323388
H99   H     H_    0.335995 0.795780 0.092340 0.123112
H100  H     H_    0.244870 0.791704 0.056738 0.150163
H101  H     H_    0.317362 0.760468 0.010144 0.181891
O84   O     O_3   0.713033 0.272280 0.895556 -0.550866
C144  C     C_3   0.704399 0.227544 0.939296 -0.223496
H102  H     H_    0.700225 0.239233 0.997745 0.169871
H103  H     H_    0.750866 0.200724 0.935098 0.116930
H104  H     H_    0.653917 0.207180 0.925069 0.156872
O85   O     O_3   0.668556 0.338380 0.269003 -0.544609
C145  C     C_3   0.607186 0.336462 0.222744 -0.124979
H105  H     H_    0.584547 0.297079 0.215518 0.099700
H106  H     H_    0.618809 0.353079 0.167832 0.108265
H107  H     H_    0.564328 0.360147 0.247629 0.229846
O86   O     O_3   0.313665 0.656406 0.708582 -0.568371
C146  C     C_3   0.375394 0.642400 0.749645 -0.217401
H108  H     H_    0.362440 0.609148 0.785542 0.145148
H109  H     H_    0.398875 0.673860 0.783543 0.110275
H110  H     H_    0.417708 0.629225 0.710976 0.196464
O87   O     O_3   0.379012 0.299816 0.779914 -0.531486
C147  C     C_3   0.428937 0.272050 0.822512 -0.181807
H111  H     H_    0.429853 0.230273 0.809277 0.093243
H112  H     H_    0.419213 0.278092 0.881999 0.183825
H113  H     H_    0.482681 0.288271 0.810767 0.227772
O88   O     O_3   0.606428 0.743270 0.206553 -0.576090
C148  C     C_3   0.579520 0.794336 0.207210 -0.365062
H114  H     H_    0.545511 0.800328 0.157807 0.165391
H115  H     H_    0.621625 0.825027 0.205304 0.141064
H116  H     H_    0.545451 0.799946 0.256726 0.171580
O89   O     O_3   0.660524 0.664212 0.738991 -0.526124
C149  C     C_3   0.597762 0.670944 0.782422 -0.118032
H117  H     H_    0.578455 0.711505 0.785058 0.103226
H118  H     H_    0.606162 0.656738 0.839253 0.095258
H119  H     H_    0.553665 0.647884 0.758145 0.210166
O90   O     O_3   0.331188 0.339693 0.270728 -0.557591
C150  C     C_3   0.395365 0.339657 0.228516 -0.235575
H120  H     H_    0.388789 0.362980 0.177930 0.122134
H121  H     H_    0.415188 0.300656 0.213161 0.125981
H122  H     H_    0.438104 0.358351 0.261352 0.197459
O91   O     O_3   0.379344 0.700690 0.219767 -0.535118
C151  C     C_3   0.428751 0.728305 0.176190 -0.200121
H123  H     H_    0.429448 0.770200 0.188661 0.097948
H124  H     H_    0.418705 0.721669 0.116918 0.187257
H125  H     H_    0.482696 0.712411 0.187654 0.228150
O92   O     O_3   0.606492 0.256934 0.793619 -0.578167
C152  C     C_3   0.579799 0.205797 0.793616 -0.365156
H126  H     H_    0.545038 0.200205 0.842638 0.165085
H127  H     H_    0.622028 0.175265 0.796833 0.142915
H128  H     H_    0.546566 0.199574 0.743732 0.170858
O93   O     O_3   0.168552 0.838396 0.769030 -0.544363
C153  C     C_3   0.107086 0.836476 0.722893 -0.122801
H129  H     H_    0.084899 0.797025 0.714984 0.098159
H130  H     H_    0.118393 0.853677 0.668277 0.109160
H131  H     H_    0.063978 0.859661 0.748306 0.229290
O94   O     O_3   0.813449 0.156375 0.208331 -0.568546
C154  C     C_3   0.875129 0.142220 0.249363 -0.217329
H132  H     H_    0.862088 0.108894 0.285088 0.145409
H133  H     H_    0.898643 0.173577 0.283431 0.110164
H134  H     H_    0.917445 0.129101 0.210657 0.196456
O95   O     O_3   0.879113 0.799734 0.279930 -0.531740
C155  C     C_3   0.928750 0.772245 0.323253 -0.182257
H135  H     H_    0.929575 0.730353 0.310774 0.093226
H136  H     H_    0.918801 0.778834 0.382576 0.184795
H137  H     H_    0.982607 0.788269 0.311502 0.227329
O96   O     O_3   0.106399 0.243193 0.706551 -0.576080
C156  C     C_3   0.079424 0.294241 0.707179 -0.364883
H138  H     H_    0.045488 0.300219 0.657720 0.165328
H139  H     H_    0.121487 0.324964 0.705360 0.140974
H140  H     H_    0.045269 0.299818 0.756641 0.171675
O97   O     O_3   0.160290 0.164300 0.239233 -0.525793
C157  C     C_3   0.097514 0.171173 0.282597 -0.118411
H141  H     H_    0.078285 0.211758 0.285067 0.103410
H142  H     H_    0.105850 0.157062 0.339485 0.095063
H143  H     H_    0.053388 0.148109 0.258375 0.209784
O98   O     O_3   0.830694 0.839869 0.771312 -0.557730
C158  C     C_3   0.894870 0.840230 0.729104 -0.234730
H144  H     H_    0.888144 0.863782 0.678758 0.122481
H145  H     H_    0.914916 0.801366 0.713352 0.125713
H146  H     H_    0.937506 0.858899 0.762117 0.197242
O99   O     O_3   0.879329 0.200645 0.719794 -0.534950
C159  C     C_3   0.928713 0.228159 0.676057 -0.199337
H147  H     H_    0.929419 0.270084 0.688329 0.097748
H148  H     H_    0.918629 0.221386 0.616825 0.187299
H149  H     H_    0.982666 0.212292 0.687557 0.227954
O100  O     O_3   0.106437 0.756992 0.293592 -0.577748
C160  C     C_3   0.079423 0.705941 0.293241 -0.364480
H150  H     H_    0.045176 0.700151 0.342596 0.165171
H151  H     H_    0.121462 0.675238 0.295501 0.142452
H152  H     H_    0.045578 0.700162 0.243674 0.171265

loop_
_geom_bond_atom_site_label_1
_geom_bond_atom_site_label_2
_geom_bond_distance
_ccdc_geom_bond_type
Zn6   O16   1.948803 S    
C126  H49   1.114076 S    
C105  C112  1.402762 A    
Zn7   O13   1.945669 S    
C133  H71   1.108988 S    
C160  H150  1.108300 S    
Zn5   O51   1.944979 S    
O34   C11   1.278517 A    
C42   C50   1.426508 A    
C80   O96   1.379549 S    
C46   C47   1.394499 A    
C5    C92   1.460370 S    
C6    C91   1.465164 S    
C102  H2    1.083186 S    
C84   O100  1.379533 S    
O72   C132  1.412404 S    
C24   C51   1.463977 S    
C54   O70   1.387572 S    
C55   O71   1.384974 S    
C38   C39   1.414087 A    
C125  H46   1.114064 S    
Zn5   O20   1.950409 S    
C26   C43   1.423256 A    
C120  H32   1.109136 S    
O64   C124  1.410793 S    
O49   C23   1.274499 A    
O70   C130  1.416857 S    
O23   C6    1.288429 A    
C42   C43   1.394501 A    
C28   O64   1.383720 S    
C107  C112  1.402662 A    
C32   O68   1.383724 S    
Zn2   O48   1.944979 S    
O80   C140  1.412406 S    
C67   C100  1.409762 A    
C76   C92   1.407770 A    
C114  H14   1.109028 S    
C29   C37   1.402075 A    
C70   C86   1.410520 A    
C125  H47   1.109402 S    
Zn3   O45   1.937773 S    
O55   C115  1.410412 S    
C124  H42   1.112134 S    
C74   C90   1.415134 A    
O11   C7    1.277895 A    
C55   C88   1.409655 A    
C159  H149  1.103688 S    
C15   C98   1.462035 S    
C137  H82   1.109635 S    
C32   C40   1.407064 A    
C141  H93   1.116214 S    
C22   C49   1.464055 S    
C143  H99   1.113241 S    
C25   C33   1.402053 A    
C142  H97   1.116579 S    
C57   C90   1.409573 A    
C26   O62   1.387785 S    
C153  H130  1.105135 S    
O78   C138  1.416849 S    
Zn12  O24   1.938669 S    
C118  H24   1.109698 S    
O61   C121  1.410639 S    
O16   C12   1.280574 A    
C78   C94   1.410478 A    
O40   C18   1.290544 A    
C146  H108  1.105130 S    
Zn16  O4    1.966910 S    
C66   C97   1.410823 A    
C69   C85   1.414432 A    
C27   O63   1.383950 S    
C131  H63   1.113226 S    
C144  H104  1.108680 S    
C121  H34   1.114060 S    
C57   C81   1.397173 A    
C72   C88   1.407688 A    
Zn5   O3    1.931908 S    
C117  H22   1.112966 S    
C155  H136  1.108042 S    
Zn7   O3    1.946276 S    
C28   C36   1.407098 A    
O93   C153  1.418448 S    
C160  H152  1.110073 S    
C129  H58   1.109641 S    
C118  H26   1.108996 S    
O36   C9    1.278719 A    
C62   C70   1.401603 A    
C31   C39   1.407278 A    
C135  H75   1.113216 S    
C107  H7    1.083184 S    
C108  H8    1.083178 S    
C159  H147  1.114284 S    
Zn3   O10   1.947667 S    
O42   C20   1.290677 A    
C79   O95   1.384891 S    
C150  H120  1.104021 S    
C28   C41   1.425265 A    
C30   C38   1.402046 A    
O33   C12   1.280289 A    
Zn10  O22   1.934551 S    
O35   C10   1.288470 A    
C132  H67   1.112714 S    
C156  H138  1.108290 S    
Zn13  O29   1.934549 S    
C77   C93   1.414417 A    
C63   C96   1.409602 A    
Zn10  O2    1.966264 S    
C83   C99   1.411843 A    
C102  C109  1.402760 A    
O52   C24   1.273265 A    
Zn3   O1    1.946276 S    
C54   C78   1.401655 A    
C145  H105  1.115519 S    
O43   C19   1.290531 A    
C64   C95   1.409026 A    
O94   C154  1.415038 S    
C25   C44   1.423184 A    
C142  H96   1.109416 S    
C48   C52   1.423382 A    
C61   C69   1.396747 A    
C26   C34   1.402012 A    
C18   C109  1.461292 S    
C115  H16   1.113176 S    
C124  H44   1.109040 S    
C147  H111  1.114361 S    
O87   C147  1.404882 S    
O37   C17   1.290682 A    
O97   C157  1.419001 S    
C65   C98   1.409514 A    
C57   O73   1.388762 S    
C151  H123  1.114296 S    
C58   O74   1.388472 S    
O85   C145  1.418347 S    
O99   C159  1.405064 S    
C143  H101  1.109393 S    
C106  H6    1.083186 S    
C31   C46   1.428076 A    
C149  H117  1.115325 S    
O44   C20   1.290545 A    
C134  H73   1.116583 S    
Zn6   O19   1.950411 S    
O65   C125  1.410642 S    
C65   O81   1.388758 S    
Zn13  O41   1.944125 S    
C102  C103  1.388631 A    
O95   C155  1.404995 S    
C82   C98   1.415075 A    
O32   C13   1.279003 A    
Zn16  O44   1.943797 S    
C140  H91   1.112718 S    
O90   C150  1.417092 S    
C82   O98   1.385867 S    
C59   C83   1.400237 A    
C60   C84   1.394766 A    
O68   C128  1.410776 S    
C136  H79   1.112635 S    
C67   O83   1.384918 S    
C158  H145  1.116255 S    
C71   C87   1.411629 A    
C135  H77   1.109400 S    
C148  H116  1.110082 S    
C9    C96   1.458932 S    
C67   C75   1.400160 A    
C10   C95   1.463731 S    
C103  H3    1.083183 S    
C121  H33   1.111120 S    
C101  H1    1.083166 S    
C119  H27   1.113650 S    
C27   C35   1.407298 A    
O73   C133  1.412750 S    
C56   O72   1.386238 S    
C8    C89   1.463130 S    
C66   O82   1.388485 S    
C1    C88   1.458942 S    
C2    C87   1.463736 S    
C80   C96   1.407768 A    
C130  H62   1.108310 S    
C81   C97   1.415421 A    
O96   C156  1.418910 S    
C156  H140  1.110075 S    
O38   C18   1.290679 A    
C61   O77   1.388664 S    
O82   C142  1.415013 S    
O50   C24   1.273265 A    
C3    C86   1.456301 S    
O41   C19   1.290682 A    
O5    C1    1.286469 A    
C139  H88   1.109402 S    
C106  C111  1.402761 A    
Zn4   O6    1.945671 S    
C31   O67   1.383966 S    
C104  C109  1.402670 A    
O71   C131  1.413951 S    
O47   C21   1.270033 A    
O57   C117  1.412965 S    
C128  H55   1.113736 S    
C157  H141  1.115317 S    
C151  H125  1.103680 S    
O100  C160  1.418830 S    
C146  H109  1.116590 S    
C47   C51   1.425718 A    
C122  H38   1.109509 S    
O79   C139  1.413932 S    
C53   O69   1.388636 S    
O8    C4    1.280579 A    
C150  H122  1.108119 S    
C81   O97   1.385314 S    
C138  H86   1.108312 S    
C155  H135  1.114295 S    
C68   O84   1.386243 S    
C33   O55   1.381971 S    
C68   C99   1.409281 A    
C117  H23   1.108285 S    
Zn1   O1    1.931908 S    
C43   C49   1.425702 A    
C159  H148  1.107988 S    
Zn4   O2    1.946274 S    
C79   C95   1.411731 A    
C58   C82   1.398198 A    
C30   C47   1.423272 A    
C123  H39   1.112199 S    
C54   C85   1.413363 A    
O9    C5    1.286537 A    
C34   C35   1.414107 A    
C63   C71   1.399004 A    
C59   O75   1.384910 S    
O13   C9    1.286464 A    
O56   C116  1.410592 S    
O86   C146  1.415075 S    
C56   C87   1.409047 A    
C36   O54   1.388892 S    
O18   C14   1.280155 A    
C152  H127  1.117535 S    
C59   C92   1.409806 A    
O6    C2    1.279766 A    
C119  H29   1.109105 S    
C40   O58   1.388956 S    
C126  H48   1.111038 S    
C60   C91   1.409332 A    
C114  H13   1.114895 S    
C62   O78   1.387595 S    
C63   O79   1.384976 S    
O63   C123  1.410206 S    
C131  H65   1.109406 S    
O48   C22   1.273232 A    
O60   C120  1.410594 S    
C41   C49   1.425219 A    
O91   C151  1.405041 S    
Zn14  O30   1.934551 S    
Zn15  O3    1.966911 S    
C56   C80   1.394280 A    
C113  H9    1.109556 S    
C141  H94   1.109657 S    
C143  H100  1.110615 S    
C101  C110  1.402763 A    
C83   O99   1.384862 S    
C127  H53   1.109345 S    
O74   C134  1.415070 S    
C154  H134  1.109884 S    
C58   C89   1.410904 A    
C25   O61   1.387451 S    
Zn4   O46   1.937773 S    
O24   C5    1.278996 A    
Zn11  O26   1.932594 S    
C133  H69   1.116209 S    
C34   O56   1.382011 S    
C16   C97   1.463095 S    
C113  H11   1.108276 S    
C45   C51   1.425139 A    
C20   C111  1.461289 S    
C141  H95   1.108988 S    
Zn1   O12   1.950409 S    
C122  H36   1.111035 S    
Zn2   O11   1.950411 S    
C35   O53   1.390081 S    
C144  H103  1.112875 S    
C14   C99   1.465121 S    
C104  H4    1.083181 S    
O54   C114  1.413547 S    
C126  H50   1.109506 S    
C105  H5    1.083166 S    
C138  H84   1.108650 S    
O69   C129  1.412355 S    
C160  H151  1.117538 S    
C129  H59   1.109001 S    
C155  H137  1.103780 S    
C147  H112  1.108034 S    
C84   C100  1.407840 A    
C135  H76   1.110621 S    
Zn4   O9    1.947666 S    
C77   O93   1.383443 S    
Zn14  O42   1.944125 S    
Zn13  O3    1.966263 S    
Zn14  O4    1.966264 S    
C53   C86   1.406883 A    
C134  H72   1.109394 S    
C70   O86   1.386963 S    
O19   C15   1.277871 A    
C127  H51   1.112197 S    
C114  H12   1.109685 S    
C145  H107  1.105270 S    
C125  H45   1.111119 S    
C116  H18   1.113721 S    
C123  H41   1.109343 S    
O39   C17   1.290531 A    
O75   C135  1.414027 S    
C139  H89   1.113291 S    
Zn12  O25   1.932595 S    
O7    C3    1.278069 A    
Zn7   O49   1.937773 S    
Zn13  O36   1.936990 S    
Zn14  O35   1.936988 S    
O51   C23   1.270103 A    
O28   C1    1.278709 A    
Zn16  O33   1.932595 S    
C29   C48   1.423203 A    
C145  H106  1.105147 S    
C7    C90   1.462131 S    
O21   C8    1.280827 A    
C33   C36   1.413846 A    
C124  H43   1.113736 S    
O98   C158  1.417042 S    
Zn7   O18   1.947667 S    
Zn9   O37   1.944125 S    
O62   C122  1.410716 S    
C11   C94   1.456241 S    
O12   C8    1.278227 A    
O59   C119  1.410412 S    
Zn11  O39   1.943797 S    
C108  C111  1.402671 A    
C151  H124  1.107980 S    
C152  H126  1.108274 S    
C64   O80   1.386254 S    
C137  H81   1.116209 S    
Zn11  O1    1.966911 S    
C113  H10   1.112985 S    
C4    C85   1.464446 S    
C103  C110  1.402664 A    
Zn15  O43   1.943797 S    
C27   C42   1.428059 A    
C142  H98   1.108520 S    
C149  H118  1.105119 S    
C154  H132  1.105162 S    
C75   C91   1.411828 A    
C153  H129  1.115637 S    
C39   O57   1.390070 S    
C64   C72   1.394187 A    
Zn6   O4    1.931909 S    
C65   C73   1.397176 A    
Zn8   O14   1.945671 S    
O66   C126  1.410717 S    
C118  H25   1.114850 S    
C68   C76   1.394651 A    
O26   C3    1.278526 A    
C13   C100  1.460373 S    
O53   C113  1.412987 S    
C149  H119  1.108969 S    
O30   C15   1.280685 A    
C136  H78   1.109506 S    
C129  H57   1.116239 S    
C148  H114  1.108291 S    
C46   C52   1.426500 A    
C137  H83   1.109020 S    
Zn8   O50   1.937773 S    
Zn2   O2    1.931909 S    
C76   O92   1.379435 S    
O81   C141  1.412742 S    
Zn15  O31   1.938671 S    
O92   C152  1.418777 S    
Zn16  O32   1.938669 S    
C153  H131  1.105427 S    
C119  H28   1.113173 S    
O77   C137  1.412287 S    
O88   C148  1.418905 S    
Zn8   O4    1.946274 S    
C130  H61   1.116330 S    
C131  H64   1.110654 S    
C132  H68   1.108793 S    
C148  H115  1.117544 S    
C60   O76   1.386237 S    
C156  H139  1.117551 S    
C66   C74   1.398083 A    
C121  H35   1.109404 S    
Zn15  O34   1.932594 S    
C71   O87   1.384632 S    
C120  H31   1.113057 S    
C106  C107  1.388631 A    
C73   O89   1.385286 S    
O83   C143  1.414029 S    
C115  H15   1.113643 S    
C116  H20   1.109140 S    
C128  H54   1.112137 S    
C157  H142  1.105127 S    
C45   C48   1.392840 A    
Zn6   O52   1.944979 S    
C122  H37   1.114074 S    
C75   O91   1.384811 S    
Zn1   O47   1.944979 S    
O45   C21   1.274561 A    
C134  H74   1.108513 S    
O22   C7    1.280713 A    
C150  H121  1.116261 S    
C37   C40   1.413918 A    
C38   O60   1.382012 S    
C138  H85   1.116330 S    
C140  H90   1.109462 S    
C157  H143  1.108996 S    
C127  H52   1.113743 S    
C41   C44   1.392870 A    
O58   C118  1.413556 S    
C37   O59   1.381981 S    
C74   O90   1.385820 S    
C140  H92   1.108796 S    
C158  H144  1.103968 S    
C136  H80   1.108762 S    
Zn9   O21   1.934549 S    
C123  H40   1.113740 S    
C158  H146  1.108215 S    
O84   C144  1.412451 S    
Zn11  O23   1.938671 S    
Zn12  O40   1.943797 S    
O25   C4    1.280334 A    
C62   C93   1.413367 A    
Zn9   O1    1.966263 S    
O76   C136  1.412404 S    
C130  H60   1.108646 S    
C55   C79   1.399380 A    
Zn1   O7    1.948804 S    
O27   C2    1.288435 A    
Zn2   O8    1.948803 S    
C101  C104  1.388630 A    
C53   C77   1.396716 A    
Zn3   O5    1.945669 S    
O29   C16   1.280864 A    
O67   C127  1.410202 S    
C30   O66   1.387776 S    
O89   C149  1.419003 S    
C105  C108  1.388632 A    
C73   C89   1.415386 A    
C17   C110  1.461271 S    
C72   O88   1.379549 S    
Zn9   O28   1.936990 S    
C120  H30   1.113725 S    
Zn10  O27   1.936988 S    
O31   C14   1.288382 A    
C32   C45   1.425254 A    
C132  H66   1.109456 S    
O15   C11   1.278047 A    
C19   C112  1.461271 S    
C29   O65   1.387459 S    
C139  H87   1.110653 S    
C152  H128  1.110081 S    
C44   C50   1.423299 A    
C154  H133  1.116589 S    
O20   C16   1.278173 A    
C115  H17   1.109106 S    
O46   C22   1.273343 A    
O10   C6    1.280128 A    
C61   C94   1.406802 A    
C133  H70   1.109654 S    
Zn8   O17   1.947666 S    
C147  H113  1.103795 S    
Zn10  O38   1.944125 S    
C128  H56   1.109050 S    
C12   C93   1.464346 S    
O14   C10   1.279730 A    
C69   O85   1.383332 S    
C146  H110  1.109881 S    
C21   C50   1.460474 S    
C117  H21   1.109555 S    
Zn12  O2    1.966910 S    
C78   O94   1.386954 S    
C23   C52   1.460475 S    
C144  H102  1.109507 S    
C116  H19   1.113062 S    
O17   C13   1.286524 A    
Zn5   O15   1.948804 S    
