data_mof_unit_12989.cif
_audit_creation_date              2012-12-10T21:00:39-0500
_audit_creation_method            fapswitch 2.2
_symmetry_space_group_name_H-M    P1
_symmetry_Int_Tables_number       1
_space_group_crystal_system       triclinic
_cell_length_a                    18.146139
_cell_length_b                    18.223019
_cell_length_c                    18.525029
_cell_angle_alpha                 120.424023
_cell_angle_beta                  90.102836
_cell_angle_gamma                 119.171119
_cell_volume                      4353.62182225

loop_
_atom_site_label
_atom_site_type_symbol
_atom_type_description
_atom_site_fract_x
_atom_site_fract_y
_atom_site_fract_z
_atom_type_partial_charge
C1    C     C_R   0.111218 0.220250 0.609873 0.789706
C2    C     C_3   0.447195 0.896159 0.947546 -0.284913
C3    C     C_3   0.824341 0.153475 0.159039 -0.248231
C4    C     C_3   0.233398 0.979462 0.131107 -0.091965
C5    C     C_3   0.774069 0.014103 0.864460 -0.050094
C6    C     C_3   0.177736 0.768437 0.146412 -0.221027
C7    C     C_3   0.746206 0.241600 0.918193 -0.167822
C8    C     C_3   0.917770 0.465313 0.767988 -0.223699
C9    C     C_3   0.145815 0.466962 0.146066 -0.192874
C10   C     C_3   0.513955 0.116258 0.891741 -0.326385
C11   C     C_3   0.482375 0.883191 0.108497 -0.224224
C12   C     C_3   0.374762 0.106038 0.060064 -0.191379
C13   C     C_3   0.454765 0.035365 0.043945 0.569922
C14   C     C_3   0.624497 0.893712 0.938768 -0.171916
C15   C     C_3   0.544484 0.964478 0.955272 0.551442
C16   C     C_3   0.413874 0.427710 0.449214 -0.144870
C17   C     C_3   0.586208 0.572301 0.550875 -0.143641
C18   C     C_3   0.486848 0.406981 0.450423 -0.156243
C19   C     C_3   0.513238 0.593037 0.549677 -0.156745
C20   C     C_3   0.550306 0.500514 0.449175 0.057540
C21   C     C_3   0.449762 0.499493 0.550903 0.056944
C22   C     C_3   0.478119 0.521349 0.447163 -0.195552
C23   C     C_R   0.889030 0.779737 0.390113 0.794889
C24   C     C_3   0.521965 0.478682 0.552946 -0.194285
C25   C     C_R   0.173810 0.190176 0.824296 -0.237649
C26   C     C_R   0.830101 0.812893 0.175510 -0.229928
C27   C     C_R   0.391969 0.780716 0.888451 0.899782
C28   C     C_R   0.607896 0.219194 0.111260 0.873314
C29   C     C_R   0.144933 0.141399 0.733205 -0.206452
C30   C     C_R   0.857922 0.859980 0.266358 -0.208902
C31   C     C_R   0.056827 0.097892 0.688550 -0.059359
C32   C     C_R   0.945434 0.902156 0.311348 -0.059159
C33   C     C_R   0.995302 0.098196 0.735795 0.355189
C34   C     C_3   0.994978 0.440091 0.413868 -0.439223
C35   C     C_R   0.007423 0.901815 0.264680 0.386455
C36   C     C_R   0.023811 0.143254 0.826859 0.499965
C37   C     C_R   0.980104 0.858633 0.173932 0.496528
C38   C     C_R   0.113980 0.192617 0.872136 0.369879
C39   C     C_R   0.890449 0.810833 0.128271 0.363770
C40   C     C_R   0.975692 0.943875 0.536250 -0.243927
C41   C     C_R   0.025700 0.056056 0.463669 -0.243398
C42   C     C_R   0.945579 0.892221 0.444556 -0.062220
C43   C     C_R   0.055454 0.107727 0.555384 -0.061225
C44   C     C_R   0.971449 0.949326 0.407663 0.025722
C45   C     C_3   0.004211 0.559582 0.585729 -0.454251
C46   C     C_R   0.030091 0.050604 0.592245 0.028144
C47   C     C_R   0.709501 0.705687 0.888041 0.354973
C48   C     C_R   0.291285 0.298323 0.114151 0.347959
C49   C     C_R   0.637882 0.621450 0.883811 0.423617
C50   C     C_R   0.363311 0.382235 0.118309 0.422183
C51   C     C_R   0.109109 0.499214 0.887916 0.853120
C52   C     C_R   0.890160 0.500094 0.111289 0.863344
C53   C     C_R   0.598646 0.639184 0.951904 -0.067525
C54   C     C_R   0.402010 0.363984 0.049844 -0.066579
C55   C     C_R   0.629131 0.742441 0.020907 0.304456
C56   C     C_3   0.424849 0.965026 0.940975 -0.493882
C57   C     C_R   0.371163 0.260583 0.980927 0.302619
C58   C     C_R   0.701449 0.824303 0.024525 -0.295828
C59   C     C_R   0.298763 0.179052 0.977616 -0.294210
C60   C     C_R   0.743184 0.807874 0.960447 0.259618
C61   C     C_R   0.257196 0.195957 0.041816 0.269631
C62   C     C_R   0.589200 0.535457 0.003149 0.466666
C63   C     C_R   0.412402 0.469018 0.999686 0.483630
C64   C     C_R   0.549179 0.489893 0.047114 -0.310608
C65   C     C_R   0.451661 0.511917 0.953762 -0.315110
C66   C     C_R   0.457577 0.447340 0.037863 -0.059426
C67   C     C_3   0.574092 0.034441 0.058360 -0.520830
C68   C     C_R   0.543440 0.555695 0.963875 -0.062210
C69   C     C_R   0.165639 0.821144 0.001438 0.366261
C70   C     C_R   0.836369 0.172852 0.993260 0.329776
C71   C     C_R   0.139890 0.742506 0.012580 0.400709
C72   C     C_R   0.861118 0.248479 0.978150 0.377031
C73   C     C_R   0.056314 0.647327 0.957447 -0.211144
C74   C     C_R   0.939444 0.347888 0.036700 -0.126899
C75   C     C_R   0.392381 0.499577 0.607787 0.770890
C76   C     C_R   0.607628 0.500413 0.392226 0.771195
C77   C     C_R   0.999657 0.630973 0.890862 0.403741
C78   C     C_3   0.523287 0.033686 0.949436 0.510151
C79   C     C_R   0.994433 0.371003 0.109043 0.436626
C80   C     C_R   0.025284 0.710097 0.880439 0.253411
C81   C     C_R   0.969023 0.295884 0.125237 0.227084
C82   C     C_R   0.111010 0.803789 0.932796 0.214281
C83   C     C_R   0.887003 0.197829 0.069392 0.252066
C84   C     C_R   0.970772 0.566283 0.028258 0.363917
C85   C     C_R   0.013210 0.420106 0.956815 0.372498
C86   C     C_R   0.945360 0.498310 0.053305 -0.221477
C87   C     C_R   0.048006 0.495766 0.939902 -0.257055
C88   C     C_R   0.967744 0.425530 0.017586 0.060016
C89   C     C_3   0.475470 0.965827 0.049703 0.508230
C90   C     C_R   0.024160 0.567215 0.973905 0.014902
C91   C     C_R   0.394251 0.503735 0.891707 0.844136
C92   C     C_R   0.605908 0.496143 0.108020 0.831585
C93   C     C_R   0.108187 0.499838 0.608217 0.915005
C94   C     C_R   0.891787 0.500219 0.391675 0.939451
C95   C     C_3   0.081050 0.538136 0.493414 0.485084
C96   C     C_3   0.918222 0.461533 0.505824 0.485725
C97   C     C_3   0.035612 0.595738 0.525441 0.369430
C98   C     C_3   0.963758 0.404025 0.474161 0.359889
C99   C     C_3   0.949618 0.499374 0.447135 -0.178486
C100  C     C_3   0.552114 0.103570 0.051693 -0.283122
C101  C     C_3   0.050082 0.500540 0.552536 -0.179203
C102  C     C_3   0.721191 0.689887 0.760332 -0.276586
C103  C     C_3   0.279205 0.314138 0.241806 -0.292322
C104  C     C_3   0.531606 0.461648 0.758560 -0.296008
C105  C     C_3   0.470969 0.541318 0.243394 -0.297844
C106  C     C_3   0.175473 0.591004 0.422080 -0.206393
C107  C     C_3   0.819092 0.407454 0.573050 -0.255781
C108  C     C_3   0.675172 0.477981 0.941751 -0.142024
C109  C     C_3   0.326160 0.529262 0.055568 -0.196970
C110  C     C_3   0.168471 0.849988 0.842842 -0.259987
H1    H     H_    0.243062 0.226584 0.857554 0.201914
H2    H     H_    0.008382 0.607925 0.655381 0.203340
H3    H     H_    0.364824 0.937853 0.893903 0.173966
H4    H     H_    0.633370 0.060664 0.105592 0.175405
H5    H     H_    0.476533 0.330406 0.408613 0.145435
H6    H     H_    0.523557 0.669615 0.591493 0.146978
H7    H     H_    0.342089 0.367186 0.409847 0.140087
H8    H     H_    0.658002 0.632751 0.590232 0.139515
H9    H     H_    0.460969 0.540260 0.404276 0.134276
H10   H     H_    0.539194 0.459958 0.595968 0.134553
H11   H     H_    0.126309 0.740915 0.602621 0.339279
H12   H     H_    0.761318 0.777819 0.142003 0.202026
H13   H     H_    0.872676 0.258941 0.397200 0.339571
H14   H     H_    0.207514 0.282217 0.984422 0.366106
H15   H     H_    0.797807 0.722756 0.015588 0.370176
H16   H     H_    0.897610 0.038508 0.635589 0.336562
H17   H     H_    0.103598 0.959049 0.364908 0.336111
H18   H     H_    0.989233 0.171775 0.933031 0.361062
H19   H     H_    0.016788 0.834774 0.069414 0.356736
H20   H     H_    0.846897 0.871278 0.928505 0.381484
H21   H     H_    0.153105 0.133244 0.073619 0.382167
H22   H     H_    0.739672 0.768728 0.786327 0.136828
H23   H     H_    0.192148 0.140386 0.697620 0.171931
H24   H     H_    0.647463 0.633878 0.728846 0.155561
H25   H     H_    0.752278 0.668205 0.708565 0.209254
H26   H     H_    0.353148 0.368223 0.272253 0.160709
H27   H     H_    0.258725 0.234658 0.215926 0.149173
H28   H     H_    0.249494 0.337962 0.294382 0.208203
H29   H     H_    0.515671 0.504791 0.742904 0.166649
H30   H     H_    0.480406 0.422894 0.782170 0.159795
H31   H     H_    0.528209 0.399967 0.695707 0.176604
H32   H     H_    0.486230 0.497368 0.258438 0.169636
H33   H     H_    0.475316 0.603424 0.306648 0.174210
H34   H     H_    0.810408 0.861109 0.301531 0.172510
H35   H     H_    0.522110 0.579563 0.219445 0.165989
H36   H     H_    0.540352 0.706301 0.078054 0.333412
H37   H     H_    0.460102 0.295980 0.923679 0.331348
H38   H     H_    0.147605 0.633746 0.422627 0.184290
H39   H     H_    0.141402 0.513745 0.357734 0.219914
H40   H     H_    0.246909 0.635148 0.428263 0.180309
H41   H     H_    0.852062 0.484642 0.637311 0.214694
H42   H     H_    0.845429 0.363745 0.573325 0.162921
H43   H     H_    0.746949 0.363445 0.564594 0.194457
H44   H     H_    0.619416 0.423300 0.877685 0.163262
H45   H     H_    0.956866 0.901209 0.565315 0.193662
H46   H     H_    0.671696 0.436526 0.970882 0.106252
H47   H     H_    0.738806 0.503720 0.926995 0.223664
H48   H     H_    0.368957 0.592639 0.048315 0.099689
H49   H     H_    0.346993 0.559576 0.126301 0.196641
H50   H     H_    0.257083 0.507448 0.036225 0.188028
H51   H     H_    0.209547 0.820220 0.842618 0.167138
H52   H     H_    0.209953 0.918294 0.841790 0.169120
H53   H     H_    0.109630 0.791099 0.781291 0.173523
H54   H     H_    0.778791 0.084258 0.157771 0.161365
H55   H     H_    0.785938 0.185141 0.156341 0.170510
H56   H     H_    0.044604 0.098723 0.434602 0.193255
H57   H     H_    0.879949 0.210447 0.223012 0.174827
H58   H     H_    0.209987 0.947740 0.170335 0.192824
H59   H     H_    0.186789 0.994347 0.111695 0.179043
H60   H     H_    0.297973 0.055022 0.176211 0.189414
H61   H     H_    0.825002 0.005627 0.886112 0.169238
H62   H     H_    0.793373 0.043790 0.823208 0.236480
H63   H     H_    0.711482 0.935780 0.821099 0.165820
H64   H     H_    0.152853 0.697241 0.142755 0.166016
H65   H     H_    0.127064 0.787235 0.156872 0.221269
H66   H     H_    0.238535 0.832451 0.205837 0.187985
H67   H     H_    0.727242 0.902630 0.079812 0.218516
H68   H     H_    0.773323 0.322172 0.942360 0.104904
H69   H     H_    0.717026 0.226433 0.965867 0.190137
H70   H     H_    0.691218 0.190444 0.854647 0.201310
H71   H     H_    0.945325 0.432885 0.787176 0.140515
H72   H     H_    0.956951 0.494497 0.731507 0.152647
H73   H     H_    0.848504 0.400761 0.722101 0.168935
H74   H     H_    0.134983 0.424717 0.073582 0.201064
H75   H     H_    0.162566 0.432442 0.172749 0.249979
H76   H     H_    0.204474 0.547538 0.178622 0.147831
H77   H     H_    0.984579 0.760274 0.829749 0.379798
H78   H     H_    0.272689 0.100641 0.922386 0.215456
H79   H     H_    0.010153 0.256067 0.187392 0.379606
H80   H     H_    0.931473 0.642863 0.016247 0.373240
H81   H     H_    0.997894 0.304535 0.849295 0.362915
H82   H     H_    0.536824 0.187776 0.958217 0.153166
H83   H     H_    0.439740 0.064455 0.864883 0.190793
H84   H     H_    0.536209 0.139450 0.846722 0.188243
H85   H     H_    0.556155 0.937603 0.140714 0.162011
H86   H     H_    0.464704 0.814444 0.042035 0.145295
H87   H     H_    0.455286 0.855685 0.149862 0.195332
H88   H     H_    0.418307 0.144174 0.031238 0.145329
H89   H     H_    0.990062 0.391224 0.344183 0.223568
H90   H     H_    0.362907 0.161433 0.112536 0.171253
H91   H     H_    0.309745 0.037683 0.007685 0.234085
H92   H     H_    0.634813 0.837009 0.885746 0.166943
H93   H     H_    0.581265 0.856674 0.968456 0.137396
H94   H     H_    0.690095 0.961283 0.990528 0.235924
O1    O     O_3   0.251620 0.500000 0.748430 -0.500916
O2    O     O_R   0.570330 0.268390 0.136490 -0.638617
O3    O     O_R   0.134680 0.268390 0.572240 -0.642761
O4    O     O_R   0.865320 0.731610 0.427760 -0.643340
O5    O     O_R   0.306670 0.731630 0.863510 -0.628696
O6    O     O_R   0.693330 0.268370 0.136490 -0.658425
O7    O     O_R   0.135450 0.439270 0.865360 -0.620715
O8    O     O_R   0.864550 0.560730 0.134640 -0.567263
O9    O     O_R   0.429670 0.560710 0.692610 -0.664302
O10   O     O_R   0.570330 0.439290 0.307390 -0.662683
O11   O     O_R   0.308540 0.439240 0.865360 -0.586176
O12   O     O_3   0.748380 0.500000 0.251570 -0.504055
O13   O     O_R   0.691460 0.560760 0.134640 -0.589502
O14   O     O_R   0.133580 0.439310 0.571150 -0.589910
O15   O     O_R   0.866420 0.560690 0.428850 -0.592732
O16   O     O_R   0.430770 0.560690 0.864590 -0.676428
O17   O     O_R   0.569230 0.439310 0.135410 -0.675925
O18   O     O_R   0.133580 0.560760 0.692610 -0.687763
O19   O     O_R   0.866420 0.439240 0.307390 -0.665822
O20   O     O_3   0.072717 0.695858 0.549769 -0.749119
O21   O     O_3   0.926488 0.303864 0.449795 -0.751352
O22   O     O_3   0.141857 0.243690 0.962774 -0.756333
O23   O     O_R   0.134680 0.560740 0.864590 -0.652597
O24   O     O_3   0.863504 0.761625 0.037841 -0.739517
O25   O     O_3   0.907311 0.056799 0.696507 -0.738751
O26   O     O_3   0.094900 0.942053 0.304412 -0.757798
O27   O     O_3   0.961837 0.140650 0.870160 -0.750324
O28   O     O_3   0.042776 0.862170 0.131424 -0.796969
O29   O     O_3   0.817894 0.893486 0.972445 -0.698727
O30   O     O_3   0.182195 0.110661 0.029936 -0.699782
O31   O     O_3   0.753587 0.686982 0.827238 -0.525036
O32   O     O_3   0.247408 0.317621 0.175060 -0.559087
O33   O     O_3   0.617731 0.524097 0.820250 -0.559795
O34   O     O_R   0.865320 0.439260 0.135410 -0.683128
O35   O     O_3   0.384666 0.479996 0.182443 -0.580508
O36   O     O_3   0.595940 0.768309 0.090471 -0.784353
O37   O     O_3   0.404111 0.234280 0.911213 -0.785144
O38   O     O_3   0.170096 0.582058 0.493388 -0.613927
O39   O     O_3   0.828198 0.417297 0.502630 -0.606351
O40   O     O_3   0.675500 0.566094 0.002125 -0.601149
O41   O     O_3   0.326566 0.440120 0.001466 -0.599315
O42   O     O_3   0.141815 0.879916 0.918875 -0.552385
O43   O     O_3   0.856478 0.124464 0.086778 -0.550725
O44   O     O_3   0.246767 0.914663 0.056359 -0.519599
O45   O     O_R   0.306670 0.439270 0.571150 -0.634378
O46   O     O_3   0.757657 0.076597 0.937503 -0.542093
O47   O     O_3   0.201890 0.756485 0.070601 -0.559192
O48   O     O_3   0.812515 0.221747 0.901367 -0.565742
O49   O     O_3   0.914221 0.541701 0.842384 -0.554251
O50   O     O_3   0.071601 0.469158 0.165939 -0.599556
O51   O     O_3   0.964459 0.693617 0.819616 -0.695037
O52   O     O_3   0.025840 0.320499 0.195325 -0.755972
O53   O     O_3   0.948396 0.637044 0.062894 -0.725719
O54   O     O_3   0.021670 0.338433 0.913746 -0.714356
O55   O     O_3   0.552067 0.065635 0.893761 -0.578022
O56   O     O_R   0.693330 0.560730 0.428850 -0.634454
O57   O     O_3   0.443925 0.932390 0.103969 -0.540853
O58   O     O_3   0.412595 0.077137 0.098348 -0.557704
O59   O     O_3   0.587530 0.923852 0.901171 -0.550256
O60   O     O_R   0.135450 0.268370 0.694460 -0.642061
O61   O     O_R   0.864550 0.731630 0.305540 -0.633328
O62   O     O_R   0.429670 0.731610 0.863510 -0.647015
Zn1   Zn    Zn3+2 0.207400 0.586780 0.791530 0.966005
Zn2   Zn    Zn3+2 0.792600 0.413220 0.208470 0.951837
Zn3   Zn    Zn3+2 0.208510 0.413230 0.792630 0.981683
Zn4   Zn    Zn3+2 0.791490 0.586770 0.207370 0.998270
Zn5   Zn    Zn3+2 0.383150 0.586740 0.791530 0.936744
Zn6   Zn    Zn3+2 0.616850 0.413260 0.208470 0.927547
Zn7   Zn    Zn3+2 0.207400 0.413250 0.618010 1.001216
Zn8   Zn    Zn3+2 0.792600 0.586750 0.381990 1.009101

loop_
_geom_bond_atom_site_label_1
_geom_bond_atom_site_label_2
_ccdc_geom_bond_type
C8    H71   S    
C37   O28   S    
C29   H23   S    
O1    Zn5   S    
C97   O20   S    
C11   O57   S    
C16   C21   S    
C106  H40   S    
C80   O51   S    
O2    Zn6   S    
C23   O4    A    
C28   O2    A    
C23   O61   A    
C9    O50   S    
C67   C89   S    
C103  H26   S    
C17   C20   S    
C63   C65   A    
C110  H52   S    
C45   H2    S    
C3    H57   S    
O3    Zn7   S    
H11   O20   S    
C40   C46   A    
C76   O56   A    
H19   O28   S    
C3    H55   S    
C103  O32   S    
C23   C42   S    
C84   C90   A    
C6    O47   S    
C18   C24   S    
C94   C99   S    
C92   O17   A    
C35   C37   A    
C67   H4    S    
C102  H22   S    
C73   C90   S    
C48   C50   A    
C9    H75   S    
O62   Zn5   S    
C10   H84   S    
C86   C88   A    
C26   C39   A    
C57   C59   A    
C27   O62   A    
C6    H65   S    
H37   O37   S    
C58   C60   A    
O13   Zn4   S    
C96   C99   S    
O1    Zn7   S    
C8    O49   S    
C27   O5    A    
C33   C36   A    
C56   C78   S    
C20   C76   S    
O5    Zn1   S    
H81   O54   S    
C71   O47   S    
C91   O16   A    
C69   C71   A    
O16   Zn5   S    
C73   C77   A    
C102  H25   S    
C4    O44   S    
C57   O37   S    
C69   C82   A    
C81   C83   A    
C47   C60   A    
C34   H89   S    
C1    C43   S    
O12   Zn2   S    
O1    Zn1   S    
C4    H58   S    
C31   C46   S    
C96   C98   S    
O6    Zn2   S    
C52   O8    A    
C91   O11   A    
C78   O55   S    
C31   C33   A    
C40   H45   S    
C93   O18   A    
C45   C96   S    
C55   O36   S    
C72   O48   S    
H15   O24   S    
C13   O58   S    
C70   O46   S    
C62   C64   A    
C52   O34   A    
C38   O22   S    
C13   C56   S    
O56   Zn8   S    
C28   C100  S    
O4    Zn8   S    
C110  O42   S    
C63   C66   A    
C15   C67   S    
C102  O31   S    
C106  H39   S    
C14   H93   S    
C61   O30   S    
C41   C43   A    
H80   O53   S    
C107  O39   S    
C104  O33   S    
C42   C44   A    
C52   C86   S    
C106  O38   S    
C33   O25   S    
C109  H48   S    
O12   Zn4   S    
C53   C68   S    
C110  H51   S    
C47   O31   S    
C53   C55   A    
H21   O30   S    
C25   C29   A    
C22   H9    S    
C63   O41   S    
O1    Zn3   S    
C59   C61   A    
C17   C24   S    
C24   H10   S    
C4    H59   S    
C82   O42   S    
C85   C87   A    
C7    H69   S    
C30   C32   A    
C32   C35   A    
C84   O53   S    
C19   C22   S    
C77   O49   S    
C11   H86   S    
C72   C74   A    
C9    H76   S    
C97   C99   S    
C10   H83   S    
C51   C87   S    
C105  H32   S    
C71   C73   A    
C93   C101  S    
H79   O52   S    
C45   C101  S    
C108  H47   S    
C6    H64   S    
C80   C82   A    
C75   O9    A    
O15   Zn8   S    
C10   H82   S    
C104  H30   S    
C7    H68   S    
C14   H94   S    
C93   O14   A    
C64   C66   A    
C2    C89   S    
O61   Zn4   S    
C102  H24   S    
C96   O39   S    
C70   C83   A    
C76   O10   A    
C25   C38   A    
C70   C72   A    
C1    O60   A    
C69   O44   S    
C108  H46   S    
O8    Zn4   S    
C56   H3    S    
C65   C68   A    
C105  H35   S    
C41   H56   S    
H16   O25   S    
C34   C99   S    
C105  O35   S    
C106  H38   S    
O10   Zn6   S    
C59   H78   S    
C16   C18   S    
C12   O58   S    
C12   H91   S    
O11   Zn3   S    
C2    C15   S    
C39   O24   S    
C2    C27   S    
O17   Zn6   S    
C4    H60   S    
C3    H54   S    
H13   O21   S    
C107  H42   S    
C67   C100  S    
C8    H73   S    
C49   O33   S    
C12   H90   S    
H36   O36   S    
C26   C30   A    
H18   O27   S    
C74   C79   A    
C104  H31   S    
C51   O23   A    
C94   O19   A    
C85   O54   S    
C41   C44   A    
O45   Zn7   S    
C103  H28   S    
C89   O57   S    
C21   C24   S    
C30   H34   S    
H77   O51   S    
C36   C38   A    
C109  H49   S    
C79   O50   S    
C50   C54   A    
C5    H61   S    
C79   C81   A    
C77   C80   A    
C8    H72   S    
C65   C91   S    
C50   O35   S    
C16   C22   S    
C108  O40   S    
C13   C89   S    
C48   O32   S    
C5    H63   S    
C5    O46   S    
O60   Zn3   S    
C60   O29   S    
C34   C98   S    
C11   H85   S    
C40   C42   A    
C15   C78   S    
C18   H5    S    
C105  H33   S    
H14   O22   S    
C110  H53   S    
C95   C97   S    
C62   O40   S    
C54   C66   S    
O14   Zn7   S    
C98   C101  S    
C20   C22   S    
C21   C75   S    
H20   O29   S    
C104  H29   S    
C62   C68   A    
C7    O48   S    
C35   O26   S    
C12   H88   S    
C98   O21   S    
C13   C100  S    
C103  H27   S    
C107  H41   S    
C29   C31   A    
C9    H74   S    
C2    C56   S    
C16   H7    S    
C78   C100  S    
O18   Zn1   S    
C3    O43   S    
O23   Zn1   S    
C48   C61   A    
C55   C58   A    
C6    H66   S    
C19   H6    S    
C47   C49   A    
C36   O27   S    
C49   C53   A    
C14   H92   S    
O34   Zn2   S    
C94   O15   A    
C17   C19   S    
C5    H62   S    
O19   Zn2   S    
C7    H70   S    
C58   H67   S    
C18   C20   S    
C85   C88   A    
H17   O26   S    
C81   O52   S    
O9    Zn5   S    
C92   O13   A    
C1    O3    A    
C43   C46   A    
C15   O59   S    
C14   O59   S    
C25   H1    S    
C95   O38   S    
C109  O41   S    
C11   H87   S    
C17   H8    S    
C107  H43   S    
C51   O7    A    
C108  H44   S    
C32   C44   S    
C37   C39   A    
C87   C90   A    
C83   O43   S    
O7    Zn3   S    
O12   Zn8   S    
C10   O55   S    
C84   C86   A    
C45   C97   S    
C34   C95   S    
C26   H12   S    
C64   C92   S    
C74   C88   S    
C75   O45   A    
C109  H50   S    
C28   O6    A    
O12   Zn6   S    
C95   C101  S    
C19   C21   S    
C54   C57   A    
