data_mof_unit_51984.cif
_audit_creation_date              2013-03-05T15:43:42-0500
_audit_creation_method            fapswitch 2.2
_symmetry_space_group_name_H-M    P1
_symmetry_Int_Tables_number       1
_space_group_crystal_system       triclinic
_cell_length_a                    14.015539
_cell_length_b                    13.982703
_cell_length_c                    27.292594
_cell_angle_alpha                 90.196266
_cell_angle_beta                  89.872725
_cell_angle_gamma                 120.570568
_cell_volume                      4605.19477794

loop_
_atom_site_label
_atom_site_type_symbol
_atom_site_description
_atom_site_fract_x
_atom_site_fract_y
_atom_site_fract_z
_atom_type_partial_charge
O1    O     O_R   0.137150 0.468200 0.553200 -0.505685
O2    O     O_R   0.531800 0.668950 0.553200 -0.508871
O3    O     O_R   0.331050 0.862850 0.553200 -0.505442
O4    O     O_R   0.173970 0.688730 0.549930 -0.489965
O5    O     O_R   0.311270 0.485240 0.549930 -0.486639
O6    O     O_R   0.514760 0.826030 0.549930 -0.492560
C1    C     C_R   0.233904 0.787747 0.568593 0.554793
C2    C     C_R   0.212236 0.446515 0.568763 0.551930
C3    C     C_R   0.553594 0.766572 0.568675 0.542892
O7    O     O_R   0.140110 0.470540 0.446010 -0.510493
O8    O     O_R   0.529460 0.669570 0.446010 -0.530749
O9    O     O_R   0.330430 0.859890 0.446010 -0.497875
O10   O     O_R   0.176710 0.690910 0.450560 -0.518378
O11   O     O_R   0.309090 0.485800 0.450560 -0.499000
O12   O     O_R   0.514200 0.823290 0.450560 -0.520525
C4    C     C_R   0.260982 0.765331 0.425187 0.537305
C5    C     C_R   0.236388 0.499234 0.425649 0.543359
C6    C     C_R   0.554570 0.766452 0.431366 0.532224
Cr1   Cr    Cr6+3 0.164410 0.584450 0.499910 1.014805
Cr2   Cr    Cr6+3 0.415550 0.579960 0.499910 1.013008
Cr3   Cr    Cr6+3 0.420040 0.835590 0.499910 1.015462
O13   O     O_3   0.333333 0.666667 0.499990 -0.309329
C7    C     C_3   0.613312 0.902655 0.734649 0.188430
C8    C     C_3   0.104412 0.716836 0.734219 0.184874
C9    C     C_3   0.298436 0.408236 0.733373 0.186071
C10   C     C_3   0.800069 0.924028 0.714224 -0.203189
C11   C     C_3   0.087172 0.884529 0.714126 -0.202596
C12   C     C_3   0.126852 0.218287 0.722293 -0.199232
C13   C     C_3   0.829123 0.947678 0.769180 -0.218700
C14   C     C_3   0.064013 0.890774 0.768991 -0.220909
C15   C     C_3   0.130424 0.201630 0.778271 -0.211958
H1    H     H_    0.686730 0.008710 0.799577 0.126003
H2    H     H_    0.000911 0.683437 0.799290 0.121405
H3    H     H_    0.341859 0.356895 0.801531 0.112610
H4    H     H_    0.843189 0.882780 0.698270 0.112933
H5    H     H_    0.129925 0.969584 0.698219 0.115642
H6    H     H_    0.039340 0.172501 0.709463 0.114142
H7    H     H_    0.830315 0.003657 0.694304 0.159891
H8    H     H_    0.007482 0.835050 0.694118 0.160916
H9    H     H_    0.171355 0.182681 0.702628 0.161474
H10   H     H_    0.861485 0.037342 0.776406 0.147952
H11   H     H_    0.974608 0.832298 0.776111 0.159680
H12   H     H_    0.188668 0.171525 0.785855 0.156524
H13   H     H_    0.896110 0.931846 0.778534 0.127445
H14   H     H_    0.082728 0.975939 0.778139 0.133485
H15   H     H_    0.047719 0.136259 0.791298 0.137297
C16   C     C_1   0.795174 0.898512 0.894689 -0.022229
C17   C     C_1   0.103933 0.898643 0.894577 -0.024390
C18   C     C_1   0.139047 0.263343 0.902100 -0.032399
C19   C     C_3   0.673420 0.848588 0.708165 0.042711
C20   C     C_3   0.160342 0.831979 0.708166 0.044871
C21   C     C_3   0.179731 0.343592 0.710839 0.047155
C22   C     C_3   0.643422 0.918428 0.791034 -0.097878
C23   C     C_3   0.090628 0.732109 0.790548 -0.094824
C24   C     C_3   0.291529 0.394267 0.790847 -0.096819
C25   C     C_3   0.726037 0.877082 0.801910 0.035493
C26   C     C_3   0.132223 0.856999 0.801737 0.042571
C27   C     C_3   0.169005 0.312170 0.806517 0.043050
C28   C     C_3   0.670730 0.751966 0.787749 0.170598
C29   C     C_3   0.257176 0.928674 0.787938 0.172227
C30   C     C_3   0.094399 0.359912 0.791139 0.170686
C31   C     C_3   0.637900 0.735968 0.732943 -0.219402
C32   C     C_3   0.273272 0.909275 0.733275 -0.217177
C33   C     C_3   0.108174 0.385785 0.735496 -0.215937
C34   C     C_1   0.762036 0.891052 0.853421 -0.071827
C35   C     C_1   0.115488 0.876469 0.853218 -0.070076
C36   C     C_1   0.157516 0.289498 0.859619 -0.078652
C37   C     C_1   0.642203 0.827766 0.656171 -0.049424
C38   C     C_1   0.178956 0.819797 0.656253 -0.050382
C39   C     C_1   0.184769 0.364980 0.657781 -0.051626
C40   C     C_1   0.607738 0.803089 0.614991 -0.010513
C41   C     C_1   0.200165 0.807260 0.614968 -0.009166
C42   C     C_1   0.193770 0.394918 0.615822 -0.010729
H16   H     H_    0.546485 0.681212 0.729745 0.095674
H17   H     H_    0.325562 0.870542 0.730905 0.098965
H18   H     H_    0.148391 0.477144 0.730158 0.095031
H19   H     H_    0.676065 0.693392 0.713550 0.150766
H20   H     H_    0.318244 0.990068 0.713589 0.149069
H21   H     H_    0.025440 0.347187 0.717522 0.147147
H22   H     H_    0.592231 0.705968 0.809332 0.139931
H23   H     H_    0.303637 0.898801 0.810287 0.159031
H24   H     H_    0.124235 0.440229 0.811012 0.153086
H25   H     H_    0.522794 0.843718 0.728895 0.155926
H26   H     H_    0.160999 0.683494 0.728047 0.149456
H27   H     H_    0.333101 0.496967 0.722719 0.146380
O14   O     O_R   0.176750 0.985260 0.074180 -0.508756
O15   O     O_R   0.014740 0.191490 0.074180 -0.517446
O16   O     O_R   0.808510 0.823250 0.074180 -0.516313
O17   O     O_R   0.146100 0.172630 0.068980 -0.492710
O18   O     O_R   0.827370 0.973470 0.068980 -0.486747
O19   O     O_R   0.026530 0.853900 0.068980 -0.490892
C43   C     C_R   0.106030 0.221328 0.088559 0.562594
C44   C     C_R   0.776373 0.883576 0.087542 0.568403
C45   C     C_R   0.115368 0.892592 0.087692 0.572630
Cr4   Cr    Cr6+3 0.155170 0.075460 0.019960 1.007037
Cr5   Cr    Cr6+3 0.924540 0.079710 0.019960 1.009094
Cr6   Cr    Cr6+3 0.920290 0.844830 0.019960 1.009508
C46   C     C_R   0.107207 0.219627 0.950581 0.537749
C47   C     C_R   0.837790 0.909011 0.943196 0.537239
C48   C     C_R   0.091534 0.929228 0.943114 0.539226
O20   O     O_3   1.000000 0.000000 0.020040 -0.251121
O21   O     O_R   0.148270 0.170520 0.969620 -0.520980
O22   O     O_R   0.829480 0.977750 0.969620 -0.492191
O23   O     O_R   0.022250 0.851730 0.969620 -0.508256
C49   C     C_R   0.641475 0.902314 0.362794 -0.146350
C50   C     C_R   0.127434 0.726570 0.357564 -0.136275
C51   C     C_R   0.308284 0.451606 0.351202 -0.127475
C52   C     C_R   0.667867 0.918647 0.312861 0.004360
C53   C     C_R   0.105624 0.733312 0.308372 0.003745
C54   C     C_R   0.300002 0.424769 0.301494 0.013940
C55   C     C_R   0.703322 0.941930 0.211141 0.010212
C56   C     C_R   0.064003 0.758863 0.210452 0.011628
C57   C     C_R   0.267357 0.350293 0.203926 0.015821
C58   C     C_R   0.714677 0.031242 0.239377 -0.139640
C59   C     C_R   0.975644 0.701859 0.243209 -0.134597
C60   C     C_R   0.351036 0.350798 0.232171 -0.129299
C61   C     C_R   0.696184 0.019383 0.289955 -0.144483
C62   C     C_R   0.996407 0.689612 0.292015 -0.143319
C63   C     C_R   0.367408 0.388063 0.280654 -0.128477
C64   C     C_R   0.726232 0.953679 0.160970 -0.138354
C65   C     C_R   0.044834 0.781526 0.163032 -0.137847
C66   C     C_R   0.241000 0.300631 0.157500 -0.139158
H28   H     H_    0.756438 0.033692 0.143626 0.119168
H29   H     H_    0.960836 0.754420 0.151406 0.124866
H30   H     H_    0.284952 0.261350 0.143165 0.118869
H31   H     H_    0.637965 0.966175 0.383980 0.122999
H32   H     H_    0.058962 0.686500 0.383150 0.131550
H33   H     H_    0.369894 0.446851 0.373301 0.131869
H34   H     H_    0.737404 0.109911 0.222343 0.108983
H35   H     H_    0.890860 0.669904 0.231467 0.112697
H36   H     H_    0.401128 0.318784 0.217349 0.105168
H37   H     H_    0.702787 0.088319 0.311015 0.113684
H38   H     H_    0.927281 0.647652 0.317130 0.109450
H39   H     H_    0.429851 0.384090 0.302410 0.100453
C67   C     C_R   0.720034 0.864674 0.134266 -0.007995
C68   C     C_R   0.134488 0.848499 0.132294 -0.007284
C69   C     C_R   0.151439 0.293386 0.131479 -0.009536
C70   C     C_R   0.619165 0.718325 0.357159 -0.127299
C71   C     C_R   0.325406 0.823702 0.340798 -0.138237
C72   C     C_R   0.157061 0.488329 0.343468 -0.135123
C73   C     C_R   0.637629 0.730313 0.307331 0.010758
C74   C     C_R   0.304947 0.831043 0.291403 0.015628
C75   C     C_R   0.149583 0.464501 0.293527 0.015288
C76   C     C_R   0.660369 0.830050 0.284750 0.062634
C77   C     C_R   0.194775 0.786776 0.275208 0.066422
C78   C     C_R   0.219232 0.429631 0.272697 0.063962
C79   C     C_R   0.627933 0.641473 0.279555 -0.131898
C80   C     C_R   0.392804 0.884413 0.258193 -0.130549
C81   C     C_R   0.070017 0.469808 0.264588 -0.126389
C82   C     C_R   0.638149 0.650245 0.229006 -0.132195
C83   C     C_R   0.372498 0.899103 0.209648 -0.131016
C84   C     C_R   0.055612 0.435518 0.215831 -0.131091
C85   C     C_R   0.662048 0.749374 0.206150 0.014126
C86   C     C_R   0.263685 0.859522 0.193756 0.014299
C87   C     C_R   0.119565 0.393985 0.195787 0.012858
C88   C     C_R   0.674588 0.840373 0.233971 0.063346
C89   C     C_R   0.174028 0.800019 0.226242 0.064908
C90   C     C_R   0.203666 0.393467 0.223791 0.063943
C91   C     C_R   0.680570 0.761055 0.156196 -0.134365
C92   C     C_R   0.243176 0.883848 0.146856 -0.136876
C93   C     C_R   0.095433 0.345637 0.149470 -0.133334
C94   C     C_R   0.612377 0.800076 0.384401 -0.001172
C95   C     C_R   0.237195 0.773067 0.373921 -0.001143
C96   C     C_R   0.233654 0.478646 0.372779 -0.008454
H40   H     H_    0.674778 0.692250 0.135178 0.120567
H41   H     H_    0.311763 0.934568 0.122472 0.116023
H42   H     H_    0.027578 0.341866 0.128789 0.121566
H43   H     H_    0.629773 0.580533 0.207926 0.102342
H44   H     H_    0.441958 0.943969 0.184942 0.112073
H45   H     H_    0.991153 0.436793 0.194491 0.106893
H46   H     H_    0.610625 0.564659 0.296865 0.098291
H47   H     H_    0.477211 0.917553 0.270141 0.129187
H48   H     H_    0.016238 0.496532 0.280128 0.118113
H49   H     H_    0.599251 0.639727 0.373531 0.132759
H50   H     H_    0.409776 0.857642 0.353647 0.117457
H51   H     H_    0.101338 0.511776 0.359815 0.125658
O24   O     O_R   0.179100 0.982980 0.967000 -0.502495
O25   O     O_R   0.017020 0.196120 0.967000 -0.516838
O26   O     O_R   0.803880 0.820900 0.967000 -0.513088
C97   C     C_2   0.543579 0.866703 0.824862 0.158737
H52   H     H_    0.556198 0.869405 0.864160 0.121196
O27   O     O_2   0.449070 0.824399 0.809328 -0.477345
C98   C     C_2   0.143748 0.685855 0.823929 0.138690
H53   H     H_    0.124128 0.677018 0.862730 0.115589
O28   O     O_2   0.208221 0.658515 0.808560 -0.473014
C99   C     C_2   0.341567 0.503034 0.818889 0.146956
H54   H     H_    0.351887 0.502645 0.858262 0.114259
O29   O     O_2   0.371064 0.591287 0.798530 -0.476136
O30   O     O_3   0.745245 0.713001 0.796533 -0.565841
C100  C     C_3   0.699401 0.623909 0.830179 -0.016563
H55   H     H_    0.622583 0.552115 0.815045 0.112908
H56   H     H_    0.680191 0.649963 0.865688 0.142979
C101  C     C_3   0.782253 0.586764 0.839989 -0.375684
H57   H     H_    0.858620 0.656178 0.856521 0.152072
H58   H     H_    0.745958 0.515704 0.865845 0.089417
H59   H     H_    0.803123 0.560069 0.805234 0.157095
O31   O     O_3   0.294578 0.043131 0.795553 -0.569118
C102  C     C_3   0.383844 0.091206 0.828991 -0.016078
H60   H     H_    0.456214 0.088289 0.814008 0.121599
H61   H     H_    0.359127 0.047380 0.864866 0.147554
C103  C     C_3   0.418207 0.211891 0.837661 -0.378913
H62   H     H_    0.348069 0.216854 0.853854 0.152597
H63   H     H_    0.489517 0.250852 0.863323 0.088984
H64   H     H_    0.443102 0.257868 0.802485 0.161217
O32   O     O_3   0.981370 0.280577 0.801014 -0.568020
C104  C     C_3   0.935117 0.322817 0.834642 -0.015131
H65   H     H_    0.937705 0.397987 0.819645 0.114051
H66   H     H_    0.980377 0.343801 0.870163 0.144297
C105  C     C_3   0.814807 0.235083 0.844014 -0.372266
H67   H     H_    0.809828 0.159483 0.859756 0.158432
H68   H     H_    0.777391 0.267623 0.870251 0.090115
H69   H     H_    0.767445 0.213158 0.809156 0.153547
O33   O     O_3   0.648179 0.007808 0.713126 -0.566494
C106  C     C_3   0.560939 0.030510 0.713137 -0.019124
H70   H     H_    0.521033 0.015464 0.749813 0.139808
H71   H     H_    0.498277 0.977942 0.685139 0.138778
C107  C     C_3   0.606186 0.151666 0.700175 -0.376308
H72   H     H_    0.648983 0.170770 0.664161 0.169352
H73   H     H_    0.536879 0.168343 0.698082 0.102632
H74   H     H_    0.665458 0.206015 0.728752 0.140597
O34   O     O_3   0.998484 0.646928 0.712915 -0.566378
C108  C     C_3   0.973795 0.535738 0.711493 -0.020313
H75   H     H_    0.987056 0.508816 0.747888 0.127740
H76   H     H_    0.026410 0.526533 0.683469 0.137862
C109  C     C_3   0.853091 0.460305 0.697368 -0.371036
H77   H     H_    0.836100 0.486453 0.661629 0.168420
H78   H     H_    0.834923 0.373445 0.694126 0.103441
H79   H     H_    0.798384 0.463976 0.725867 0.140636
O35   O     O_3   0.362403 0.364698 0.713410 -0.566270
C110  C     C_3   0.474727 0.448780 0.709307 -0.020327
H80   H     H_    0.506822 0.492865 0.744783 0.125948
H81   H     H_    0.484418 0.508963 0.680346 0.138606
C111  C     C_3   0.543588 0.397272 0.694902 -0.369764
H82   H     H_    0.511722 0.349467 0.660274 0.169648
H83   H     H_    0.631109 0.463854 0.689431 0.102634
H84   H     H_    0.540175 0.341030 0.724317 0.139915

loop_
_geom_bond_atom_site_label_1
_geom_bond_atom_site_label_2
_geom_bond_distance
_ccdc_geom_bond_type
Cr5   O20   1.886762 S    
C75   C78   1.411951 A    
C47   O22   1.251505 A    
O8    C6    1.279397 A    
C76   C88   1.397179 A    
C100  H55   1.112330 S    
O12   C6    1.295937 A    
O1    C2    1.306625 A    
C6    C94   1.460295 S    
C103  H62   1.110720 S    
C14   H14   1.108939 S    
C71   H50   1.084596 S    
O11   C5    1.316984 A    
C72   C75   1.393497 A    
C26   C35   1.471111 S    
C7    C19   1.563692 S    
C105  H69   1.110648 S    
O6    C3    1.309049 A    
O5    Cr2   1.946397 S    
C8    O34   1.421790 S    
C87   C93   1.390266 A    
C107  H74   1.110220 S    
C47   O26   1.254731 A    
C9    O35   1.421960 S    
O35   C110  1.410872 S    
C7    H25   1.117947 S    
C49   H31   1.084035 S    
C29   C32   1.551836 S    
C15   C27   1.555384 S    
C51   H33   1.083883 S    
O3    C1    1.295828 A    
C30   H24   1.117778 S    
C10   C19   1.544783 S    
C71   C74   1.393841 A    
C104  H66   1.113446 S    
Cr6   O26   2.077254 S    
C48   O24   1.248214 A    
O7    C5    1.318380 A    
C8    C23   1.576323 S    
C25   C34   1.473166 S    
C14   C26   1.549734 S    
C48   O23   1.253965 A    
C109  H79   1.110231 S    
C16   C47   1.429670 S    
C110  C111  1.519289 S    
C24   C99   1.516599 S    
C61   H37   1.083412 S    
C65   H29   1.085015 S    
O14   C45   1.192909 A    
C100  C101  1.518434 S    
C109  H78   1.110214 S    
C18   C46   1.431458 S    
O4    Cr1   1.948385 S    
Cr4   O24   2.073664 S    
C57   C66   1.399735 A    
O9    C4    1.306441 A    
C11   C20   1.543684 S    
C101  H58   1.110454 S    
C15   H15   1.108237 S    
C70   H49   1.084524 S    
C45   C68   1.452041 S    
C80   C83   1.393426 A    
C102  H60   1.112583 S    
C92   H41   1.084844 S    
C57   C90   1.413863 A    
C46   O25   1.217561 A    
C18   C36   1.204268 T    
C55   C88   1.410741 A    
O16   Cr6   2.060870 S    
Cr4   O21   1.951307 S    
H2    C23   1.109289 S    
C57   C60   1.401903 A    
C59   C62   1.393674 A    
C8    C20   1.560070 S    
H3    C24   1.110235 S    
O15   C43   1.193003 A    
C87   C90   1.409378 A    
C103  H64   1.109630 S    
C103  H63   1.110345 S    
C74   C77   1.411297 A    
C110  H80   1.111577 S    
C39   C42   1.204773 T    
O4    C1    1.302316 A    
C43   C69   1.461294 S    
C79   H46   1.083326 S    
C53   C62   1.401987 A    
C7    C22   1.581382 S    
C4    C95   1.456140 S    
C17   C48   1.427799 S    
C49   C52   1.400057 A    
O8    Cr2   2.061615 S    
O1    Cr1   2.070154 S    
C63   H39   1.083322 S    
C67   C91   1.397402 A    
C56   C89   1.411881 A    
O10   Cr1   1.952288 S    
O2    Cr2   2.062570 S    
Cr6   O23   1.947048 S    
O11   Cr2   1.942269 S    
C79   C82   1.386103 A    
C20   C32   1.550031 S    
C86   C89   1.412090 A    
C105  H67   1.111228 S    
C21   C33   1.550133 S    
C31   H19   1.114086 S    
C11   H8    1.112851 S    
C1    C41   1.423460 S    
C11   C14   1.543039 S    
C106  H70   1.112792 S    
C10   H7    1.112658 S    
C26   C29   1.558068 S    
C108  C109  1.519259 S    
C107  H72   1.110603 S    
C46   O21   1.215918 A    
O6    Cr3   1.958004 S    
O9    Cr3   2.074266 S    
C82   C85   1.398323 A    
C91   H40   1.085473 S    
C55   C64   1.396778 A    
C33   H21   1.113829 S    
C85   C88   1.411727 A    
O17   Cr4   1.953108 S    
C38   C41   1.199547 T    
C110  H81   1.113182 S    
C98   H53   1.085060 S    
C86   C92   1.393122 A    
O34   C108  1.410974 S    
C5    C96   1.467180 S    
C74   C80   1.399865 A    
C77   C89   1.401085 A    
C29   H23   1.118358 S    
C27   C36   1.475487 S    
C28   H22   1.118503 S    
O31   C102  1.412584 S    
C25   C28   1.558235 S    
C84   C87   1.401816 A    
O33   C106  1.410891 S    
O7    Cr1   2.061878 S    
C72   H51   1.083693 S    
C101  H59   1.109970 S    
C82   H43   1.083975 S    
O15   Cr5   2.052684 S    
Cr1   O13   2.039203 S    
C102  C103  1.518782 S    
C9    H27   1.117416 S    
C109  H77   1.110784 S    
C33   H18   1.113230 S    
C70   C94   1.404653 A    
C50   C95   1.404364 A    
O19   Cr6   1.959277 S    
O17   C43   1.204053 A    
C108  H76   1.112992 S    
C111  H83   1.110043 S    
C84   H45   1.083759 S    
C106  H71   1.112638 S    
C93   H42   1.084886 S    
C62   H38   1.083667 S    
C15   H12   1.112346 S    
C29   O31   1.422725 S    
C83   C86   1.401082 A    
C32   H20   1.113794 S    
C81   C84   1.392766 A    
Cr2   O13   2.053966 S    
C13   H13   1.099321 S    
C19   C31   1.547018 S    
C51   C54   1.395599 A    
O12   Cr3   1.951077 S    
C73   C76   1.406824 A    
C72   C96   1.401098 A    
C99   O29   1.219499 D    
C22   C97   1.517572 S    
H1    C22   1.111574 S    
C52   C76   1.412732 A    
C85   C91   1.381898 A    
O18   C44   1.198473 A    
C7    O33   1.421091 S    
C22   C25   1.564189 S    
C49   C94   1.403346 A    
O30   C100  1.413882 S    
O3    Cr3   2.070743 S    
O32   C104  1.412287 S    
O16   C44   1.196258 A    
C105  H68   1.110676 S    
C28   C31   1.547668 S    
C100  H56   1.113823 S    
C97   O27   1.219832 D    
C13   H10   1.112084 S    
C104  H65   1.112523 S    
C14   H11   1.110991 S    
C52   C61   1.403098 A    
C12   C15   1.550995 S    
C53   C77   1.410251 A    
C3    C40   1.428359 S    
C66   C69   1.401576 A    
C44   C67   1.450894 S    
C70   C73   1.378524 A    
C54   C63   1.402962 A    
O5    C2    1.310806 A    
C64   H28   1.084416 S    
O10   C4    1.307113 A    
O18   Cr5   1.949118 S    
C78   C90   1.403341 A    
C13   C25   1.552216 S    
C11   H5    1.113304 S    
C107  H73   1.109944 S    
C83   H44   1.083841 S    
C60   C63   1.396447 A    
C64   C67   1.404156 A    
Cr5   O25   2.068928 S    
C66   H30   1.084368 S    
C98   O28   1.219514 D    
C8    H26   1.117894 S    
C9    C21   1.560216 S    
C56   C65   1.392331 A    
C80   H47   1.078719 S    
C54   C78   1.409410 A    
C23   C26   1.563413 S    
C30   C33   1.551092 S    
C69   C93   1.403640 A    
C12   C21   1.548772 S    
C104  C105  1.519788 S    
Cr5   O22   1.938517 S    
C60   H36   1.083567 S    
C32   H17   1.112612 S    
C12   H6    1.112874 S    
C27   C30   1.558543 S    
C37   C40   1.202394 T    
C50   H32   1.084122 S    
C71   C95   1.398594 A    
C2    C42   1.432502 S    
C58   H34   1.083529 S    
C9    C24   1.578063 S    
C55   C58   1.403764 A    
C81   H48   1.082408 S    
C106  C107  1.519066 S    
C65   C68   1.401216 A    
C108  H75   1.112415 S    
C111  H84   1.109572 S    
C58   C61   1.398730 A    
C21   C39   1.473917 S    
O14   Cr4   2.067566 S    
C73   C79   1.399504 A    
C68   C92   1.399369 A    
C28   O30   1.423327 S    
C10   H4    1.113160 S    
C75   C81   1.400491 A    
C59   H35   1.083985 S    
C51   C96   1.407795 A    
C10   C13   1.545066 S    
C101  H57   1.110700 S    
C24   C27   1.563484 S    
C12   H9    1.112438 S    
C23   C98   1.516415 S    
C31   H16   1.112461 S    
C102  H61   1.113945 S    
C20   C38   1.465078 S    
C17   C35   1.201814 T    
C99   H54   1.084985 S    
Cr3   O13   2.033749 S    
O2    C3    1.306703 A    
C19   C37   1.469793 S    
C16   C34   1.203077 T    
C56   C59   1.401459 A    
Cr6   O20   1.868162 S    
C97   H52   1.084817 S    
Cr4   O20   1.873196 S    
C111  H82   1.110561 S    
C30   O32   1.423155 S    
O19   C45   1.191438 A    
C50   C53   1.391694 A    
