data_mof_unit_30141.cif
_audit_creation_date              2012-12-10T18:35:16-0500
_audit_creation_method            fapswitch 2.2
_symmetry_space_group_name_H-M    P1
_symmetry_Int_Tables_number       1
_space_group_crystal_system       triclinic
_cell_length_a                    18.754266
_cell_length_b                    18.775705
_cell_length_c                    18.781828
_cell_angle_alpha                 109.349857
_cell_angle_beta                  109.323434
_cell_angle_gamma                 109.330085
_cell_volume                      5116.72393176

loop_
_atom_site_label
_atom_site_type_symbol
_atom_type_description
_atom_site_fract_x
_atom_site_fract_y
_atom_site_fract_z
_atom_type_partial_charge
C1    C     C_R   0.382447 0.501524 0.381383 0.790841
C2    C     C_R   0.789154 0.806392 0.830743 -0.113534
C3    C     C_R   0.938472 0.726042 0.951164 -0.121427
C4    C     C_R   0.934960 0.711080 0.018367 -0.097980
C5    C     C_R   0.998117 0.773669 0.105136 0.121706
C6    C     C_R   0.279222 0.546580 0.945540 -0.144538
C7    C     C_R   0.195892 0.476190 0.885335 -0.188230
C8    C     C_R   0.169604 0.397670 0.886847 0.009784
C9    C     C_R   0.229445 0.388098 0.947213 0.499513
C10   C     C_R   0.314423 0.460473 0.007403 -0.231912
C11   C     C_R   0.338158 0.538866 0.006676 -0.172820
C12   C     C_R   0.077875 0.255182 0.753716 -0.181188
C13   C     C_R   0.824969 0.818381 0.576448 -0.253163
C14   C     C_R   0.997846 0.184202 0.684975 -0.096643
C15   C     C_R   0.919427 0.179515 0.679755 0.053158
C16   C     C_R   0.923369 0.244869 0.746415 -0.211968
C17   C     C_R   0.003453 0.315934 0.815569 -0.119997
C18   C     C_R   0.082014 0.322509 0.818447 0.041828
C19   C     C_R   0.772833 0.120645 0.553170 0.543556
C20   C     C_R   0.692353 0.048016 0.482697 -0.236568
C21   C     C_R   0.671385 0.964357 0.469129 -0.176614
C22   C     C_R   0.730069 0.951412 0.524410 -0.120982
C23   C     C_R   0.810158 0.021654 0.593277 -0.220255
C24   C     C_R   0.814683 0.810326 0.496462 -0.075654
C25   C     C_R   0.832807 0.106154 0.607295 0.032121
C26   C     C_R   0.739346 0.740260 0.418243 0.020993
C27   C     C_R   0.678461 0.677078 0.422454 -0.254158
C28   C     C_R   0.688733 0.685282 0.502449 -0.081957
C29   C     C_R   0.761420 0.758074 0.580696 -0.008830
C30   C     C_R   0.642993 0.720749 0.275834 -0.224455
C31   C     C_R   0.624790 0.709314 0.193127 -0.250744
C32   C     C_R   0.685604 0.708066 0.164609 0.580446
C33   C     C_R   0.620391 0.618742 0.501491 0.778487
C34   C     C_R   0.762657 0.715500 0.219673 -0.173295
C35   C     C_R   0.780989 0.727669 0.302551 -0.207747
C36   C     C_R   0.721585 0.730603 0.331475 0.131977
C37   C     C_R   0.430654 0.805201 0.515031 -0.147004
C38   C     C_R   0.366096 0.724161 0.442347 -0.149991
C39   C     C_R   0.388873 0.667834 0.396589 0.122700
C40   C     C_R   0.477117 0.694692 0.423781 -0.110264
C41   C     C_R   0.541345 0.774879 0.497676 -0.112140
C42   C     C_R   0.518296 0.830324 0.543016 -0.112564
C43   C     C_R   0.254879 0.576817 0.253518 -0.244057
C44   C     C_R   0.616920 0.498052 0.618646 0.793652
C45   C     C_R   0.185058 0.496743 0.183202 -0.067050
C46   C     C_R   0.178982 0.418290 0.179513 0.027128
C47   C     C_R   0.246804 0.422854 0.244426 -0.265287
C48   C     C_R   0.316568 0.502861 0.314643 -0.071630
C49   C     C_R   0.319896 0.581111 0.320876 -0.003094
C50   C     C_R   0.063593 0.270682 0.132187 -0.266035
C51   C     C_R   0.996771 0.184987 0.067263 0.561673
C52   C     C_R   0.968872 0.161905 0.979988 -0.199215
C53   C     C_R   0.008838 0.221189 0.957501 -0.181184
C54   C     C_R   0.076313 0.304982 0.022054 -0.066424
C55   C     C_R   0.380498 0.381299 0.499486 0.790890
C56   C     C_R   0.104265 0.330682 0.109929 0.036108
C57   C     C_R   0.228228 0.528345 0.575181 -0.230822
C58   C     C_R   0.238228 0.457251 0.575861 0.568584
C59   C     C_R   0.228299 0.395024 0.500611 0.022843
C60   C     C_R   0.205626 0.402467 0.425346 -0.237955
C61   C     C_R   0.193905 0.472046 0.424980 -0.107402
C62   C     C_R   0.205566 0.535061 0.499854 -0.177712
C63   C     C_R   0.177316 0.254827 0.498919 -0.208771
C64   C     C_R   0.185489 0.182840 0.496799 -0.078080
C65   C     C_R   0.257778 0.175981 0.495256 0.044021
C66   C     C_R   0.790317 0.868552 0.805280 -0.129632
C67   C     C_R   0.320715 0.242150 0.496035 -0.201058
C68   C     C_R   0.312732 0.314323 0.498651 -0.067259
C69   C     C_R   0.240519 0.320986 0.500067 0.061335
C70   C     C_R   0.341138 0.110474 0.555553 -0.121367
C71   C     C_R   0.352918 0.039257 0.548856 -0.154747
C72   C     C_R   0.292907 0.957242 0.475800 -0.125185
C73   C     C_R   0.220980 0.946319 0.409404 -0.127422
C74   C     C_R   0.208170 0.017115 0.416369 -0.143734
C75   C     C_R   0.268224 0.099782 0.489676 0.116317
C76   C     C_R   0.524887 0.556034 0.818582 -0.173389
C77   C     C_R   0.781609 0.852804 0.723875 -0.162398
C78   C     C_R   0.597384 0.561609 0.810040 -0.092511
C79   C     C_R   0.597921 0.485849 0.764781 0.028391
C80   C     C_R   0.525925 0.404472 0.729436 -0.236658
C81   C     C_R   0.453447 0.397510 0.739537 0.560940
C82   C     C_R   0.453281 0.475048 0.783826 -0.164370
C83   C     C_R   0.739624 0.490365 0.817044 -0.236544
C84   C     C_R   0.813655 0.496388 0.810856 -0.093960
C85   C     C_R   0.822313 0.502425 0.740859 -0.007905
C86   C     C_R   0.755771 0.501230 0.677958 -0.263735
C87   C     C_R   0.682753 0.496603 0.685041 -0.078124
C88   C     C_R   0.772083 0.774677 0.667425 0.123807
C89   C     C_R   0.674485 0.491687 0.755325 0.020487
C90   C     C_R   0.947061 0.578966 0.723484 -0.146968
C91   C     C_R   0.016356 0.583155 0.708931 -0.132705
C92   C     C_R   0.037036 0.516902 0.699971 -0.144261
C93   C     C_R   0.989067 0.446707 0.706400 -0.099959
C94   C     C_R   0.920391 0.442820 0.722086 -0.087481
C95   C     C_R   0.898535 0.508700 0.730158 0.111927
C96   C     C_R   0.998530 0.879275 0.381500 0.790539
C97   C     C_R   0.881250 0.879118 0.497957 0.792013
C98   C     C_R   0.998746 0.117767 0.618544 0.790824
C99   C     C_R   0.772873 0.713407 0.694302 -0.103110
C100  C     C_R   0.118786 0.117314 0.498439 0.782577
C101  C     C_R   0.002070 0.381540 0.882657 0.776473
C102  C     C_R   0.118592 0.498302 0.117382 0.778994
C103  C     C_R   0.998451 0.618744 0.117301 0.785454
C104  C     C_R   0.881159 0.498459 0.879529 0.779398
C105  C     C_R   0.096578 0.766809 0.547548 -0.148935
C106  C     C_R   0.089450 0.778719 0.476357 -0.087632
C107  C     C_R   0.009801 0.728878 0.398275 0.102544
C108  C     C_R   0.938972 0.663683 0.390941 -0.186234
C109  C     C_R   0.946188 0.652179 0.462351 -0.114961
C110  C     C_R   0.780098 0.728858 0.775147 -0.130990
C111  C     C_R   0.024810 0.704018 0.540745 -0.105653
C112  C     C_R   0.998756 0.676371 0.254395 -0.236947
C113  C     C_R   0.996642 0.685238 0.182817 -0.073931
C114  C     C_R   0.996285 0.758383 0.177262 0.001177
C115  C     C_R   0.994882 0.819580 0.242792 -0.256933
C116  C     C_R   0.998635 0.811654 0.315206 -0.088342
C117  C     C_R   0.002516 0.740137 0.322261 -0.012532
C118  C     C_R   0.063003 0.852412 0.123486 -0.155530
C119  C     C_R   0.065372 0.867509 0.056026 -0.138469
C120  C     C_R   0.003319 0.804156 0.969843 -0.111673
Cu1   Cu    Cu3+1 0.499980 0.561800 0.561790 0.988668
Cu2   Cu    Cu3+1 0.500020 0.438200 0.438210 0.930396
Cu3   Cu    Cu3+1 0.061810 0.999960 0.561770 0.956635
Cu4   Cu    Cu3+1 0.938190 0.999990 0.438190 0.968712
Cu5   Cu    Cu3+1 0.061800 0.561770 0.999960 0.964478
Cu6   Cu    Cu3+1 0.938200 0.438190 0.000000 0.954986
H1    H     H_    0.795031 0.818151 0.893400 0.134995
H2    H     H_    0.808995 0.712435 0.198179 0.162759
H3    H     H_    0.841508 0.734871 0.344347 0.128077
H4    H     H_    0.568343 0.892547 0.599973 0.126229
H5    H     H_    0.412718 0.848112 0.550161 0.119932
H6    H     H_    0.298410 0.704862 0.422381 0.116911
H7    H     H_    0.496061 0.652971 0.388656 0.090345
H8    H     H_    0.608963 0.793495 0.520445 0.127325
H9    H     H_    0.257662 0.636571 0.256872 0.149397
H10   H     H_    0.244238 0.363255 0.241348 0.147379
H11   H     H_    0.797254 0.928621 0.848312 0.137756
H12   H     H_    0.083823 0.291336 0.199963 0.132534
H13   H     H_    0.916532 0.097175 0.929259 0.141748
H14   H     H_    0.987688 0.201864 0.889825 0.171210
H15   H     H_    0.107191 0.349822 0.003694 0.132945
H16   H     H_    0.197718 0.589617 0.499743 0.145541
H17   H     H_    0.239216 0.579198 0.633075 0.131223
H18   H     H_    0.197172 0.354371 0.367091 0.123310
H19   H     H_    0.176337 0.477480 0.366787 0.151841
H20   H     H_    0.781321 0.901012 0.704414 0.118191
H21   H     H_    0.121783 0.259845 0.500439 0.145702
H22   H     H_    0.376457 0.237470 0.494765 0.138560
H23   H     H_    0.388880 0.173830 0.611936 0.167360
H24   H     H_    0.408985 0.047802 0.599984 0.126463
H25   H     H_    0.302434 0.902267 0.470334 0.116611
H26   H     H_    0.175656 0.883011 0.352313 0.142428
H27   H     H_    0.152493 0.007932 0.364159 0.097000
H28   H     H_    0.398659 0.474226 0.791960 0.161420
H29   H     H_    0.524016 0.614712 0.852190 0.140938
H30   H     H_    0.652669 0.624836 0.837785 0.132988
H31   H     H_    0.766927 0.653497 0.652274 0.092260
H32   H     H_    0.526447 0.345881 0.694428 0.137913
H33   H     H_    0.733448 0.486572 0.871280 0.160826
H34   H     H_    0.761353 0.504968 0.623459 0.149392
H35   H     H_    0.931088 0.630329 0.729452 0.117491
H36   H     H_    0.053658 0.637453 0.703991 0.117233
H37   H     H_    0.090000 0.519988 0.687686 0.112846
H38   H     H_    0.004862 0.395156 0.698856 0.142642
H39   H     H_    0.883563 0.388041 0.726736 0.116897
H40   H     H_    0.030338 0.694991 0.595930 0.114508
H41   H     H_    0.777784 0.680374 0.794385 0.127284
H42   H     H_    0.157795 0.806108 0.607913 0.117851
H43   H     H_    0.145742 0.826944 0.482114 0.130992
H44   H     H_    0.878150 0.622103 0.330104 0.134625
H45   H     H_    0.890971 0.602793 0.456786 0.134554
H46   H     H_    0.000883 0.620906 0.258961 0.153123
H47   H     H_    0.992883 0.875101 0.238303 0.152584
H48   H     H_    0.112127 0.901772 0.189986 0.120251
H49   H     H_    0.115605 0.928131 0.070573 0.127112
H50   H     H_    0.005461 0.815503 0.917525 0.128688
H51   H     H_    0.891270 0.676895 0.884533 0.130228
H52   H     H_    0.881595 0.873888 0.636234 0.152259
H53   H     H_    0.883459 0.650718 0.002839 0.100925
H54   H     H_    0.403078 0.593427 0.052822 0.138150
H55   H     H_    0.298463 0.606950 0.944111 0.131026
H56   H     H_    0.151806 0.482713 0.836865 0.150745
H57   H     H_    0.363638 0.457220 0.054363 0.134981
H58   H     H_    0.137664 0.259307 0.755634 0.145807
H59   H     H_    0.863410 0.240723 0.743903 0.155614
H60   H     H_    0.646040 0.055158 0.437053 0.134539
H61   H     H_    0.621247 0.622031 0.362819 0.149493
H62   H     H_    0.609762 0.909272 0.415099 0.149754
H63   H     H_    0.714029 0.886616 0.513024 0.142361
H64   H     H_    0.855088 0.010152 0.635330 0.122371
H65   H     H_    0.595681 0.721880 0.296534 0.141867
H66   H     H_    0.563009 0.700572 0.151683 0.127491
O1    O     O_R   0.409800 0.552190 0.462000 -0.564298
O2    O     O_R   0.947810 0.909820 0.357620 -0.586530
O3    O     O_R   0.962020 0.909790 0.552160 -0.583756
O4    O     O_R   0.857630 0.909810 0.447800 -0.568250
O5    O     O_R   0.052190 0.090130 0.642340 -0.587589
O6    O     O_R   0.947800 0.090160 0.537980 -0.568465
O7    O     O_R   0.142370 0.090140 0.552150 -0.577844
O8    O     O_R   0.037980 0.090170 0.447800 -0.591924
O9    O     O_R   0.052200 0.461970 0.909800 -0.580676
O10   O     O_R   0.947810 0.357610 0.909840 -0.585460
O11   O     O_R   0.142370 0.552160 0.090140 -0.582747
O12   O     O_R   0.409840 0.447810 0.357640 -0.595812
O13   O     O_R   0.037990 0.447800 0.090170 -0.575860
O14   O     O_R   0.052190 0.642350 0.090120 -0.576271
O15   O     O_R   0.947800 0.537990 0.090150 -0.586174
O16   O     O_R   0.962010 0.552150 0.909780 -0.570742
O17   O     O_R   0.857630 0.447800 0.909820 -0.588618
O18   O     O_R   0.590160 0.642370 0.552180 -0.572096
O19   O     O_R   0.590190 0.537990 0.447820 -0.589094
O20   O     O_R   0.590160 0.552190 0.642360 -0.577456
O21   O     O_R   0.590200 0.447810 0.538000 -0.590087
O22   O     O_R   0.409810 0.462010 0.552180 -0.561988
O23   O     O_R   0.409840 0.357630 0.447820 -0.598143
O24   O     O_R   0.052200 0.909800 0.461980 -0.578563
O25   O     O_3   0.670765 0.693762 0.082199 -0.583264
C121  C     C_3   0.627241 0.735714 0.053546 -0.350623
H67   H     H_    0.652338 0.802252 0.106050 0.159476
H68   H     H_    0.555983 0.695347 0.025060 0.160377
H69   H     H_    0.638652 0.742933 0.001417 0.187367
O26   O     O_3   0.953104 0.123651 0.085377 -0.582724
C122  C     C_3   0.011053 0.123689 0.156273 -0.337651
H70   H     H_    0.026808 0.175502 0.218730 0.169256
H71   H     H_    0.071490 0.130014 0.154261 0.147794
H72   H     H_    0.978349 0.060679 0.153234 0.197158
O27   O     O_3   0.266215 0.451430 0.650935 -0.591370
C123  C     C_3   0.211340 0.455857 0.686551 -0.427513
H73   H     H_    0.229047 0.524390 0.725262 0.172053
H74   H     H_    0.221282 0.429663 0.731726 0.192984
H75   H     H_    0.141209 0.415698 0.636020 0.164398
O28   O     O_3   0.385246 0.313662 0.702040 -0.599771
C124  C     C_3   0.326077 0.309496 0.733343 -0.326580
H76   H     H_    0.283312 0.333129 0.705145 0.199398
H77   H     H_    0.359810 0.345073 0.805588 0.154491
H78   H     H_    0.283570 0.240472 0.711403 0.206222
O29   O     O_3   0.202208 0.306057 0.940403 -0.592046
C125  C     C_3   0.254143 0.306639 0.014967 -0.344614
H79   H     H_    0.219347 0.242955 0.009840 0.199710
H80   H     H_    0.264945 0.357301 0.075394 0.167063
H81   H     H_    0.316670 0.314240 0.018276 0.168131
O30   O     O_3   0.798711 0.204879 0.566824 -0.588552
C126  C     C_3   0.729266 0.222728 0.550494 -0.359922
H82   H     H_    0.689153 0.198203 0.578316 0.153130
H83   H     H_    0.688647 0.196428 0.479844 0.174095
H84   H     H_    0.756410 0.294063 0.581767 0.199683

loop_
_geom_bond_atom_site_label_1
_geom_bond_atom_site_label_2
_ccdc_geom_bond_type
C8    C9    A    
C40   C41   A    
C93   C94   A    
C108  H44   S    
C5    C114  S    
C53   H14   S    
C33   O19   A    
C73   C74   A    
C35   C36   A    
C103  O14   A    
C55   O22   A    
C123  H74   S    
C55   C68   S    
C90   C91   A    
C122  H72   S    
C121  H67   S    
Cu3   Cu4   S    
C112  H46   S    
C45   C46   A    
Cu2   O23   S    
C125  H81   S    
Cu5   O9    S    
C26   C27   A    
C21   H62   S    
C83   C84   A    
C97   O4    A    
Cu3   O7    S    
C28   C29   A    
C103  C113  S    
C76   C78   A    
C39   C40   A    
C101  O10   A    
C109  C111  A    
C55   O23   A    
C112  C117  A    
C47   H10   S    
C15   C25   S    
C71   H24   S    
C106  C107  A    
Cu6   O13   S    
C126  H82   S    
Cu4   O6    S    
Cu5   O14   S    
C52   H13   S    
C108  C109  A    
C34   C35   A    
C41   C42   A    
Cu1   O20   S    
Cu2   O12   S    
C37   C42   A    
C61   H19   S    
C118  C119  A    
C123  H73   S    
C29   C88   S    
C17   C101  S    
C19   O30   S    
C119  H49   S    
C46   C47   A    
C121  H68   S    
C120  H50   S    
C2    C110  A    
C122  H70   S    
C77   C88   A    
C16   C17   A    
C126  H83   S    
C81   O28   S    
C107  C108  A    
C91   H36   S    
C70   C71   A    
C104  O16   A    
C44   C87   S    
O26   C122  S    
C124  H76   S    
C35   H3    S    
C32   O25   S    
C98   O5    A    
C72   C73   A    
C2    H1    S    
C126  H84   S    
C123  H75   S    
C96   O2    A    
C105  C111  A    
C59   C60   A    
C21   C22   A    
C10   H57   S    
Cu3   O3    S    
C61   C62   A    
C70   H23   S    
C104  O17   A    
C62   H16   S    
C103  O15   A    
C94   H39   S    
C63   H21   S    
C41   H8    S    
C124  H78   S    
C14   C98   S    
C54   C56   A    
C22   C23   A    
C38   C39   A    
C83   C89   A    
C24   C97   S    
C125  H80   S    
C85   C86   A    
C74   C75   A    
C98   O6    A    
C6    H55   S    
C51   C52   A    
C47   C48   A    
C63   C69   A    
C7    C8    A    
C84   C85   A    
C42   H4    S    
C3    C120  A    
C76   C82   A    
C6    C11   A    
C57   H17   S    
C78   C79   A    
C68   C69   A    
C81   C82   A    
C93   H38   S    
C65   C67   A    
C58   C59   A    
C53   C54   A    
C99   C110  A    
C31   H66   S    
Cu6   O17   S    
C50   C56   A    
C67   C68   A    
C13   C24   A    
C60   C61   A    
C44   O20   A    
C38   H6    S    
C109  H45   S    
C1    O1    A    
C102  O11   A    
C37   C38   A    
C118  H48   S    
C43   C45   A    
C33   O18   A    
C80   H32   S    
O27   C123  S    
C14   C15   A    
C64   C100  S    
Cu6   O15   S    
C72   H25   S    
Cu4   O4    S    
C50   H12   S    
C17   C18   A    
Cu1   Cu2   S    
C32   C34   A    
C50   C51   A    
C111  H40   S    
C27   H61   S    
Cu1   O18   S    
C22   H63   S    
C43   H9    S    
C124  H77   S    
C30   H65   S    
C13   H52   S    
C59   C69   S    
C100  O8    A    
C92   H37   S    
C26   C36   S    
C48   C49   A    
C39   C49   S    
C12   C14   A    
C28   C33   S    
C87   C89   A    
C73   H26   S    
C9    O29   S    
Cu5   Cu6   S    
C84   C104  S    
C106  H43   S    
C57   C62   A    
C4    H53   S    
C12   C18   A    
C3    C4    A    
Cu1   O1    S    
C91   C92   A    
C52   C53   A    
C121  H69   S    
C115  C116  A    
C113  C114  A    
C40   H7    S    
C13   C29   A    
C66   C77   A    
C125  H79   S    
Cu5   O11   S    
C76   H29   S    
C7    H56   S    
O30   C126  S    
C86   C87   A    
C45   C102  S    
Cu3   O5    S    
C31   C32   A    
C43   C49   A    
C24   C26   A    
C80   C81   A    
C2    C66   A    
C110  H41   S    
C90   C95   A    
C119  C120  A    
C122  H71   S    
C1    C48   S    
C114  C115  A    
C6    C7    A    
C105  C106  A    
Cu4   O8    S    
Cu5   O16   S    
C65   C75   S    
Cu2   O21   S    
C30   C36   A    
C5    C118  A    
C16   H59   S    
Cu1   O22   S    
C97   O3    A    
C19   C20   A    
C99   H31   S    
C3    H51   S    
C96   O24   A    
C71   C72   A    
C115  H47   S    
C101  O9    A    
C64   C65   A    
C85   C95   S    
C30   C31   A    
C78   H30   S    
C57   C58   A    
C12   H58   S    
C66   H11   S    
C105  H42   S    
O29   C125  S    
O25   C121  S    
C63   C64   A    
C92   C93   A    
C116  C117  A    
C9    C10   A    
C112  C113  A    
C44   O21   A    
C23   C25   A    
C94   C95   A    
C19   C25   A    
C102  O13   A    
C8    C18   S    
C79   C89   S    
C88   C99   A    
C10   C11   A    
Cu6   O10   S    
C20   H60   S    
C79   C80   A    
C82   H28   S    
C100  O7    A    
C37   H5    S    
C90   H35   S    
C4    C5    A    
C54   H15   S    
C83   H33   S    
C20   C21   A    
C74   H27   S    
C34   H2    S    
Cu4   O2    S    
C67   H22   S    
Cu2   O19   S    
C96   C116  S    
C70   C75   A    
C11   H54   S    
C51   O26   S    
C46   C56   S    
Cu3   O24   S    
C1    O12   A    
C86   H34   S    
C77   H20   S    
C107  C117  S    
C23   H64   S    
C60   H18   S    
C58   O27   S    
C15   C16   A    
O28   C124  S    
C27   C28   A    
