data_mof_unit_55641.cif
_audit_creation_date              2012-12-10T17:19:24-0500
_audit_creation_method            fapswitch 2.2
_symmetry_space_group_name_H-M    P1
_symmetry_Int_Tables_number       1
_space_group_crystal_system       triclinic
_cell_length_a                    14.992911
_cell_length_b                    10.818438
_cell_length_c                    9.679518
_cell_angle_alpha                 91.222618
_cell_angle_beta                  90.532527
_cell_angle_gamma                 93.311033
_cell_volume                      1566.95184267

loop_
_atom_site_label
_atom_site_type_symbol
_atom_type_description
_atom_site_fract_x
_atom_site_fract_y
_atom_site_fract_z
_atom_type_partial_charge
C1    C     C_R   0.504584 0.263064 0.499089 0.806592
C2    C     C_R   0.911198 0.602234 0.511924 0.107536
C3    C     C_R   0.945531 0.264837 0.470771 -0.180294
C4    C     C_R   0.039031 0.263362 0.472755 0.000210
C5    C     C_R   0.090671 0.377244 0.485686 0.024477
C6    C     C_R   0.047174 0.489952 0.499536 0.071699
C7    C     C_R   0.097704 0.604529 0.513634 0.108467
C8    C     C_R   0.054827 0.715632 0.526513 -0.175342
C9    C     C_R   0.962124 0.714522 0.525335 -0.131493
C10   C     C_R   0.184524 0.383140 0.482849 -0.253175
C11   C     C_R   0.233132 0.496464 0.498380 -0.022034
C12   C     C_R   0.329405 0.499299 0.499460 0.779229
C13   C     C_R   0.190558 0.606546 0.514371 -0.225247
C14   C     C_R   0.576396 0.127035 0.734237 -0.127428
C15   C     C_R   0.575659 0.074677 0.865488 -0.066302
C16   C     C_R   0.526232 0.960943 0.883276 -0.016150
C17   C     C_R   0.490757 0.895729 0.766407 -0.125682
C18   C     C_R   0.502082 0.942495 0.632588 0.068813
C19   C     C_R   0.530262 0.067352 0.621380 0.044993
C20   C     C_R   0.509245 0.128781 0.498764 -0.053268
C21   C     C_R   0.477864 0.060254 0.382161 -0.186255
C22   C     C_R   0.468553 0.932334 0.386393 -0.229858
C23   C     C_R   0.492798 0.736872 0.502289 0.809739
C24   C     C_R   0.484220 0.871476 0.509266 -0.095378
C25   C     C_R   0.649685 0.606747 0.145985 0.030756
C26   C     C_R   0.731962 0.589071 0.085580 -0.174431
C27   C     C_R   0.735459 0.584810 0.942533 -0.088082
C28   C     C_R   0.655485 0.596610 0.867796 -0.036913
C29   C     C_R   0.573535 0.552655 0.928484 0.184871
C30   C     C_R   0.572072 0.555161 0.076879 0.155856
C31   C     C_R   0.430896 0.448376 0.071296 -0.010569
C32   C     C_R   0.430636 0.449150 0.924095 -0.012195
C33   C     C_R   0.670596 0.497552 0.500185 0.870831
C34   C     C_R   0.818616 0.601890 0.513512 -0.222287
C35   C     C_R   0.767002 0.491164 0.499399 -0.086041
C36   C     C_R   0.807259 0.376973 0.483522 -0.031393
C37   C     C_R   0.901631 0.375856 0.485088 -0.000920
C38   C     C_R   0.953295 0.489071 0.499005 0.058260
Cu1   Cu    Cu3+1 0.499990 0.499990 0.640660 0.965877
Cu2   Cu    Cu3+1 0.500010 0.500010 0.359340 1.001742
H1    H     H_    0.786393 0.688360 0.526453 0.193196
H2    H     H_    0.614131 0.214108 0.720109 0.188173
H3    H     H_    0.450578 0.811294 0.782063 0.202734
H4    H     H_    0.446931 0.880435 0.294412 0.197178
H5    H     H_    0.374334 0.404809 0.123573 0.125744
H6    H     H_    0.793268 0.609112 0.144433 0.191335
H7    H     H_    0.373831 0.406207 0.868193 0.132542
H8    H     H_    0.907177 0.177422 0.459360 0.183917
H9    H     H_    0.221644 0.301404 0.467929 0.110076
H10   H     H_    0.229967 0.693560 0.526091 0.124992
H11   H     H_    0.093078 0.803489 0.537317 0.171780
H12   H     H_    0.930152 0.801546 0.535632 0.179928
H13   H     H_    0.460104 0.105404 0.287781 0.159547
N1    N     N_R   0.500860 0.501210 0.147910 -0.185602
N2    N     N_R   0.500890 0.501290 0.852040 -0.188717
O1    O     O_R   0.499990 0.319640 0.618810 -0.597322
O2    O     O_R   0.500000 0.319660 0.381240 -0.556265
O3    O     O_R   0.370250 0.499960 0.618800 -0.588578
O4    O     O_R   0.370260 0.499980 0.381230 -0.585288
O5    O     O_R   0.500000 0.680340 0.618760 -0.593161
O6    O     O_R   0.500010 0.680360 0.381190 -0.595288
O7    O     O_R   0.629740 0.500020 0.618770 -0.603604
O8    O     O_R   0.629750 0.500040 0.381200 -0.536752
C39   C     C_2   0.624885 0.141831 0.981187 0.363416
H14   H     H_    0.640916 0.095356 0.075414 0.094904
O9    O     O_2   0.649676 0.250863 0.971756 -0.523953
C40   C     C_2   0.508902 0.909594 0.021531 0.254318
H15   H     H_    0.532702 0.959349 0.113596 0.057757
O10   O     O_2   0.466098 0.811035 0.034535 -0.578008
C41   C     C_2   0.646912 0.721756 0.230240 0.402939
H16   H     H_    0.591328 0.779787 0.219610 0.108035
O11   O     O_2   0.709239 0.757338 0.305760 -0.577001
C42   C     C_1   0.822014 0.600321 0.879023 0.279356
N3    N     N_1   0.891995 0.612746 0.830244 -0.276362
C43   C     C_1   0.658966 0.699437 0.774661 0.295286
N4    N     N_1   0.665911 0.782675 0.701654 -0.295712
C44   C     C_2   0.750977 0.260067 0.465984 0.303702
H17   H     H_    0.762550 0.181531 0.530297 0.078190
O12   O     O_2   0.693152 0.249610 0.376307 -0.521713
C45   C     C_2   0.079868 0.140978 0.464401 0.356809
H18   H     H_    0.147909 0.130067 0.498031 0.059489
O13   O     O_2   0.036702 0.048660 0.421372 -0.551228

loop_
_geom_bond_atom_site_label_1
_geom_bond_atom_site_label_2
_ccdc_geom_bond_type
C8    C9    A    
C42   N3    T    
C19   C20   A    
C7    C8    A    
C9    H12   S    
C44   H17   S    
C30   N1    A    
C26   C27   A    
C29   C30   A    
Cu2   O8    S    
C18   C24   A    
C36   C37   A    
C1    O1    A    
C34   C35   A    
C36   C44   S    
C5    C6    A    
C15   C16   A    
C3    H8    S    
C18   C19   A    
C12   O4    A    
C22   H4    S    
C31   C32   A    
C16   C17   A    
C15   C39   S    
C6    C38   A    
C41   H16   S    
C32   N2    A    
C14   H2    S    
C12   O3    A    
C2    C34   A    
Cu2   O4    S    
C21   C22   A    
C34   H1    S    
C44   O12   D    
C23   O5    A    
Cu1   N2    S    
C40   H15   S    
C45   O13   D    
Cu1   Cu2   S    
C45   H18   S    
C29   N2    A    
C25   C26   A    
Cu1   O3    S    
C33   O7    A    
Cu2   O6    S    
C40   O10   D    
C35   C36   A    
C39   O9    D    
C2    C9    A    
C43   N4    T    
C17   H3    S    
C37   C38   A    
C1    O2    A    
C2    C38   A    
Cu1   O1    S    
C7    C13   A    
C33   O8    A    
C17   C18   A    
C16   C40   S    
C8    H11   S    
Cu2   N1    S    
C32   H7    S    
C22   C24   A    
C3    C4    A    
C25   C30   A    
Cu1   O7    S    
C28   C29   A    
C1    C20   S    
Cu2   O2    S    
C14   C19   A    
C4    C5    A    
C11   C12   S    
C4    C45   S    
C6    C7    A    
C39   H14   S    
C5    C10   A    
C21   H13   S    
C11   C13   A    
C28   C43   S    
Cu1   O5    S    
C33   C35   S    
C31   N1    A    
C10   C11   A    
C26   H6    S    
C23   C24   S    
C13   H10   S    
C23   O6    A    
C20   C21   A    
C3    C37   A    
C31   H5    S    
C27   C28   A    
C14   C15   A    
C41   O11   D    
C25   C41   S    
C27   C42   S    
C10   H9    S    
