data_mof_unit_15971.cif
_audit_creation_date              2012-12-10T16:54:57-0500
_audit_creation_method            fapswitch 2.2
_symmetry_space_group_name_H-M    P1
_symmetry_Int_Tables_number       1
_space_group_crystal_system       triclinic
_cell_length_a                    7.787951
_cell_length_b                    8.570325
_cell_length_c                    15.726538
_cell_angle_alpha                 91.171049
_cell_angle_beta                  85.507132
_cell_angle_gamma                 93.539619
_cell_volume                      1044.32185391

loop_
_atom_site_label
_atom_site_type_symbol
_atom_type_description
_atom_site_fract_x
_atom_site_fract_y
_atom_site_fract_z
_atom_type_partial_charge
C1    C     C_R   0.545638 0.794645 0.497910 0.962471
C2    C     C_3   0.362702 0.602320 0.054607 -0.586010
C3    C     C_3   0.500627 0.495168 0.082732 -0.260026
C4    C     C_3   0.452998 0.326741 0.049972 0.372213
C5    C     C_3   0.469183 0.321486 0.950368 0.659138
C6    C     C_1   0.496339 0.497364 0.174408 0.215918
C7    C     C_1   0.505742 0.495950 0.825391 0.180166
C8    C     C_1   0.504617 0.498029 0.750182 -0.091466
C9    C     C_2   0.569703 0.958086 0.496749 -0.341520
C10   C     C_2   0.430286 0.041910 0.503599 -0.350289
C11   C     C_R   0.501527 0.500047 0.661527 0.883804
C12   C     C_R   0.454360 0.205352 0.502220 0.954071
C13   C     C_R   0.498501 0.499860 0.338463 0.876082
C14   C     C_3   0.364293 0.600940 0.956374 0.364802
C15   C     C_3   0.682808 0.561614 0.944671 0.362226
C16   C     C_3   0.682624 0.558134 0.043742 0.931161
C17   C     C_1   0.495532 0.498881 0.249747 -0.104294
C18   C     C_3   0.505326 0.493591 0.916948 -0.299286
H1    H     H_    0.387536 0.723922 0.078853 0.316811
H2    H     H_    0.234762 0.559615 0.937083 0.176918
H3    H     H_    0.232038 0.561435 0.082297 0.211051
H4    H     H_    0.701473 0.008898 0.490196 0.188526
H5    H     H_    0.298516 0.991088 0.510189 0.188823
H6    H     H_    0.013301 0.381140 0.436539 0.153697
H7    H     H_    0.703801 0.684959 0.923468 0.209799
H8    H     H_    0.317843 0.293474 0.074307 0.119172
N1    N     N_2   0.950340 0.457950 0.477370 -0.067115
N2    N     N_2   0.049660 0.542050 0.522630 0.100107
O1    O     O_R   0.389240 0.738570 0.505550 -0.629984
O2    O     O_R   0.678400 0.711630 0.491050 -0.567038
O3    O     O_R   0.355360 0.513470 0.630110 -0.612112
O4    O     O_R   0.644510 0.486530 0.615610 -0.555249
O5    O     O_R   0.321600 0.288370 0.508950 -0.637467
O6    O     O_R   0.610760 0.261430 0.494450 -0.621486
O7    O     O_R   0.355490 0.513470 0.384390 -0.636820
O8    O     O_R   0.644640 0.486530 0.369890 -0.600028
Zn1   Zn    Zn3+2 0.306930 0.517990 0.509680 1.005215
Zn2   Zn    Zn3+2 0.693070 0.482010 0.490320 1.052936
F1    F     F_    0.553502 0.218150 0.083318 -0.571247
O9    O     O_3   0.970043 0.642960 0.575927 -0.610238
H9    H     H_    0.064179 0.698505 0.605425 0.353081
F2    F     F_    0.395129 0.752473 0.926913 -0.573965
F3    F     F_    0.818113 0.482697 0.904788 -0.633238
F4    F     F_    0.713875 0.710424 0.072986 -0.602657
O10   O     O_3   0.815490 0.470454 0.070523 -0.691926
H10   H     H_    0.811582 0.367320 0.040993 0.401473
O11   O     O_3   0.317442 0.250068 0.919090 -0.712279
H11   H     H_    0.215893 0.302038 0.945567 0.321468
O12   O     O_3   0.607879 0.229904 0.922862 -0.584484
H12   H     H_    0.602102 0.208551 0.860829 0.379097

loop_
_geom_bond_atom_site_label_1
_geom_bond_atom_site_label_2
_ccdc_geom_bond_type
C16   O10   S    
C15   C18   S    
C4    H8    S    
H6    N1    S    
O4    Zn2   S    
C10   H5    S    
C9    C10   D    
C14   C18   S    
O11   H11   S    
C4    F1    S    
C13   C17   S    
C14   F2    S    
C3    C6    S    
C7    C18   S    
C2    H3    S    
O8    Zn2   S    
C2    C3    S    
C12   O5    A    
C11   O3    A    
C7    C8    T    
O10   H10   S    
C5    O11   S    
C5    O12   S    
C10   C12   S    
N2    Zn1   S    
C8    C11   S    
C1    O1    A    
C1    O2    A    
O7    Zn1   S    
C11   O4    A    
C13   O7    A    
C2    C14   S    
C9    H4    S    
C15   H7    S    
N2    O9    S    
N1    Zn2   S    
C15   F3    S    
C15   C16   S    
C14   H2    S    
C1    C9    S    
O2    Zn2   S    
C13   O8    A    
O12   H12   S    
O1    Zn1   S    
N1    N2    D    
C6    C17   T    
C16   F4    S    
O9    H9    S    
C5    C18   S    
C2    H1    S    
O6    Zn2   S    
C12   O6    A    
O5    Zn1   S    
C3    C16   S    
C3    C4    S    
O3    Zn1   S    
C4    C5    S    
