data_mof_unit_17800.cif
_audit_creation_date              2012-12-11T19:41:48-0500
_audit_creation_method            fapswitch 2.2
_symmetry_space_group_name_H-M    P1
_symmetry_Int_Tables_number       1
_space_group_crystal_system       triclinic
_cell_length_a                    8.257819
_cell_length_b                    15.062604
_cell_length_c                    26.965692
_cell_angle_alpha                 98.444357
_cell_angle_beta                  93.20861
_cell_angle_gamma                 81.07124
_cell_volume                      3275.65141274

loop_
_atom_site_label
_atom_site_type_symbol
_atom_type_description
_atom_site_fract_x
_atom_site_fract_y
_atom_site_fract_z
_atom_type_partial_charge
Ba1   Ba    Ba6+2 0.860050 0.456430 0.522530 1.652186
Ba2   Ba    Ba6+2 0.329780 0.543490 0.477460 1.648152
C1    C     C_3   0.749644 0.174582 0.607378 -0.271676
C2    C     C_R   0.897367 0.590560 0.179885 0.570859
C3    C     C_2   0.749449 0.558571 0.273388 -0.079666
C4    C     C_3   0.141829 0.267181 0.655410 0.301607
C5    C     C_3   0.729410 0.586936 0.328890 -0.074794
C6    C     C_1   0.981530 0.483153 0.342375 0.103286
C7    C     C_2   0.022646 0.481169 0.294866 -0.109802
C8    C     C_2   0.898237 0.517613 0.256619 0.196598
C9    C     C_R   0.016360 0.508886 0.102182 -0.079268
C10   C     C_R   0.058091 0.431389 0.126515 -0.037935
C11   C     C_R   0.139032 0.351938 0.099461 -0.060131
C12   C     C_3   0.632957 0.230017 0.645942 0.849496
C13   C     C_R   0.935070 0.588730 0.129243 -0.023868
C14   C     C_2   0.839160 0.525691 0.359944 -0.225641
C15   C     C_2   0.345216 0.473710 0.641199 -0.275143
C16   C     C_3   0.111008 0.244523 0.706907 -0.239915
C17   C     C_R   0.181467 0.424278 0.973003 0.019660
C18   C     C_R   0.046800 0.582885 0.975281 0.020161
C19   C     C_R   0.133735 0.502644 0.948793 0.051629
C20   C     C_R   0.270288 0.346849 0.945010 -0.097713
C21   C     C_R   0.309034 0.346095 0.895312 -0.049977
C22   C     C_R   0.261535 0.422400 0.870904 -0.040168
C23   C     C_3   0.484757 0.683491 0.631567 0.298738
C24   C     C_R   0.173570 0.500814 0.897499 -0.076920
C25   C     C_R   0.125836 0.577475 0.872807 -0.034378
C26   C     C_R   0.167209 0.574954 0.822262 0.591762
C27   C     C_R   0.300597 0.421606 0.820372 0.586323
C28   C     C_3   0.217285 0.265671 0.414183 0.334210
C29   C     C_2   0.452649 0.472923 0.729371 -0.059628
C30   C     C_3   0.493033 0.480053 0.675903 -0.055466
C31   C     C_1   0.203981 0.517401 0.657659 0.039400
C32   C     C_2   0.164556 0.520809 0.705194 -0.108520
C33   C     C_2   0.295038 0.495729 0.744154 0.198789
C34   C     C_3   0.462606 0.716331 0.687214 -0.352917
C35   C     C_R   0.139797 0.425831 0.024042 0.020438
C36   C     C_R   0.055614 0.506660 0.050786 0.050052
C37   C     C_R   0.010201 0.585406 0.026760 0.020382
C38   C     C_R   0.179028 0.349065 0.049611 -0.097005
C39   C     C_R   0.893447 0.666016 0.105336 -0.059867
C40   C     C_3   0.245192 0.163170 0.399085 -0.392690
C41   C     C_R   0.999021 0.658140 0.948989 -0.098954
C42   C     C_R   0.037928 0.655380 0.899152 -0.058513
C43   C     C_R   0.929935 0.664594 0.055493 -0.101295
C44   C     C_R   0.840752 0.830677 0.464225 -0.003291
C45   C     C_3   0.033991 0.734752 0.343980 0.338891
C46   C     C_R   0.774948 0.924003 0.468146 -0.026925
C47   C     C_R   0.643552 0.111947 0.479527 -0.038038
C48   C     C_R   0.784183 0.077471 0.451414 -0.041094
C49   C     C_R   0.850338 0.985787 0.446719 -0.102669
C50   C     C_R   0.581363 0.206115 0.488164 0.046306
C51   C     C_R   0.440935 0.236171 0.516018 -0.297644
C52   C     C_3   0.977527 0.734576 0.585882 0.289923
C53   C     C_R   0.614532 0.803199 0.511014 0.023071
C54   C     C_R   0.549065 0.895768 0.516390 -0.037837
C55   C     C_R   0.628173 0.956412 0.494364 0.015600
C56   C     C_3   0.047159 0.758228 0.291550 -0.310994
C57   C     C_R   0.406876 0.929367 0.543464 -0.022788
C58   C     C_R   0.340425 0.019966 0.547617 -0.026527
C59   C     C_R   0.417581 0.081871 0.527003 -0.029180
C60   C     C_R   0.563056 0.050115 0.500187 -0.004150
C61   C     C_R   0.354532 0.174913 0.533210 0.023559
C62   C     C_R   0.755046 0.771295 0.483567 -0.301026
C63   C     C_3   0.952951 0.837188 0.600524 -0.351523
C64   C     C_3   0.670720 0.330043 0.364981 0.641371
C65   C     C_3   0.562911 0.321163 0.317059 -0.306889
C66   C     C_3   0.489361 0.786513 0.368722 0.362973
C67   C     C_3   0.435478 0.879245 0.352236 -0.369391
C68   C     C_R   0.017143 0.434598 0.177294 0.599210
H1    H     H_    0.518945 0.259125 0.626670 -0.231971
H2    H     H_    0.632394 0.398360 0.386223 0.048169
H3    H     H_    0.777331 0.217189 0.579911 0.105878
H4    H     H_    0.605582 0.256728 0.292559 0.095665
H5    H     H_    0.568582 0.378691 0.296080 0.097178
H6    H     H_    0.434101 0.320288 0.326065 0.121131
H7    H     H_    0.694011 0.116781 0.587297 0.076290
H8    H     H_    0.365123 0.667410 0.614812 0.025319
H9    H     H_    0.577812 0.621379 0.627029 0.039038
H10   H     H_    0.375376 0.780735 0.692348 0.149345
H11   H     H_    0.412528 0.665261 0.705186 0.069609
H12   H     H_    0.339533 0.144104 0.370084 0.123666
H13   H     H_    0.582386 0.727979 0.705829 0.130143
H14   H     H_    0.864649 0.146166 0.626080 0.160063
H15   H     H_    0.117289 0.304951 0.735559 0.097237
H16   H     H_    0.120728 0.671698 0.347827 0.089189
H17   H     H_    0.906588 0.723117 0.348446 -0.056799
H18   H     H_    0.158549 0.789807 0.288956 0.147609
H19   H     H_    0.056428 0.695355 0.264184 0.116382
H20   H     H_    0.937731 0.806275 0.281937 0.121492
H21   H     H_    0.625721 0.773459 0.369103 -0.064714
H22   H     H_    0.446631 0.788950 0.407329 0.074930
H23   H     H_    0.287324 0.128379 0.431888 0.058214
H24   H     H_    0.492032 0.931477 0.377919 0.068468
H25   H     H_    0.300154 0.897339 0.353298 0.147810
H26   H     H_    0.046794 0.323691 0.647308 0.088973
H27   H     H_    0.475080 0.878829 0.313510 0.123066
H28   H     H_    0.146657 0.453859 0.283619 0.120329
H29   H     H_    0.172378 0.290921 0.116857 0.122256
H30   H     H_    0.551503 0.457658 0.756497 0.112899
H31   H     H_    0.377351 0.284744 0.875946 0.138068
H32   H     H_    0.313631 0.285153 0.960394 0.072764
H33   H     H_    0.240046 0.284668 0.032151 0.070996
H34   H     H_    0.128902 0.139800 0.383798 0.120074
H35   H     H_    0.652914 0.583250 0.247636 0.118971
H36   H     H_    0.831774 0.728828 0.125243 0.122877
H37   H     H_    0.929692 0.720850 0.965565 0.071220
H38   H     H_    0.264053 0.289126 0.656340 0.033752
H39   H     H_    0.998216 0.715277 0.881206 0.126126
H40   H     H_    0.038461 0.541691 0.716131 0.132416
H41   H     H_    0.894218 0.727769 0.040923 0.070213
H42   H     H_    0.812388 0.530465 0.399264 0.072160
H43   H     H_    0.350800 0.426676 0.606497 0.067190
H44   H     H_    0.847283 0.120429 0.433085 0.107841
H45   H     H_    0.859057 0.712536 0.573240 0.006220
H46   H     H_    0.960719 0.964134 0.425790 0.106539
H47   H     H_    0.229618 0.040400 0.568335 0.125278
H48   H     H_    0.343084 0.886584 0.561731 0.101950
H49   H     H_    0.391771 0.307675 0.521341 0.070028
H50   H     H_    0.988159 0.223801 0.707290 0.159968
H51   H     H_    0.804704 0.699914 0.480336 0.064612
H52   H     H_    0.203415 0.187581 0.716649 0.201268
H53   H     H_    0.334889 0.288841 0.426857 -0.024574
H54   H     H_    0.129756 0.282523 0.445082 0.077798
H55   H     H_    0.868258 0.258996 0.335950 0.315302
H56   H     H_    0.064455 0.716541 0.554880 0.074965
H57   H     H_    0.711528 0.044441 0.722063 0.368658
H58   H     H_    0.859803 0.857626 0.629823 0.153732
H59   H     H_    0.910688 0.871617 0.567540 0.061108
H60   H     H_    0.070616 0.859528 0.615257 0.126554
N1    N     N_R   0.938100 0.513922 0.203841 -0.422677
N2    N     N_R   0.253539 0.497339 0.796368 -0.429366
O1    O     O_2   0.906480 0.548660 0.619050 -0.456477
O2    O     O_2   0.179935 0.825222 0.472162 -0.489663
O3    O     O_3   0.074226 0.806595 0.379373 -0.608532
O4    O     O_3   0.138490 0.548590 0.558870 -0.494881
O5    O     O_3   0.572560 0.389960 0.472890 -0.492068
O6    O     O_2   0.345660 0.723580 0.528500 -0.472312
O7    O     O_3   0.537744 0.752275 0.609611 -0.634535
O8    O     O_2   0.402135 0.545397 0.323737 -0.506066
O9    O     O_3   0.420684 0.719754 0.335609 -0.592286
O10   O     O_2   0.049921 0.366220 0.197503 -0.592186
O11   O     O_2   0.375684 0.352938 0.797628 -0.543232
O12   O     O_3   0.654828 0.258935 0.391794 -0.666380
O13   O     O_2   0.829008 0.661271 0.202750 -0.620478
O14   O     O_2   0.128276 0.642485 0.801585 -0.591979
O15   O     O_3   0.686300 0.382310 0.585700 -0.492619
O16   O     O_2   0.828016 0.443032 0.671868 -0.502140
O17   O     O_3   0.038049 0.694060 0.627918 -0.624247
O18   O     O_3   0.711360 0.296827 0.675699 -0.611761
O19   O     O_2   0.844040 0.276390 0.471470 -0.460850
O20   O     O_3   0.101510 0.335500 0.560330 -0.501424
O21   O     O_2   0.020094 0.173709 0.526611 -0.502839
O22   O     O_3   0.833552 0.322569 0.351651 -0.761572
O23   O     O_3   0.133401 0.190458 0.619459 -0.595187
O24   O     O_2   0.504899 0.208757 0.732219 -0.249926
O25   O     O_2   0.462044 0.097043 0.658602 -0.339591
O26   O     O_3   0.751156 0.087358 0.702713 -0.531550
O27   O     O_2   0.283210 0.451310 0.380920 -0.490676
O28   O     O_3   0.051220 0.451340 0.441120 -0.488727
O29   O     O_3   0.503410 0.617620 0.414290 -0.476151
O30   O     O_3   0.155518 0.305935 0.372242 -0.593830
O31   O     O_3   0.617150 0.609960 0.527100 -0.474030
O32   O     O_3   0.088210 0.664420 0.439670 -0.495407
P1    P     P_3+3 0.071950 0.575820 0.612140 0.995504
P2    P     P_3+3 0.664370 0.290050 0.457240 0.986294
P3    P     P_3+3 0.152259 0.218967 0.559538 0.931844
P4    P     P_3+3 0.117760 0.424110 0.387850 1.041670
P5    P     P_3+3 0.045267 0.782081 0.439368 0.932221
P6    P     P_3+3 0.675220 0.400413 0.651430 0.946260
P7    P     P_3+3 0.531694 0.723277 0.544367 0.947237
P8    P     P_3+3 0.513422 0.613445 0.349640 0.946809
S1    S     S_3+6 0.580991 0.154705 0.685913 -0.075950

loop_
_geom_bond_atom_site_label_1
_geom_bond_atom_site_label_2
_ccdc_geom_bond_type
C53   C54   A    
C7    H28   S    
Ba2   P4    S    
C23   O7    S    
C40   H23   S    
C12   H1    S    
C40   H12   S    
C19   C24   A    
O20   P3    S    
C63   H60   S    
C15   H43   S    
C55   C60   A    
C52   C63   S    
C3    H35   S    
C54   C55   A    
O25   S1    D    
C52   H56   S    
C24   C25   A    
C17   C19   A    
C22   C24   A    
C32   C33   S    
C35   C38   A    
C36   C37   A    
C27   N2    Am   
C64   O12   S    
O4    P1    S    
C34   H13   S    
C62   H51   S    
C27   O11   D    
C66   H21   S    
O27   P4    D    
Ba1   O20   S    
Ba1   Ba2   S    
C59   C61   A    
C54   C57   A    
C22   C27   A    
C11   C38   A    
C30   P6    S    
C6    P4    S    
C50   P2    S    
C8    N1    S    
O29   P8    S    
C9    C13   A    
C25   C42   A    
C46   C49   A    
C64   H2    S    
O23   P3    S    
C66   C67   S    
O2    P5    D    
O16   P6    D    
C21   C22   A    
O7    P7    S    
C52   O17   S    
Ba1   O4    S    
O31   P7    S    
C7    C8    S    
C4    O23   S    
O15   P6    S    
C37   C43   A    
C42   H39   S    
C61   P3    S    
C64   C65   S    
C57   C58   A    
C6    C14   D    
C5    P8    S    
O21   P3    D    
O32   P5    S    
C15   C31   D    
Ba1   O1    S    
Ba2   O29   S    
C53   P7    S    
O5    P2    S    
C31   C32   D    
C2    N1    Am   
C4    C16   S    
C44   C46   A    
O24   S1    D    
C68   O10   D    
C16   H15   S    
C39   H36   S    
C23   H8    S    
Ba2   O6    S    
C63   H58   S    
C46   C55   A    
C17   C20   A    
O17   P1    S    
C13   C39   A    
C67   H24   S    
C34   H10   S    
Ba2   O32   S    
C3    C5    S    
C18   C37   A    
C6    C7    D    
O9    P8    S    
Ba2   O4    S    
O12   P2    S    
C58   C59   A    
C48   H44   S    
C45   H17   S    
C11   H29   S    
C9    C36   A    
C41   C42   A    
C45   H16   S    
C35   C36   A    
O1    P1    D    
O26   S1    S    
C29   C30   S    
Ba1   P1    S    
C34   H11   S    
C47   C50   A    
C53   C62   A    
C12   O18   S    
C43   H41   S    
C48   C49   A    
C66   O9    S    
C65   H4    S    
C41   H37   S    
C29   H30   S    
C18   C19   A    
C28   H53   S    
C56   H20   S    
H57   O26   S    
C1    C12   S    
C16   H52   S    
O30   P4    S    
Ba2   O28   S    
C5    C14   S    
C28   H54   S    
C57   H48   S    
C4    H26   S    
C58   H47   S    
C32   H40   S    
O3    P5    S    
C29   C33   D    
Ba1   O15   S    
C17   C35   A    
Ba2   O27   S    
C1    H7    S    
C16   H50   S    
C25   C26   A    
C18   C41   A    
Ba1   O5    S    
H55   O22   S    
C14   H42   S    
C64   O22   S    
C10   C68   A    
C4    H38   S    
C47   C60   A    
C45   O3    S    
O6    P7    D    
C23   H9    S    
Ba2   O5    S    
Ba1   O28   S    
C31   P1    S    
C67   H25   S    
C40   H34   S    
Ba2   O31   S    
C63   H59   S    
C9    C10   A    
C51   H49   S    
C12   S1    S    
O19   P2    D    
C26   O14   D    
C49   H46   S    
C20   H32   S    
C44   P5    S    
C52   H45   S    
C2    C13   A    
C3    C8    D    
C39   C43   A    
C45   C56   S    
C51   C61   A    
C21   H31   S    
Ba1   P2    S    
C2    O13   D    
C68   N1    Am   
C66   H22   S    
Ba1   O19   S    
O28   P4    S    
C59   C60   A    
C1    H3    S    
C56   H19   S    
C23   C34   S    
C65   H5    S    
C10   C11   A    
Ba1   O31   S    
O8    P8    D    
C47   C48   A    
C44   C62   A    
C1    H14   S    
C15   C30   S    
C28   O30   S    
C20   C21   A    
C28   C40   S    
C65   H6    S    
C26   N2    Am   
O18   P6    S    
C56   H18   S    
C33   N2    S    
C50   C51   A    
C38   H33   S    
C67   H27   S    
