data_mof_unit_53305.cif
_audit_creation_date              2012-12-11T15:33:49-0500
_audit_creation_method            fapswitch 2.2
_symmetry_space_group_name_H-M    P1
_symmetry_Int_Tables_number       1
_space_group_crystal_system       triclinic
_cell_length_a                    27.311061
_cell_length_b                    7.199656
_cell_length_c                    22.656118
_cell_angle_alpha                 89.821286
_cell_angle_beta                  100.803517
_cell_angle_gamma                 89.804885
_cell_volume                      4375.86124002

loop_
_atom_site_label
_atom_site_type_symbol
_atom_type_description
_atom_site_fract_x
_atom_site_fract_y
_atom_site_fract_z
_atom_type_partial_charge
O1    O     O_R   0.207310 0.594030 0.676830 -0.530961
O2    O     O_R   0.792690 0.405970 0.323170 -0.534438
O3    O     O_R   0.292690 0.094030 0.823170 -0.534049
O4    O     O_R   0.707310 0.905970 0.176830 -0.534118
O5    O     O_R   0.197320 0.262370 0.795700 -0.541515
O6    O     O_R   0.802680 0.737630 0.204300 -0.538208
O7    O     O_R   0.302680 0.762370 0.704300 -0.541446
O8    O     O_R   0.697320 0.237630 0.295700 -0.541234
C1    C     C_R   0.184612 0.432615 0.811855 0.681021
C2    C     C_R   0.815394 0.567395 0.188152 0.685060
C3    C     C_R   0.315389 0.932522 0.688126 0.689359
C4    C     C_R   0.684610 0.067482 0.311872 0.691201
O9    O     O_R   0.201410 0.264250 0.675590 -0.535037
O10   O     O_R   0.798590 0.735750 0.324410 -0.533362
O11   O     O_R   0.298590 0.764250 0.824410 -0.536246
O12   O     O_R   0.701410 0.235750 0.175590 -0.535568
O13   O     O_R   0.296810 0.094940 0.702210 -0.539247
O14   O     O_R   0.703190 0.905060 0.297790 -0.538520
O15   O     O_R   0.203190 0.594940 0.797790 -0.536082
O16   O     O_R   0.796810 0.405060 0.202210 -0.540900
C5    C     C_R   0.189705 0.433008 0.653602 0.693268
C6    C     C_R   0.810264 0.566611 0.346350 0.696250
C7    C     C_R   0.309971 0.932108 0.846506 0.698532
C8    C     C_R   0.690028 0.067891 0.153494 0.699480
O17   O     O_3   0.281300 0.427390 0.758870 -0.374163
O18   O     O_3   0.718700 0.572610 0.241130 -0.373470
O19   O     O_3   0.218700 0.927390 0.741130 -0.368862
O20   O     O_3   0.781300 0.072610 0.258870 -0.373175
V1    V     V_3+5 0.244190 0.152150 0.748350 1.438557
V2    V     V_3+5 0.755810 0.847850 0.251650 1.440784
V3    V     V_3+5 0.255810 0.652150 0.751650 1.442026
V4    V     V_3+5 0.744190 0.347850 0.248350 1.429402
C9    C     C_R   0.653888 0.063836 0.096158 -0.078888
C10   C     C_R   0.346112 0.936163 0.903841 -0.078808
C11   C     C_R   0.845811 0.554425 0.404184 -0.075150
C12   C     C_R   0.154095 0.438051 0.595609 -0.078104
C13   C     C_R   0.636589 0.153738 0.991607 -0.153894
C14   C     C_R   0.363413 0.846260 0.008392 -0.153686
C15   C     C_R   0.857907 0.516897 0.511924 -0.153370
C16   C     C_R   0.137989 0.358938 0.490190 -0.154231
C17   C     C_R   0.670331 0.123587 0.044642 -0.178564
C18   C     C_R   0.329670 0.876420 0.955358 -0.178277
C19   C     C_R   0.826378 0.531222 0.456401 -0.176881
C20   C     C_R   0.170208 0.366901 0.545288 -0.171986
C21   C     C_R   0.602712 0.023846 0.093679 -0.095592
C22   C     C_R   0.397289 0.976138 0.906318 -0.095593
C23   C     C_R   0.898181 0.559055 0.407572 -0.100906
C24   C     C_R   0.103982 0.498441 0.590774 -0.104559
C25   C     C_R   0.568230 0.033575 0.037186 0.038871
C26   C     C_R   0.431772 0.966405 0.962811 0.038865
C27   C     C_R   0.931215 0.521283 0.463748 0.040955
C28   C     C_R   0.068577 0.467733 0.536031 0.040941
C29   C     C_R   0.585902 0.115159 0.987972 0.127717
C30   C     C_R   0.414099 0.884826 0.012026 0.127536
C31   C     C_R   0.909752 0.512335 0.516162 0.130799
C32   C     C_R   0.087699 0.408111 0.485038 0.130858
C33   C     C_R   0.516758 0.975478 0.027384 0.052583
C34   C     C_R   0.483244 0.024498 0.972611 0.052645
C35   C     C_R   0.984165 0.489086 0.470663 0.053059
C36   C     C_R   0.015242 0.488834 0.529388 0.053807
C37   C     C_R   0.501949 0.136277 0.930905 -0.165320
C38   C     C_R   0.498053 0.863697 0.069091 -0.165307
C39   C     C_R   0.991407 0.484269 0.579383 -0.160909
C40   C     C_R   0.005942 0.432681 0.421960 -0.160136
C41   C     C_R   0.552533 0.169316 0.936457 -0.184070
C42   C     C_R   0.447469 0.830664 0.063539 -0.183842
C43   C     C_R   0.939927 0.493509 0.572770 -0.186207
C44   C     C_R   0.056336 0.391328 0.429209 -0.184656
H1    H     H_    0.565415 0.246199 0.901101 0.133442
H2    H     H_    0.434587 0.753781 0.098896 0.133604
H3    H     H_    0.923460 0.483179 0.612642 0.130698
H4    H     H_    0.070810 0.342404 0.390601 0.132524
H5    H     H_    0.290793 0.842186 0.953493 0.113238
H6    H     H_    0.709207 0.157831 0.046508 0.112993
H7    H     H_    0.208398 0.320285 0.548497 0.113531
H8    H     H_    0.786407 0.528320 0.454251 0.111152
H9    H     H_    0.650078 0.211848 0.953474 0.121736
H10   H     H_    0.349923 0.788154 0.046525 0.122069
H11   H     H_    0.841562 0.505155 0.551835 0.120622
H12   H     H_    0.152208 0.308563 0.451595 0.121297
H13   H     H_    0.478124 0.204304 0.893903 0.149273
H14   H     H_    0.521878 0.795665 0.106092 0.149294
H15   H     H_    0.011372 0.455297 0.624121 0.145023
H16   H     H_    0.983958 0.401512 0.378545 0.147030
C45   C     C_R   0.628987 0.881766 0.366853 -0.135619
C46   C     C_R   0.370922 0.118260 0.633027 -0.137131
C47   C     C_R   0.870628 0.381605 0.132549 -0.153442
C48   C     C_R   0.129014 0.618518 0.866936 -0.137988
H17   H     H_    0.643928 0.754132 0.352137 0.123545
H18   H     H_    0.355904 0.245889 0.647640 0.123557
H19   H     H_    0.855343 0.254004 0.146726 0.125233
H20   H     H_    0.143937 0.746120 0.852240 0.127949
C49   C     C_R   0.593059 0.868805 0.403351 -0.135192
C50   C     C_R   0.406858 0.131231 0.596540 -0.134993
C51   C     C_R   0.906583 0.368683 0.096078 -0.135332
C52   C     C_R   0.093116 0.631503 0.903485 -0.137111
H21   H     H_    0.581662 0.732091 0.415409 0.133713
H22   H     H_    0.418185 0.267947 0.584389 0.133834
H23   H     H_    0.917671 0.232028 0.083520 0.134680
H24   H     H_    0.081712 0.768208 0.915597 0.134370
C53   C     C_R   0.572362 0.029401 0.424153 0.018616
C54   C     C_R   0.427648 0.970642 0.575860 0.018501
C55   C     C_R   0.927687 0.529267 0.075920 0.018284
C56   C     C_R   0.072443 0.470916 0.924251 0.017896
C57   C     C_R   0.588461 0.203747 0.406959 -0.129360
C58   C     C_R   0.411636 0.796295 0.593168 -0.129210
C59   C     C_R   0.911967 0.703525 0.093721 -0.130458
C60   C     C_R   0.088545 0.296584 0.906992 -0.131092
C61   C     C_R   0.624486 0.216845 0.370319 -0.149303
C62   C     C_R   0.375608 0.783186 0.629803 -0.147900
C63   C     C_R   0.875929 0.716582 0.130345 -0.137264
C64   C     C_R   0.124543 0.283460 0.870319 -0.156571
C65   C     C_R   0.645457 0.055886 0.349885 -0.030353
C66   C     C_R   0.354542 0.944135 0.650113 -0.030423
C67   C     C_R   0.854554 0.555672 0.150147 -0.036849
C68   C     C_R   0.145478 0.444379 0.849895 -0.043540
N1    N     N_R   0.514389 0.168614 0.484234 -0.277690
N2    N     N_R   0.485628 0.831432 0.515788 -0.277654
N3    N     N_R   0.985819 0.668631 0.016148 -0.277848
N4    N     N_R   0.014350 0.331599 0.984074 -0.278226
N5    N     N_R   0.480689 0.154626 0.519701 -0.282819
N6    N     N_R   0.519327 0.845421 0.480319 -0.282840
N7    N     N_R   0.019530 0.654752 0.980686 -0.283113
N8    N     N_R   0.980635 0.345479 0.019528 -0.283273
C69   C     C_R   0.465517 0.985758 0.536337 0.516699
C70   C     C_R   0.534498 0.014288 0.463683 0.516636
C71   C     C_R   0.034586 0.485959 0.963791 0.515763
C72   C     C_R   0.965577 0.514267 0.036422 0.516142
C73   C     C_1   0.413752 0.992118 0.849306 0.260941
N9    N     N_1   0.426515 0.003795 0.803505 -0.355402
C74   C     C_1   0.586248 0.007853 0.150691 0.261198
N10   N     N_1   0.573484 0.996163 0.196491 -0.355229
C75   C     C_1   0.092017 0.607989 0.639710 0.275222
N11   N     N_1   0.082829 0.696016 0.678933 -0.349275
C76   C     C_1   0.916122 0.625181 0.355059 0.264912
N12   N     N_1   0.930120 0.678785 0.312958 -0.351375
H25   H     H_    0.573377 0.330664 0.421981 0.139641
H26   H     H_    0.426795 0.669383 0.578245 0.139658
H27   H     H_    0.927373 0.830421 0.079209 0.139283
H28   H     H_    0.073487 0.169679 0.921993 0.140235
H29   H     H_    0.636057 0.353415 0.358367 0.120208
H30   H     H_    0.364112 0.646612 0.641854 0.120303
H31   H     H_    0.864683 0.853119 0.142805 0.121513
H32   H     H_    0.136118 0.146870 0.858328 0.123783

loop_
_geom_bond_atom_site_label_1
_geom_bond_atom_site_label_2
_ccdc_geom_bond_type
O17   V3    S    
C48   C52   A    
O1    C5    A    
C47   H19   S    
O19   V1    S    
C9    C21   A    
O3    C7    A    
C10   C18   A    
C64   C68   A    
C54   C69   S    
C11   C23   A    
C22   C73   S    
N4    C71   A    
C25   C33   A    
C33   C38   A    
C5    C12   S    
O7    C3    A    
C6    C11   S    
C35   C40   A    
C26   C30   A    
C36   C39   A    
C40   C44   A    
O9    V1    S    
C14   C18   A    
C58   C62   A    
O4    C8    A    
C51   H23   S    
C58   H26   S    
C43   H3    S    
C50   H22   S    
O1    V3    S    
O13   V1    S    
O2    V4    S    
N2    N6    A    
O3    V1    S    
C3    C66   S    
N1    N5    A    
C40   H16   S    
C46   C50   A    
C17   H6    S    
C45   C49   A    
C1    O15   A    
C15   C31   A    
C48   H20   S    
C2    O16   A    
C16   C32   A    
C47   C51   A    
O2    C6    A    
C16   H12   S    
C54   C58   A    
C10   C22   A    
N2    C69   A    
C11   C19   A    
N1    C70   A    
C62   C66   A    
C16   C20   A    
C47   C67   A    
C63   H31   S    
N8    C72   A    
C13   C29   A    
N3    C72   A    
C34   C37   A    
O11   C7    A    
C38   H14   S    
O15   V3    S    
C35   C36   A    
O12   C8    A    
C59   H27   S    
O10   V2    S    
C51   C55   A    
O5    V1    S    
C53   C57   A    
C39   C43   A    
O7    V3    S    
C38   C42   A    
C26   C34   A    
C24   C75   S    
C76   N12   T    
C46   H18   S    
C49   C53   A    
C60   H28   S    
C45   H17   S    
O18   V4    S    
C61   H29   S    
C15   C19   A    
C14   H10   S    
C32   C44   A    
C13   H9    S    
C60   C64   A    
C39   H15   S    
C44   H4    S    
O8    V4    S    
C48   C68   A    
C20   H7    S    
O5    C1    A    
C62   H30   S    
C31   C43   A    
C14   C30   A    
C21   C25   A    
O8    C4    A    
C7    C10   S    
C53   C70   S    
O9    C5    A    
C55   C72   S    
O14   V2    S    
O6    V2    S    
N5    C69   A    
C21   C74   S    
N3    N7    A    
C52   C56   A    
C75   N11   T    
C12   C20   A    
C27   C35   A    
C74   N10   T    
C49   H21   S    
N7    C71   A    
C56   C60   A    
C29   C41   A    
C55   C59   A    
C4    C65   S    
O16   V4    S    
C19   H8    S    
C57   C61   A    
C3    O13   A    
C18   H5    S    
C23   C76   S    
C1    C68   S    
C59   C63   A    
O6    C2    A    
C23   C27   A    
O11   V3    S    
C30   C42   A    
C61   C65   A    
O12   V4    S    
C22   C26   A    
C8    C9    S    
C46   C66   A    
C9    C17   A    
C64   H32   S    
O20   V2    S    
C73   N9    T    
C37   H13   S    
O10   C6    A    
C33   C34   A    
C42   H2    S    
C56   C71   S    
C41   H1    S    
C52   H24   S    
C45   C65   A    
N6    C70   A    
C12   C24   A    
C27   C31   A    
C13   C17   A    
C25   C29   A    
N4    N8    A    
C57   H25   S    
C37   C41   A    
C24   C28   A    
C50   C54   A    
C28   C36   A    
C4    O14   A    
C63   C67   A    
O4    V2    S    
C2    C67   S    
C28   C32   A    
C15   H11   S    
