data_mof_unit_5118.cif
_audit_creation_date              2012-10-26T19:46:06-0400
_audit_creation_method            fapswitch 2.2
_symmetry_space_group_name_H-M    P1
_symmetry_Int_Tables_number       1
_space_group_crystal_system       triclinic
_cell_length_a                    10.824315
_cell_length_b                    9.596121
_cell_length_c                    15.875487
_cell_angle_alpha                 90.676813
_cell_angle_beta                  91.19295
_cell_angle_gamma                 90.056076
_cell_volume                      1648.53596102

loop_
_atom_site_label
_atom_site_type_symbol
_atom_type_description
_atom_site_fract_x
_atom_site_fract_y
_atom_site_fract_z
_atom_type_partial_charge
C1    C     C_R   0.262212 0.500014 0.500313 0.582113
C2    C     C_R   0.935688 0.612992 0.535463 -0.144607
C3    C     C_R   0.870784 0.499934 0.500635 -0.077543
C4    C     C_R   0.127687 0.500439 0.500236 0.030518
C5    C     C_R   0.407838 0.073067 0.460295 -0.062272
C6    C     C_R   0.408114 0.925065 0.459956 -0.056375
C7    C     C_R   0.499466 0.499208 0.340336 0.519347
C8    C     C_R   0.592188 0.926532 0.541171 0.411028
C9    C     C_R   0.592980 0.075252 0.540427 0.407910
C10   C     C_R   0.737389 0.500005 0.500535 0.540425
C11   C     C_R   0.500405 0.500824 0.659646 0.528865
C12   C     C_3   0.617686 0.434297 0.952417 -0.157332
C13   C     C_3   0.459425 0.654654 0.052122 0.524250
C14   C     C_3   0.384544 0.400088 0.042993 0.481594
C15   C     C_3   0.388601 0.413119 0.944637 -0.176179
C16   C     C_3   0.482709 0.653702 0.952974 -0.194677
C17   C     C_1   0.500980 0.502976 0.749269 -0.045398
C18   C     C_3   0.492587 0.500484 0.082569 0.147153
C19   C     C_3   0.497990 0.502645 0.917006 -0.102402
C20   C     C_3   0.679053 0.835210 0.661907 -0.094199
C21   C     C_3   0.689901 0.172918 0.657559 -0.072742
C22   C     C_3   0.257063 0.753980 0.021931 -0.117069
C23   C     C_3   0.630441 0.464058 0.048646 0.485425
C24   C     C_3   0.231840 0.414775 0.150884 -0.086878
C25   C     C_3   0.309414 0.166387 0.034589 -0.152770
C26   C     C_3   0.514714 0.889103 0.082916 -0.083679
C27   C     C_3   0.779182 0.602402 0.127207 -0.018287
C28   C     C_3   0.645647 0.226033 0.100475 -0.125943
C29   C     C_3   0.132577 0.296318 0.342446 -0.139894
C30   C     C_3   0.099939 0.851826 0.538634 -0.091709
C31   C     C_1   0.500583 0.504086 0.824794 -0.085030
C32   C     C_1   0.494984 0.497186 0.175035 0.028130
C33   C     C_1   0.497377 0.497379 0.250659 -0.045571
C34   C     C_R   0.061295 0.386865 0.464291 0.217787
C35   C     C_R   0.064403 0.615788 0.534633 0.211699
C36   C     C_R   0.933293 0.386578 0.466212 -0.116736
Cu1   Cu    Cu3+1 0.500020 0.640660 0.500000 0.998803
Cu2   Cu    Cu3+1 0.500020 0.359340 0.500000 0.986855
H1    H     H_    0.699572 0.476135 0.919524 0.147465
H2    H     H_    0.769117 0.123240 0.690569 0.105455
H3    H     H_    0.224872 0.680282 0.971745 0.142398
H4    H     H_    0.298710 0.848689 0.995145 0.067877
H5    H     H_    0.173832 0.788410 0.055989 0.133465
H6    H     H_    0.235908 0.512202 0.189155 0.145345
H7    H     H_    0.289504 0.334178 0.182236 0.132871
H8    H     H_    0.134874 0.377308 0.150858 0.106579
H9    H     H_    0.227486 0.217863 0.005153 0.156787
H10   H     H_    0.276480 0.102429 0.087363 0.120442
H11   H     H_    0.349617 0.095550 0.986838 0.094221
H12   H     H_    0.616998 0.321399 0.936953 0.093147
H13   H     H_    0.591152 0.950572 0.111793 0.116686
H14   H     H_    0.429900 0.918667 0.116848 0.159093
H15   H     H_    0.508487 0.916505 0.015228 0.083272
H16   H     H_    0.395719 0.309072 0.913497 0.112145
H17   H     H_    0.569693 0.711134 0.940655 0.151734
H18   H     H_    0.862853 0.535731 0.123894 0.143329
H19   H     H_    0.727252 0.579308 0.184840 0.141079
H20   H     H_    0.810766 0.712228 0.132321 0.121195
H21   H     H_    0.607214 0.181773 0.040893 0.142302
H22   H     H_    0.579927 0.228354 0.153078 0.172007
H23   H     H_    0.412393 0.709263 0.914710 0.081779
H24   H     H_    0.719968 0.153404 0.120470 0.120862
H25   H     H_    0.179829 0.205304 0.313947 0.122539
H26   H     H_    0.190274 0.390001 0.331036 0.097068
H27   H     H_    0.040729 0.306409 0.310221 0.107934
H28   H     H_    0.100825 0.846536 0.468476 0.110047
H29   H     H_    0.170874 0.929157 0.559291 0.150827
H30   H     H_    0.009451 0.890894 0.560613 0.144226
H31   H     H_    0.883009 0.298474 0.439252 0.171644
H32   H     H_    0.886484 0.697035 0.565695 0.179295
H33   H     H_    0.334322 0.127247 0.427487 0.168577
H34   H     H_    0.301118 0.459305 0.919671 0.136681
H35   H     H_    0.334743 0.869263 0.426834 0.130687
H36   H     H_    0.696891 0.723766 0.675036 0.143721
H37   H     H_    0.586584 0.863438 0.686890 0.091460
H38   H     H_    0.751495 0.893021 0.697937 0.099612
H39   H     H_    0.702375 0.286324 0.668667 0.148239
H40   H     H_    0.602251 0.139330 0.687177 0.076520
N1    N     N_R   0.500030 0.852070 0.500020 -0.240888
N2    N     N_R   0.500030 0.147930 0.500020 -0.249281
O1    O     O_R   0.319660 0.618740 0.500000 -0.476345
O2    O     O_3   0.697290 0.144658 0.570237 -0.530130
O3    O     O_3   0.337007 0.686925 0.079970 -0.539127
O4    O     O_3   0.263453 0.444211 0.066772 -0.544079
O5    O     O_3   0.403109 0.258487 0.065659 -0.629560
O6    O     O_3   0.543061 0.747602 0.094725 -0.536033
O7    O     O_3   0.706147 0.586845 0.052543 -0.544876
O8    O     O_3   0.700249 0.356896 0.090704 -0.588209
O9    O     O_3   0.120608 0.273262 0.429403 -0.562159
O10   O     O_3   0.129448 0.722462 0.575480 -0.552773
O11   O     O_R   0.319660 0.381260 0.500000 -0.470637
O12   O     O_R   0.500020 0.618840 0.379440 -0.493943
O13   O     O_R   0.500020 0.381160 0.379440 -0.506967
O14   O     O_R   0.680370 0.618830 0.500010 -0.457198
O15   O     O_R   0.680370 0.381170 0.500010 -0.456199
O16   O     O_R   0.500010 0.618730 0.620560 -0.492774
O17   O     O_R   0.500010 0.381270 0.620560 -0.505812
O18   O     O_3   0.693466 0.857795 0.574800 -0.548235

loop_
_geom_bond_atom_site_label_1
_geom_bond_atom_site_label_2
_ccdc_geom_bond_type
C11   O16   A    
C2    C35   A    
C29   H25   S    
C14   C18   S    
C14   O4    S    
C30   O10   S    
C19   C31   S    
C29   O9    S    
C15   C19   S    
C15   H34   S    
Cu1   N1    S    
C12   C23   S    
C13   C18   S    
C24   H7    S    
C10   O15   A    
C29   H26   S    
C5    C6    A    
C22   H3    S    
C10   O14   A    
C1    O1    A    
C20   H38   S    
C8    O18   S    
C8    C9    A    
C21   H40   S    
C28   O8    S    
C8    N1    A    
C25   H9    S    
C30   H29   S    
C9    O2    S    
C4    C35   A    
C1    O11   A    
C23   O7    S    
C7    C33   S    
Cu1   O1    S    
Cu2   O17   S    
C28   H22   S    
C7    O13   A    
C4    C34   A    
C18   C23   S    
C15   H16   S    
C27   H19   S    
C27   H18   S    
Cu2   O11   S    
Cu1   O16   S    
C9    N2    A    
Cu2   O15   S    
Cu1   Cu2   S    
C26   H14   S    
C22   H5    S    
C26   O6    S    
C25   O5    S    
C20   H36   S    
C5    N2    A    
C27   O7    S    
C25   H10   S    
C30   H28   S    
C29   H27   S    
C23   O8    S    
C17   C31   T    
C18   C32   S    
C16   H23   S    
C26   H15   S    
C36   H31   S    
C6    H35   S    
C28   H21   S    
C11   C17   S    
Cu1   O12   S    
Cu2   O13   S    
C14   O5    S    
C27   H20   S    
C12   H12   S    
C13   O3    S    
C11   O17   A    
C1    C4    S    
C24   H8    S    
C32   C33   T    
C12   H1    S    
C2    C3    A    
C24   O4    S    
C34   O9    S    
C5    H33   S    
C3    C10   S    
C26   H13   S    
C22   O3    S    
C6    N1    A    
C22   H4    S    
C21   H2    S    
Cu2   N2    S    
C3    C36   A    
C16   C19   S    
C24   H6    S    
C7    O12   A    
C12   C19   S    
Cu1   O14   S    
C34   C36   A    
C13   O6    S    
C25   H11   S    
C16   H17   S    
C35   O10   S    
C20   O18   S    
C21   O2    S    
C20   H37   S    
C13   C16   S    
C21   H39   S    
C14   C15   S    
C2    H32   S    
C30   H30   S    
C28   H24   S    
