data_mof_unit_55651.cif
_audit_creation_date              2012-12-11T14:24:40-0500
_audit_creation_method            fapswitch 2.2
_symmetry_space_group_name_H-M    P1
_symmetry_Int_Tables_number       1
_space_group_crystal_system       triclinic
_cell_length_a                    19.11711
_cell_length_b                    11.066951
_cell_length_c                    18.527031
_cell_angle_alpha                 89.233445
_cell_angle_beta                  90.729397
_cell_angle_gamma                 90.826356
_cell_volume                      3918.66255697

loop_
_atom_site_label
_atom_site_type_symbol
_atom_type_description
_atom_site_fract_x
_atom_site_fract_y
_atom_site_fract_z
_atom_type_partial_charge
C1    C     C_R   0.729505 0.374329 0.145282 0.538109
C2    C     C_R   0.285491 0.333358 0.861658 0.566886
C3    C     C_R   0.228916 0.872343 0.144372 0.541522
C4    C     C_R   0.769095 0.876644 0.853204 0.544495
C5    C     C_3   0.483696 0.053965 0.026542 -0.099604
C6    C     C_3   0.539810 0.075308 0.968483 -0.113353
C7    C     C_3   0.986107 0.552864 0.026574 -0.103795
C8    C     C_3   0.041757 0.580375 0.968990 -0.117590
C9    C     C_R   0.750663 0.910873 0.926475 -0.010402
C10   C     C_R   0.241658 0.893654 0.067181 -0.006463
C11   C     C_R   0.271500 0.351875 0.938474 -0.003302
C12   C     C_R   0.743297 0.400327 0.069101 -0.006551
C13   C     C_R   0.696624 0.851011 0.965888 0.020715
C14   C     C_R   0.299222 0.843756 0.029945 0.019600
C15   C     C_R   0.212288 0.303732 0.977122 0.020022
C16   C     C_R   0.801767 0.353349 0.032542 0.021214
C17   C     C_R   0.701268 0.848237 0.042250 0.030133
C18   C     C_R   0.295501 0.837286 0.953679 0.029471
C19   C     C_R   0.210650 0.320101 0.052904 0.027198
C20   C     C_R   0.798739 0.345915 0.956380 0.028567
C21   C     C_R   0.804494 0.978751 0.036994 -0.156166
C22   C     C_R   0.183421 0.935218 0.953101 -0.159232
C23   C     C_R   0.318244 0.438318 0.047814 -0.159520
C24   C     C_R   0.685733 0.443167 0.955152 -0.156534
C25   C     C_R   0.802431 0.976627 0.963420 -0.152767
C26   C     C_R   0.183492 0.933776 0.026975 -0.152794
C27   C     C_R   0.324984 0.412243 0.976309 -0.160237
C28   C     C_R   0.685717 0.442479 0.028816 -0.152773
C29   C     C_R   0.638780 0.792424 0.932266 -0.090430
C30   C     C_R   0.359415 0.797418 0.065141 -0.095101
C31   C     C_R   0.154346 0.241213 0.945138 -0.097163
C32   C     C_R   0.862718 0.312552 0.068774 -0.101378
C33   C     C_R   0.101626 0.189474 0.987209 -0.145450
C34   C     C_R   0.914444 0.252509 0.031681 -0.149492
C35   C     C_R   0.592549 0.721072 0.972342 -0.130416
C36   C     C_R   0.407544 0.729847 0.027445 -0.138903
C37   C     C_R   0.601520 0.709209 0.046546 -0.130739
C38   C     C_R   0.398601 0.711528 0.953800 -0.119962
C39   C     C_R   0.105790 0.194211 0.061737 -0.126987
C40   C     C_R   0.908007 0.235644 0.957773 -0.132073
C41   C     C_R   0.655124 0.772374 0.081287 -0.080108
C42   C     C_R   0.344006 0.767020 0.916700 -0.069850
C43   C     C_R   0.160202 0.257562 0.094290 -0.078205
C44   C     C_R   0.850567 0.281190 0.920312 -0.081089
C45   C     C_R   0.533157 0.155209 0.144222 0.558410
C46   C     C_R   0.468696 0.155688 0.854574 0.534096
C47   C     C_R   0.032466 0.655481 0.144577 0.557574
C48   C     C_R   0.968434 0.655608 0.854728 0.542300
C49   C     C_R   0.752588 0.920526 0.077346 -0.006821
C50   C     C_R   0.242358 0.900113 0.916359 -0.006629
C51   C     C_R   0.259359 0.399609 0.085614 -0.003443
C52   C     C_R   0.744235 0.405136 0.918387 -0.009320
C53   C     C_R   0.512246 0.172349 0.584667 -0.004218
C54   C     C_R   0.546954 0.154916 0.438586 -0.004369
C55   C     C_R   0.011941 0.673314 0.584616 -0.002659
C56   C     C_R   0.046129 0.654728 0.438523 -0.004218
C57   C     C_R   0.553819 0.077040 0.562880 0.035186
C58   C     C_R   0.563761 0.059543 0.488194 0.013124
C59   C     C_R   0.054188 0.578986 0.563169 0.033156
C60   C     C_R   0.063384 0.560103 0.488531 0.010971
C61   C     C_R   0.514395 0.257409 0.464461 -0.136519
C62   C     C_R   0.494771 0.263306 0.535709 -0.142546
C63   C     C_R   0.012573 0.756536 0.463942 -0.137030
C64   C     C_R   0.993347 0.763046 0.535283 -0.141539
C65   C     C_R   0.578447 0.991254 0.613791 -0.080358
C66   C     C_R   0.585323 0.944371 0.467124 -0.093527
C67   C     C_R   0.079372 0.494492 0.614487 -0.079267
C68   C     C_R   0.083812 0.443972 0.468096 -0.088800
C69   C     C_R   0.095922 0.379955 0.592964 -0.111951
C70   C     C_R   0.094525 0.354307 0.520312 -0.128763
C71   C     C_R   0.596497 0.877762 0.591462 -0.112151
C72   C     C_R   0.596787 0.854077 0.518553 -0.132279
C73   C     C_R   0.788973 0.841790 0.556655 -0.046371
C74   C     C_R   0.217981 0.847646 0.443425 -0.059874
C75   C     C_R   0.288463 0.341151 0.556402 -0.048522
C76   C     C_R   0.718562 0.349712 0.443333 -0.059788
C77   C     C_R   0.836220 0.920149 0.517289 0.001769
C78   C     C_R   0.164624 0.903788 0.484688 0.016240
C79   C     C_R   0.336165 0.417268 0.516300 0.002170
C80   C     C_R   0.665435 0.407147 0.484271 0.017170
C81   C     C_R   0.836812 0.910872 0.442024 -0.004586
C82   C     C_R   0.167106 0.892950 0.560348 -0.013089
C83   C     C_R   0.336600 0.406355 0.441000 -0.003472
C84   C     C_R   0.667070 0.394951 0.559837 -0.013140
C85   C     C_R   0.735099 0.784459 0.440149 0.224236
C86   C     C_R   0.281492 0.806820 0.557163 0.243936
C87   C     C_R   0.232413 0.285380 0.440630 0.225978
C88   C     C_R   0.780951 0.306744 0.557447 0.244642
C89   C     C_R   0.742458 0.967544 0.149655 0.529179
C90   C     C_R   0.256417 0.963894 0.848516 0.521826
C91   C     C_R   0.243457 0.464758 0.151442 0.533882
C92   C     C_R   0.756779 0.464797 0.849060 0.526863
C93   C     C_R   0.744874 0.763780 0.515407 -0.132066
C94   C     C_R   0.273917 0.792664 0.481902 -0.119567
C95   C     C_R   0.242817 0.264985 0.515819 -0.127911
C96   C     C_R   0.773833 0.293281 0.482089 -0.120997
C97   C     C_R   0.880437 0.012219 0.546051 -0.092408
C98   C     C_R   0.112904 0.981360 0.456509 -0.067591
C99   C     C_R   0.380282 0.509820 0.544390 -0.095538
C100  C     C_R   0.614822 0.486914 0.455977 -0.066448
C101  C     C_R   0.914783 0.094521 0.500977 -0.123070
C102  C     C_R   0.069244 0.042550 0.501488 -0.136345
C103  C     C_R   0.414911 0.590702 0.498719 -0.124735
C104  C     C_R   0.569970 0.546266 0.500663 -0.138659
C105  C     C_R   0.922930 0.067745 0.428664 -0.123061
C106  C     C_R   0.064295 0.012310 0.573879 -0.114741
C107  C     C_R   0.423598 0.561712 0.426765 -0.120448
C108  C     C_R   0.564178 0.514587 0.572784 -0.115207
C109  C     C_R   0.891613 0.964252 0.402156 -0.088028
C110  C     C_R   0.110225 0.928825 0.602384 -0.069432
C111  C     C_R   0.391509 0.458399 0.400728 -0.086360
C112  C     C_R   0.609977 0.431035 0.601482 -0.069899
C113  C     C_R   0.773938 0.877843 0.408242 -0.000231
C114  C     C_R   0.232200 0.876595 0.592396 -0.022069
C115  C     C_R   0.273225 0.375361 0.407481 -0.003176
C116  C     C_R   0.731832 0.377079 0.592392 -0.021871
C117  C     C_R   0.712649 0.335481 0.363289 0.538773
C118  C     C_R   0.289639 0.331676 0.637329 0.574635
C119  C     C_R   0.212391 0.834772 0.363216 0.541347
C120  C     C_R   0.789766 0.831593 0.637426 0.571098
C121  C     C_R   0.563601 0.151857 0.361152 0.541741
C122  C     C_R   0.470489 0.159104 0.649580 0.530549
C123  C     C_R   0.063335 0.651811 0.361220 0.541270
C124  C     C_R   0.970344 0.659273 0.649518 0.529019
C125  C     C_R   0.746474 0.960019 0.350496 0.533770
C126  C     C_R   0.254446 0.961862 0.649129 0.533416
C127  C     C_R   0.246295 0.459958 0.350581 0.530340
C128  C     C_R   0.754349 0.461869 0.649206 0.531643
C129  C     C_3   0.520795 0.271249 0.971179 -0.129099
C130  C     C_3   0.464895 0.249712 0.029938 -0.138453
C131  C     C_3   0.015365 0.773776 0.971994 -0.122182
C132  C     C_3   0.959678 0.745839 0.030237 -0.134273
C133  C     C_3   0.570487 0.183088 0.011168 -0.111948
C134  C     C_3   0.434099 0.141978 0.987173 -0.103830
C135  C     C_3   0.067926 0.690753 0.012155 -0.115351
C136  C     C_3   0.933539 0.635256 0.986915 -0.098781
C137  C     C_3   0.513772 0.161693 0.068293 0.050054
C138  C     C_3   0.490716 0.163042 0.929712 0.056182
C139  C     C_3   0.011703 0.663021 0.068914 0.044781
C140  C     C_3   0.989835 0.662877 0.930004 0.059475
Cr1   Cr    Cr6+3 0.772820 0.169820 0.252640 0.991310
Cr2   Cr    Cr6+3 0.227180 0.169820 0.747360 0.968786
Cr3   Cr    Cr6+3 0.272820 0.669820 0.252640 0.992584
Cr4   Cr    Cr6+3 0.727180 0.669820 0.747360 0.977859
Cr5   Cr    Cr6+3 0.615040 0.323610 0.249150 0.968342
Cr6   Cr    Cr6+3 0.384960 0.323610 0.750850 0.962893
Cr7   Cr    Cr6+3 0.115040 0.823610 0.249150 0.968290
Cr8   Cr    Cr6+3 0.884960 0.823610 0.750850 0.970519
Cr9   Cr    Cr6+3 0.616720 0.011130 0.250660 0.984354
Cr10  Cr    Cr6+3 0.383280 0.011130 0.749340 0.996469
Cr11  Cr    Cr6+3 0.116720 0.511130 0.250660 0.981901
Cr12  Cr    Cr6+3 0.883280 0.511130 0.749340 1.002557
H1    H     H_    0.626909 0.198736 0.023213 0.129092
H2    H     H_    0.377659 0.124910 0.975612 0.120518
H3    H     H_    0.123732 0.710291 0.024812 0.131282
H4    H     H_    0.877970 0.611571 0.974844 0.130743
H5    H     H_    0.578341 0.008381 0.671220 0.117218
H6    H     H_    0.589475 0.917914 0.412025 0.196997
H7    H     H_    0.079805 0.513025 0.671764 0.121005
H8    H     H_    0.087106 0.416543 0.413029 0.200287
H9    H     H_    0.107063 0.309849 0.632480 0.139619
H10   H     H_    0.104612 0.264821 0.504733 0.167880
H11   H     H_    0.607909 0.807060 0.630502 0.139489
H12   H     H_    0.608794 0.765869 0.501830 0.166923
H13   H     H_    0.892129 0.025092 0.601326 0.163025
H14   H     H_    0.105882 0.006741 0.401839 0.175118
H15   H     H_    0.391283 0.524347 0.599625 0.162685
H16   H     H_    0.610287 0.516529 0.401715 0.180653
H17   H     H_    0.714340 0.693789 0.542232 0.154620
H18   H     H_    0.313399 0.744565 0.453131 0.169065
H19   H     H_    0.211194 0.197228 0.543296 0.154810
H20   H     H_    0.813039 0.244350 0.453467 0.169372
H21   H     H_    0.940807 0.173122 0.523615 0.156811
H22   H     H_    0.040895 0.115795 0.478587 0.106935
H23   H     H_    0.440318 0.670334 0.520752 0.156843
H24   H     H_    0.541435 0.619657 0.477883 0.105704
H25   H     H_    0.954172 0.125440 0.393687 0.100150
H26   H     H_    0.027376 0.056399 0.608140 0.091693
H27   H     H_    0.455143 0.618310 0.391463 0.101378
H28   H     H_    0.526733 0.557812 0.606808 0.092415
H29   H     H_    0.898448 0.943162 0.345698 0.125633
H30   H     H_    0.108561 0.908539 0.659759 0.117577
H31   H     H_    0.397782 0.436830 0.344263 0.125043
H32   H     H_    0.607745 0.410073 0.658750 0.117037
H33   H     H_    0.535340 0.359769 0.946497 0.100701
H34   H     H_    0.436856 0.319565 0.059671 0.110857
H35   H     H_    0.027306 0.863845 0.947813 0.102342
H36   H     H_    0.926123 0.812358 0.057026 0.113226
H37   H     H_    0.845960 0.031635 0.062057 0.154947
H38   H     H_    0.138715 0.972523 0.924689 0.132996
H39   H     H_    0.358632 0.494029 0.072628 0.144879
H40   H     H_    0.641356 0.482563 0.927100 0.138839
H41   H     H_    0.059375 0.139258 0.961822 0.089497
H42   H     H_    0.959529 0.219084 0.060707 0.107677
H43   H     H_    0.550654 0.672733 0.945339 0.095102
H44   H     H_    0.451109 0.689788 0.055980 0.099969
H45   H     H_    0.067783 0.146407 0.094608 0.095247
H46   H     H_    0.947060 0.186332 0.929128 0.096559
H47   H     H_    0.567344 0.650180 0.077467 0.092100
H48   H     H_    0.433999 0.654816 0.924999 0.092209
O1    O     O_R   0.788190 0.043000 0.172520 -0.527970
O2    O     O_R   0.211810 0.043000 0.827480 -0.543855
O3    O     O_R   0.288190 0.543000 0.172520 -0.527001
O4    O     O_R   0.711810 0.543000 0.827480 -0.524830
O5    O     O_R   0.556550 0.253260 0.323480 -0.518617
O6    O     O_R   0.443450 0.253260 0.676520 -0.530585
O7    O     O_R   0.056550 0.753260 0.323480 -0.519593
O8    O     O_R   0.943450 0.753260 0.676520 -0.532181
O9    O     O_R   0.545830 0.051610 0.330160 -0.525461
O10   O     O_R   0.454170 0.051610 0.669840 -0.500002
O11   O     O_R   0.045830 0.551610 0.330160 -0.526823
O12   O     O_R   0.954170 0.551610 0.669840 -0.500802
O13   O     O_R   0.681920 0.959720 0.327070 -0.514512
O14   O     O_R   0.318080 0.959720 0.672930 -0.458972
O15   O     O_R   0.181920 0.459720 0.327070 -0.513004
O16   O     O_R   0.818080 0.459720 0.672930 -0.460629
O17   O     O_3   0.668190 0.168190 0.250820 -0.273253
O18   O     O_3   0.331810 0.168190 0.749180 -0.274435
O19   O     O_3   0.168190 0.668190 0.250820 -0.273574
O20   O     O_3   0.831810 0.668190 0.749180 -0.258377
O21   O     O_R   0.766240 0.292300 0.176860 -0.499254
O22   O     O_R   0.233760 0.292300 0.823140 -0.515328
O23   O     O_R   0.266240 0.792300 0.176860 -0.499989
O24   O     O_R   0.733760 0.792300 0.823140 -0.502897
O25   O     O_R   0.670310 0.409160 0.168720 -0.535416
O26   O     O_R   0.329690 0.409160 0.831280 -0.526752
O27   O     O_R   0.170310 0.909160 0.168720 -0.533457
O28   O     O_R   0.829690 0.909160 0.831280 -0.530445
O29   O     O_R   0.556160 0.251900 0.173380 -0.499652
O30   O     O_R   0.443840 0.251900 0.826620 -0.522357
O31   O     O_R   0.056160 0.751900 0.173380 -0.499626
O32   O     O_R   0.943840 0.751900 0.826620 -0.505626
O33   O     O_R   0.545410 0.050140 0.168240 -0.517093
O34   O     O_R   0.454590 0.050140 0.831760 -0.523559
O35   O     O_R   0.045410 0.550140 0.168240 -0.518568
O36   O     O_R   0.954590 0.550140 0.831760 -0.522347
O37   O     O_R   0.681530 0.958350 0.176970 -0.515080
O38   O     O_R   0.318470 0.958350 0.823030 -0.516578
O39   O     O_R   0.181530 0.458350 0.176970 -0.514628
O40   O     O_R   0.818470 0.458350 0.823030 -0.517957
O41   O     O_R   0.788610 0.044480 0.334450 -0.532820
O42   O     O_R   0.211390 0.044480 0.665550 -0.545081
O43   O     O_R   0.288610 0.544480 0.334450 -0.532439
O44   O     O_R   0.711390 0.544480 0.665550 -0.546469
O45   O     O_R   0.766630 0.293670 0.326970 -0.495076
O46   O     O_R   0.233370 0.293670 0.673030 -0.501737
O47   O     O_R   0.266630 0.793670 0.326970 -0.493055
O48   O     O_R   0.733370 0.793670 0.673030 -0.510177
O49   O     O_R   0.670730 0.410640 0.330640 -0.560770
O50   O     O_R   0.329270 0.410640 0.669360 -0.555273
O51   O     O_R   0.170730 0.910640 0.330640 -0.562208
O52   O     O_R   0.829270 0.910640 0.669360 -0.561727
H49   H     H_    0.501090 0.331281 0.428719 0.151408
H50   H     H_    0.464091 0.337603 0.552604 0.151310
H51   H     H_    0.998313 0.829348 0.427813 0.149060
H52   H     H_    0.962117 0.836722 0.551977 0.150779
O53   O     O_3   0.682547 0.724446 0.402046 -0.598459
C141  C     C_3   0.707380 0.681249 0.335369 0.017073
H53   H     H_    0.732147 0.592939 0.344942 0.180384
H54   H     H_    0.748262 0.737925 0.308904 0.098337
C142  C     C_3   0.646863 0.671767 0.281226 -0.339642
H55   H     H_    0.630467 0.763472 0.263865 0.152224
H56   H     H_    0.663922 0.621106 0.233519 0.121634
H57   H     H_    0.600595 0.625064 0.304270 0.133881
O54   O     O_3   0.341444 0.767481 0.592874 -0.554720
C143  C     C_3   0.324077 0.704752 0.658067 0.019082
H58   H     H_    0.300581 0.615933 0.645197 0.162091
H59   H     H_    0.284198 0.748238 0.691550 0.108261
C144  C     C_3   0.389334 0.692735 0.705846 -0.349061
H60   H     H_    0.402699 0.781191 0.730401 0.160748
H61   H     H_    0.379491 0.625630 0.749758 0.113517
H62   H     H_    0.434969 0.664197 0.674320 0.120839
O55   O     O_3   0.176065 0.231607 0.405033 -0.599634
C145  C     C_3   0.194850 0.187406 0.336662 0.018208
H63   H     H_    0.220726 0.099857 0.344571 0.181656
H64   H     H_    0.232857 0.244052 0.306116 0.104002
C146  C     C_3   0.129246 0.176249 0.289213 -0.348717
H65   H     H_    0.114775 0.266671 0.267717 0.146253
H66   H     H_    0.139026 0.114910 0.243705 0.124794
H67   H     H_    0.083718 0.141206 0.319703 0.127858
O56   O     O_3   0.840443 0.266467 0.593618 -0.554443
C147  C     C_3   0.822433 0.204323 0.658841 0.017539
H68   H     H_    0.799396 0.115170 0.645995 0.161505
H69   H     H_    0.781995 0.247772 0.691633 0.104015
C148  C     C_3   0.887123 0.193301 0.707564 -0.348777
H70   H     H_    0.900084 0.282180 0.731761 0.162239
H71   H     H_    0.876767 0.126933 0.751748 0.106547
H72   H     H_    0.933257 0.164438 0.676912 0.121064
H73   H     H_    0.468915 0.965569 0.051045 0.136010
H74   H     H_    0.570507 0.005831 0.941079 0.122651
H75   H     H_    0.975617 0.463793 0.051910 0.141489
H76   H     H_    0.075450 0.513356 0.942732 0.127534
H77   H     H_    0.626856 0.803590 0.875504 0.130549
H78   H     H_    0.371144 0.813510 0.121312 0.136875
H79   H     H_    0.146162 0.229487 0.888460 0.165740
H80   H     H_    0.872664 0.329304 0.125254 0.135817
H81   H     H_    0.844912 0.021595 0.935521 0.149156
H82   H     H_    0.135588 0.960350 0.052236 0.156146
H83   H     H_    0.372361 0.443680 0.950140 0.144161
H84   H     H_    0.638269 0.471947 0.053863 0.151020
H85   H     H_    0.661634 0.758176 0.138481 0.109476
H86   H     H_    0.338232 0.750730 0.859466 0.113343
H87   H     H_    0.163672 0.254749 0.152200 0.111612
H88   H     H_    0.845985 0.261963 0.863371 0.111574

loop_
_geom_bond_atom_site_label_1
_geom_bond_atom_site_label_2
_ccdc_geom_bond_type
C99   C103  A    
C133  C137  S    
C129  H33   S    
C122  O6    A    
C73   C93   A    
C136  C140  S    
C132  H36   S    
C75   C95   A    
C112  H32   S    
C135  C139  S    
C30   H78   S    
C147  H68   S    
C84   C112  A    
C71   H11   S    
C79   C99   A    
C55   C59   A    
C5    C6    S    
C100  C104  A    
C1    O21   A    
C145  H63   S    
C9    C13   A    
C131  C140  S    
Cr4   O4    S    
Cr7   O31   S    
C50   C90   S    
C66   C72   A    
C12   C16   A    
Cr2   O46   S    
Cr9   O37   S    
C22   H38   S    
C87   C115  A    
C34   H42   S    
C59   C60   A    
Cr11  O15   S    
C124  O8    A    
C8    C135  S    
C130  C134  S    
C70   H10   S    
C99   H15   S    
Cr8   O52   S    
C90   O38   A    
C56   C123  S    
C27   H83   S    
C118  O50   A    
C105  H25   S    
Cr10  O34   S    
Cr5   O25   S    
C32   C34   A    
C78   C82   A    
C11   C27   A    
C16   C20   A    
Cr7   O51   S    
Cr9   O17   S    
C129  C133  S    
C47   O31   A    
C144  H61   S    
C128  O44   A    
Cr11  O19   S    
C29   H77   S    
C2    O26   A    
C61   H49   S    
C107  H27   S    
C120  O52   A    
Cr9   O9    S    
C118  O46   A    
C5    C137  S    
Cr12  O36   S    
C54   C61   A    
C29   C35   A    
C30   C36   A    
C8    C140  S    
C148  H71   S    
C65   C71   A    
C76   C96   A    
C127  O15   A    
Cr4   O44   S    
C69   C70   A    
Cr9   O13   S    
Cr6   O18   S    
C73   C77   A    
C103  C107  A    
C85   O53   S    
C68   H8    S    
C75   C79   A    
C44   H88   S    
C6    H74   S    
Cr1   O21   S    
C90   O2    A    
C131  H35   S    
Cr3   O3    S    
C6    C138  S    
C101  H21   S    
Cr8   O28   S    
Cr5   O5    S    
C7    C8    S    
C104  H24   S    
C132  C139  S    
Cr12  O16   S    
C21   C25   A    
Cr10  O10   S    
Cr5   O49   S    
Cr4   O20   S    
C53   C122  S    
C18   C42   A    
C142  H55   S    
C114  C126  S    
C42   H86   S    
O53   C141  S    
C119  O47   A    
Cr2   O18   S    
C59   C67   A    
C85   C93   A    
C87   C95   A    
C126  O42   A    
Cr1   O45   S    
C122  O10   A    
C77   C97   A    
Cr1   O17   S    
C84   C116  A    
C146  H65   S    
C1    C12   S    
C125  O13   A    
C2    C11   S    
C20   C44   A    
C48   C140  S    
C83   C115  A    
C127  O43   A    
C10   C14   A    
C17   C49   A    
Cr7   O27   S    
Cr2   O42   S    
Cr9   O33   S    
C36   H44   S    
C119  O51   A    
C21   H37   S    
C132  C136  S    
Cr11  O35   S    
C111  H31   S    
C24   H40   S    
C110  H30   S    
C98   H14   S    
C143  H59   S    
C128  O16   A    
C54   C121  S    
C46   O34   A    
C74   C78   A    
Cr3   O43   S    
C47   C139  S    
C129  C130  S    
C109  H29   S    
Cr5   O29   S    
C92   O40   A    
C3    O23   A    
C107  C111  A    
C24   C28   A    
C143  C144  S    
C142  H57   S    
C67   H7    S    
C15   C31   A    
C16   C32   A    
C147  H69   S    
C13   C17   A    
C85   C113  A    
C141  H53   S    
C7    C136  S    
C57   C58   A    
C40   H46   S    
C145  H64   S    
C37   C41   A    
C61   C62   A    
Cr3   O19   S    
C63   C64   A    
C40   C44   A    
C147  C148  S    
C146  H67   S    
C25   H81   S    
C87   O55   S    
C4    C9    S    
C28   H84   S    
C24   C52   A    
C88   C96   A    
C145  C146  S    
C74   C94   A    
C121  O5    A    
C80   C84   A    
C9    C25   A    
C15   C19   A    
C93   H17   S    
C12   C28   A    
Cr2   O2    S    
C13   C29   A    
C45   O33   A    
C6    C133  S    
C106  C110  A    
C2    O22   A    
C105  C109  A    
C126  O14   A    
C51   C91   S    
C7    H75   S    
C31   H79   S    
Cr8   O32   S    
C47   O35   A    
C92   O4    A    
C35   H43   S    
C22   C50   A    
C11   C15   A    
C8    H76   S    
C39   H45   S    
C33   H41   S    
C73   C120  S    
C144  H60   S    
C46   O30   A    
C75   C118  S    
C21   C49   A    
C19   C43   A    
C32   H80   S    
C89   O37   A    
C65   H5    S    
C117  O49   A    
C124  O12   A    
C43   H87   S    
Cr1   O41   S    
C56   C60   A    
C148  H70   S    
C77   C81   A    
C103  H23   S    
C72   H12   S    
Cr8   O20   S    
C81   C109  A    
C54   C58   A    
C133  H1    S    
C52   C92   S    
C131  C132  S    
C3    O27   A    
C104  C108  A    
C18   C50   A    
C1    O25   A    
C55   C124  S    
C53   C57   A    
Cr1   O1    S    
C117  O45   A    
Cr11  O39   S    
C76   C117  S    
C100  H16   S    
C38   H48   S    
C36   C38   A    
C94   H18   S    
C98   C102  A    
C79   C83   A    
C134  H2    S    
C97   H13   S    
Cr3   O47   S    
C4    O28   A    
Cr8   O8    S    
C108  C112  A    
C71   C72   A    
Cr5   O17   S    
C60   C68   A    
C22   C26   A    
C144  H62   S    
C81   C113  A    
C86   O54   S    
C130  C137  S    
C95   H19   S    
C91   O3    A    
C89   O1    A    
C14   C18   A    
Cr6   O6    S    
C88   O56   S    
C23   H39   S    
C115  C127  S    
C74   C119  S    
C26   H82   S    
C33   C39   A    
Cr11  O11   S    
Cr6   O50   S    
C34   C40   A    
C82   C110  A    
C35   C37   A    
C69   H9    S    
C38   C42   A    
C148  H72   S    
C131  C135  S    
Cr3   O23   S    
C136  H4    S    
C113  C125  S    
C135  H3    S    
C108  H28   S    
C86   C94   A    
C58   C66   A    
C63   H51   S    
C129  C138  S    
Cr10  O38   S    
C123  O11   A    
C78   C98   A    
C31   C33   A    
C125  O41   A    
C121  O9    A    
O54   C143  S    
C46   C138  S    
C10   C26   A    
Cr10  O14   S    
C80   C100  A    
C45   O29   A    
C14   C30   A    
C101  C105  A    
C5    C134  S    
C82   C114  A    
C142  H56   S    
C41   H85   S    
C39   C43   A    
O56   C147  S    
C4    O24   A    
C67   C69   A    
C88   C116  A    
C141  H54   S    
C53   C62   A    
C23   C51   A    
Cr12  O40   S    
C55   C64   A    
C45   C137  S    
O55   C145  S    
Cr10  O18   S    
C56   C63   A    
C123  O7    A    
Cr7   O7    S    
C48   O36   A    
C23   C27   A    
C146  H66   S    
C116  C128  S    
C141  C142  S    
C76   C80   A    
Cr4   O48   S    
C66   H6    S    
Cr6   O30   S    
C62   H50   S    
C49   C89   S    
C5    H73   S    
C134  C138  S    
C130  H34   S    
Cr12  O12   S    
C102  H22   S    
C120  O48   A    
C86   C114  A    
C20   C52   A    
C3    C10   S    
C7    C139  S    
C57   C65   A    
Cr12  O20   S    
C106  H26   S    
C102  C106  A    
C83   C111  A    
C37   H47   S    
C17   C41   A    
Cr4   O24   S    
Cr7   O19   S    
C143  H58   S    
C48   O32   A    
C19   C51   A    
C68   C70   A    
C96   H20   S    
C91   O39   A    
Cr6   O26   S    
Cr2   O22   S    
C97   C101  A    
C64   H52   S    
