data_mof_unit_21373.cif
_audit_creation_date              2012-12-11T15:54:40-0500
_audit_creation_method            fapswitch 2.2
_symmetry_space_group_name_H-M    P1
_symmetry_Int_Tables_number       1
_space_group_crystal_system       triclinic
_cell_length_a                    6.925193
_cell_length_b                    14.756642
_cell_length_c                    15.978156
_cell_angle_alpha                 89.911427
_cell_angle_beta                  89.646262
_cell_angle_gamma                 90.051435
_cell_volume                      1632.81546451

loop_
_atom_site_label
_atom_site_type_symbol
_atom_type_description
_atom_site_fract_x
_atom_site_fract_y
_atom_site_fract_z
_atom_type_partial_charge
O1    O     O_R   0.638180 0.333920 0.163320 -0.545279
O2    O     O_R   0.361820 0.666080 0.836680 -0.542441
O3    O     O_R   0.308470 0.344960 0.336080 -0.541681
O4    O     O_R   0.691530 0.655040 0.663920 -0.541357
O5    O     O_R   0.138140 0.166110 0.336680 -0.535650
O6    O     O_R   0.861860 0.833890 0.663320 -0.544273
C1    C     C_R   0.477535 0.367737 0.364233 0.729871
C2    C     C_R   0.522262 0.633430 0.633996 0.738880
O7    O     O_R   0.308460 0.344950 0.163930 -0.547386
O8    O     O_R   0.691540 0.655050 0.836070 -0.544454
O9    O     O_R   0.138140 0.166100 0.163310 -0.545151
O10   O     O_R   0.861860 0.833900 0.836690 -0.546214
C3    C     C_R   0.477950 0.367551 0.135259 0.668281
C4    C     C_R   0.522127 0.632946 0.865191 0.680125
O11   O     O_R   0.638180 0.333930 0.336700 -0.514014
O12   O     O_R   0.361820 0.666070 0.663300 -0.509680
O13   O     O_3   0.471670 0.191340 0.250000 -0.372941
O14   O     O_3   0.528330 0.808660 0.750000 -0.378277
V1    V     V_3+5 0.196830 0.260900 0.250000 1.413357
V2    V     V_3+5 0.803170 0.739100 0.750000 1.418815
O15   O     O_R   0.808420 0.155070 0.163920 -0.544968
O16   O     O_R   0.191580 0.844930 0.836080 -0.545661
C5    C     C_R   0.977815 0.132710 0.134999 0.669822
C6    C     C_R   0.022185 0.867282 0.865010 0.668203
O17   O     O_R   0.808420 0.155080 0.336070 -0.541837
O18   O     O_R   0.191580 0.844920 0.663930 -0.542792
C7    C     C_R   0.976554 0.133995 0.365363 0.703335
C8    C     C_R   0.024441 0.868828 0.636390 0.683029
V3    V     V_3+5 0.696830 0.239130 0.250000 1.428325
V4    V     V_3+5 0.303170 0.760870 0.750000 1.431865
O19   O     O_3   0.971850 0.308690 0.250010 -0.361828
O20   O     O_3   0.028150 0.691310 0.749990 -0.356295
H1    H     H_    0.461220 0.906741 0.294730 0.108533
H2    H     H_    0.563228 0.108714 0.711097 0.113971
C9    C     C_R   0.746644 0.151776 0.518156 -0.133110
C10   C     C_R   0.304546 0.872113 0.493323 -0.142000
C11   C     C_R   0.633931 0.161816 0.589908 -0.121641
C12   C     C_R   0.418609 0.864297 0.421649 -0.152823
C13   C     C_R   0.647800 0.099487 0.654538 -0.120784
C14   C     C_R   0.377717 0.915749 0.351615 -0.115709
C15   C     C_R   0.774919 0.026846 0.647963 -0.131483
C16   C     C_R   0.229140 0.978780 0.354422 -0.121795
C17   C     C_R   0.887049 0.012603 0.574492 0.070542
C18   C     C_R   0.121264 0.994044 0.428958 0.064018
C19   C     C_R   0.872063 0.076539 0.507859 0.071280
C20   C     C_R   0.149493 0.935149 0.498447 0.069940
C21   C     C_R   0.020753 0.939595 0.568953 -0.197734
C22   C     C_R   0.986158 0.066004 0.434203 -0.198800
H3    H     H_    0.735859 0.205225 0.472327 0.126972
H4    H     H_    0.341617 0.825846 0.542374 0.143753
H5    H     H_    0.538300 0.219467 0.596081 0.118156
H6    H     H_    0.535265 0.815480 0.419579 0.105269
H7    H     H_    0.787738 0.984408 0.702706 0.121663
H8    H     H_    0.199747 0.014524 0.296858 0.114397
C23   C     C_R   0.179503 0.973732 0.967825 -0.155828
C24   C     C_R   0.820498 0.026236 0.032203 -0.155905
H9    H     H_    0.320465 0.954543 0.944179 0.114876
H10   H     H_    0.679537 0.045423 0.055852 0.115115
C25   C     C_R   0.168746 0.037115 0.033027 -0.156651
C26   C     C_R   0.831255 0.962855 0.967000 -0.157488
H11   H     H_    0.301820 0.064863 0.057353 0.117149
H12   H     H_    0.698182 0.935105 0.942675 0.116435
C27   C     C_R   0.989081 0.064351 0.066214 -0.044216
C28   C     C_R   0.010920 0.935626 0.933807 -0.043675
C29   C     C_R   0.321430 0.469393 0.470192 -0.324224
C30   C     C_R   0.677674 0.530106 0.526807 -0.309978
H13   H     H_    0.181609 0.445654 0.450005 0.208974
H14   H     H_    0.817236 0.549886 0.549847 0.223947
C31   C     C_R   0.329786 0.540369 0.528544 0.446371
C32   C     C_R   0.667588 0.477048 0.453826 0.434522
C33   C     C_R   0.509302 0.565600 0.564040 -0.216372
C34   C     C_R   0.489380 0.437564 0.431101 -0.227359
C35   C     C_R   0.320686 0.475038 0.033520 -0.156965
C36   C     C_R   0.679549 0.526549 0.967946 -0.153402
H15   H     H_    0.179819 0.456306 0.057747 0.114084
H16   H     H_    0.820432 0.545394 0.943836 0.117361
C37   C     C_R   0.331351 0.538434 0.968231 -0.152132
C38   C     C_R   0.668896 0.463157 0.033237 -0.157559
H17   H     H_    0.198333 0.566678 0.944361 0.118095
H18   H     H_    0.801925 0.435026 0.057219 0.114194
C39   C     C_R   0.510909 0.564963 0.934326 -0.045293
C40   C     C_R   0.489280 0.436267 0.066811 -0.044283
O21   O     O_3   0.165261 0.591068 0.542704 -0.547939
C41   C     C_3   0.143193 0.649987 0.473170 0.098960
H19   H     H_    0.123029 0.611868 0.414201 0.140248
H20   H     H_    0.273553 0.693062 0.465392 0.098291
C42   C     C_3   0.968410 0.710976 0.485136 -0.731322
H21   H     H_    0.983434 0.773237 0.446775 0.182441
H22   H     H_    0.833782 0.677739 0.465553 0.184483
H23   H     H_    0.952781 0.727626 0.551747 0.249281
O22   O     O_3   0.829256 0.469653 0.402564 -0.549731
C43   C     C_3   0.803133 0.527257 0.332016 0.130743
H24   H     H_    0.784446 0.598687 0.351870 0.089001
H25   H     H_    0.672948 0.508479 0.295400 0.088865
C44   C     C_3   0.977179 0.522815 0.272962 -0.676297
H26   H     H_    0.110905 0.504796 0.306909 0.215699
H27   H     H_    0.951908 0.472353 0.222949 0.213333
H28   H     H_    0.998861 0.589553 0.242046 0.149804

loop_
_geom_bond_atom_site_label_1
_geom_bond_atom_site_label_2
_ccdc_geom_bond_type
C7    C22   S    
C30   H14   S    
C42   H21   S    
C8    C21   S    
C23   C25   A    
C44   H26   S    
O13   V3    S    
C32   O22   S    
C41   C42   S    
O4    C2    A    
V1    O19   S    
C44   H28   S    
C13   C15   A    
O9    V1    S    
C36   H16   S    
C9    C11   A    
C41   H20   S    
O3    C1    A    
C11   H5    S    
C38   H18   S    
C12   H6    S    
O12   V4    S    
C26   H12   S    
C31   C33   A    
O7    C3    A    
O5    C7    A    
O7    V1    S    
O6    C8    A    
C30   C33   A    
O8    V2    S    
C29   H13   S    
C9    H3    S    
O3    V1    S    
O14   V4    S    
V4    O20   S    
C5    C27   S    
C2    O12   A    
C15   C17   A    
C16   C18   A    
O1    V3    S    
C18   C20   A    
O11   V3    S    
C37   H17   S    
O17   V3    S    
C25   H11   S    
H1    C14   S    
H2    C13   S    
C41   H19   S    
O8    C4    A    
C1    C34   S    
C1    O11   A    
O15   V3    S    
C3    C40   S    
C43   C44   S    
C24   C26   A    
C31   O21   S    
C38   C40   A    
O21   C41   S    
C37   C39   A    
C23   C28   A    
O10   V2    S    
C43   H25   S    
C24   C27   A    
C10   C20   A    
C17   C19   A    
C15   H7    S    
O18   V4    S    
C23   H9    S    
O16   C6    A    
O1    C3    A    
C35   H15   S    
C36   C39   A    
C10   C12   A    
C9    C19   A    
C35   C40   A    
O22   C43   S    
C10   H4    S    
V2    O20   S    
C19   C22   A    
C20   C21   A    
C2    C33   S    
O16   V4    S    
O18   C8    A    
C14   C16   A    
C44   H27   S    
O5    V1    S    
O17   C7    A    
C29   C34   A    
O6    V2    S    
O10   C6    A    
C25   C27   A    
O2    V4    S    
C26   C28   A    
O15   C5    A    
C11   C13   A    
C16   H8    S    
C12   C14   A    
C30   C32   A    
C29   C31   A    
O9    C5    A    
C43   H24   S    
O13   V1    S    
C24   H10   S    
C6    C28   S    
O14   V2    S    
O2    C4    A    
O4    V2    S    
V3    O19   S    
C36   C38   A    
C42   H23   S    
C42   H22   S    
C35   C37   A    
C32   C34   A    
C4    C39   S    
C17   C21   A    
C18   C22   A    
