data_mof_unit_47945.cif
_audit_creation_date              2012-12-11T19:58:04-0500
_audit_creation_method            fapswitch 2.2
_symmetry_space_group_name_H-M    P1
_symmetry_Int_Tables_number       1
_space_group_crystal_system       triclinic
_cell_length_a                    8.196873
_cell_length_b                    16.277564
_cell_length_c                    22.996527
_cell_angle_alpha                 108.240732
_cell_angle_beta                  89.158705
_cell_angle_gamma                 83.972508
_cell_volume                      2894.3455724

loop_
_atom_site_label
_atom_site_type_symbol
_atom_type_description
_atom_site_fract_x
_atom_site_fract_y
_atom_site_fract_z
_atom_type_partial_charge
Ba1   Ba    Ba6+2 0.335320 0.541410 0.478120 1.659880
Ba2   Ba    Ba6+2 0.854470 0.458670 0.521900 1.656473
C1    C     C_3   0.027393 0.859996 0.372379 -0.362285
C2    C     C_3   0.038603 0.770236 0.380176 0.353767
C3    C     C_3   0.062188 0.333451 0.326531 0.295832
C4    C     C_3   0.057379 0.310430 0.257220 -0.366441
C5    C     C_3   0.659506 0.271230 0.653379 0.303264
C6    C     C_3   0.684723 0.247342 0.711645 -0.267723
C7    C     C_3   0.177478 0.234930 0.653136 0.661763
C8    C     C_3   0.125142 0.143740 0.623792 -0.102386
C9    C     C_R   0.831833 0.523898 0.335962 -0.300548
C10   C     C_R   0.618026 0.563526 0.947110 -0.007970
C11   C     C_R   0.585880 0.557936 0.885645 0.596195
C12   C     C_3   0.527934 0.725450 0.344473 0.321992
C13   C     C_R   0.484972 0.420845 0.869571 0.603241
C14   C     C_R   0.523429 0.421987 0.930166 -0.036385
C15   C     C_R   0.586884 0.495275 0.969482 -0.118179
C16   C     C_R   0.683546 0.636175 0.986584 -0.069748
C17   C     C_R   0.715285 0.641411 0.047100 -0.076242
C18   C     C_R   0.688050 0.572856 0.069799 -0.002701
C19   C     C_R   0.626085 0.499021 0.030551 -0.056373
C20   C     C_R   0.501280 0.351169 0.952306 0.421320
C21   C     C_R   0.543936 0.355184 0.012321 -0.139789
C22   C     C_R   0.606117 0.428498 0.051874 -0.063253
C23   C     C_3   0.500428 0.749171 0.286242 -0.324796
C24   C     C_R   0.651386 0.431793 0.111905 0.610878
C25   C     C_R   0.722668 0.576677 0.130725 0.571916
C26   C     C_2   0.317526 0.445343 0.762036 -0.098553
C27   C     C_3   0.299596 0.417759 0.693592 -0.026616
C28   C     C_1   0.486111 0.524146 0.690037 0.056596
C29   C     C_2   0.493570 0.551675 0.751352 0.122406
C30   C     C_2   0.440060 0.493305 0.787727 0.151534
C31   C     C_R   0.893515 0.546045 0.239018 -0.098465
C32   C     C_R   0.931173 0.554593 0.299740 -0.015998
C33   C     C_R   0.697313 0.481739 0.312167 0.033422
C34   C     C_3   0.612439 0.725131 0.627117 0.307935
C35   C     C_R   0.653219 0.476622 0.251943 -0.098498
C36   C     C_R   0.750162 0.509795 0.214311 0.190274
C37   C     C_2   0.391790 0.465413 0.660214 -0.330952
C38   C     C_2   0.396131 0.237686 0.488542 -0.288071
C39   C     C_R   0.803268 0.750657 0.510657 -0.382880
C40   C     C_2   0.251661 0.121850 0.422250 -0.114423
C41   C     C_2   0.265343 0.206983 0.446322 0.053576
C42   C     C_2   0.523528 0.182341 0.494444 0.030721
C43   C     C_3   0.533226 0.086799 0.456738 0.062774
C44   C     C_3   0.363327 0.056011 0.440320 -0.011434
C45   C     C_3   0.587773 0.823669 0.656052 -0.354252
C46   C     C_2   0.644728 0.027567 0.481705 -0.101293
C47   C     C_2   0.593426 0.962508 0.498752 -0.078466
C48   C     C_R   0.845628 0.926832 0.548867 -0.063963
C49   C     C_R   0.709761 0.898914 0.515044 -0.064294
C50   C     C_R   0.956931 0.867842 0.565833 0.333709
C51   C     C_R   0.935276 0.779133 0.546103 0.067549
C52   C     C_R   0.685430 0.810364 0.497952 0.005320
C53   C     C_3   0.620037 0.266322 0.366063 0.337561
C54   C     C_3   0.721212 0.178906 0.334207 0.160838
C55   C     C_3   0.124362 0.652420 0.668901 0.302615
C56   C     C_3   0.084586 0.668851 0.736651 -0.338953
H1    H     H_    0.107257 0.772459 0.421847 0.080809
H2    H     H_    0.673460 0.844015 0.693527 0.124572
H3    H     H_    0.611000 0.856107 0.621574 0.059323
H4    H     H_    0.459383 0.845095 0.675052 0.152053
H5    H     H_    0.495225 0.254841 0.378028 -0.039178
H6    H     H_    0.678160 0.299966 0.408684 0.080182
H7    H     H_    0.651698 0.139995 0.296037 0.053786
H8    H     H_    0.838736 0.190356 0.314889 0.071252
H9    H     H_    0.258910 0.642357 0.660169 0.004636
H10   H     H_    0.070578 0.592554 0.643183 0.067504
H11   H     H_    0.152353 0.877786 0.366588 0.142664
H12   H     H_    0.140613 0.726748 0.764628 0.129759
H13   H     H_    0.133093 0.611379 0.749899 0.072511
H14   H     H_    0.949356 0.680384 0.746036 0.138410
H15   H     H_    0.911841 0.754999 0.386435 -0.053504
H16   H     H_    0.963925 0.909044 0.413592 0.070366
H17   H     H_    0.934612 0.350977 0.346544 -0.010195
H18   H     H_    0.132808 0.390127 0.343717 0.067537
H19   H     H_    0.984649 0.254884 0.238799 0.125026
H20   H     H_    0.999851 0.366884 0.244727 0.067820
H21   H     H_    0.184147 0.292341 0.236103 0.136732
H22   H     H_    0.956987 0.860548 0.331582 0.120318
H23   H     H_    0.533181 0.690686 0.245875 0.122574
H24   H     H_    0.718296 0.331371 0.658107 0.091229
H25   H     H_    0.526044 0.283406 0.648038 -0.003276
H26   H     H_    0.814524 0.221859 0.713774 0.117564
H27   H     H_    0.655009 0.306347 0.751731 0.128188
H28   H     H_    0.604856 0.197100 0.713509 0.159522
H29   H     H_    0.258473 0.246545 0.617811 -0.049304
H30   H     H_    0.052844 0.143422 0.583293 0.134250
H31   H     H_    0.468550 0.665880 0.340406 0.097927
H32   H     H_    0.045823 0.126639 0.656832 0.095517
H33   H     H_    0.527280 0.300425 0.028185 0.118275
H34   H     H_    0.763784 0.699064 0.075845 0.120961
H35   H     H_    0.976418 0.567661 0.211285 0.122915
H36   H     H_    0.708470 0.690149 0.971040 0.119477
H37   H     H_    0.243870 0.415673 0.787553 0.149717
H38   H     H_    0.544430 0.446738 0.234788 0.139135
H39   H     H_    0.864492 0.528915 0.382263 0.081890
H40   H     H_    0.662161 0.711813 0.348641 -0.041355
H41   H     H_    0.392252 0.443079 0.610537 0.086094
H42   H     H_    0.156621 0.099612 0.390604 0.083429
H43   H     H_    0.393434 0.307097 0.511592 0.055282
H44   H     H_    0.786069 0.682330 0.496704 0.088287
H45   H     H_    0.774679 0.035164 0.481664 0.118979
H46   H     H_    0.464963 0.952290 0.496954 0.129030
H47   H     H_    0.369359 0.773059 0.284330 0.147172
H48   H     H_    0.577481 0.800718 0.284697 0.121114
H49   H     H_    0.741729 0.703930 0.610920 -0.008309
H50   H     H_    0.531303 0.706795 0.588063 0.073952
N1    N     N_R   0.501883 0.492086 0.848670 -0.430481
N2    N     N_R   0.706014 0.506202 0.151725 -0.422257
O1    O     O_2   0.414630 0.451750 0.353890 -0.450254
O2    O     O_3   0.059741 0.725611 0.653378 -0.609116
O3    O     O_3   0.457544 0.794678 0.394798 -0.607051
O4    O     O_2   0.775060 0.548280 0.646150 -0.458242
O5    O     O_3   0.534950 0.547420 0.574950 -0.504926
O6    O     O_3   0.073530 0.388570 0.588510 -0.471162
O7    O     O_3   0.574520 0.687910 0.671871 -0.623342
O8    O     O_3   0.168220 0.394330 0.455930 -0.483184
O9    O     O_3   0.678190 0.343400 0.553390 -0.499895
O10   O     O_2   0.862628 0.192408 0.498506 -0.440043
O11   O     O_3   0.730795 0.202272 0.603314 -0.614367
O12   O     O_3   0.654720 0.452660 0.425060 -0.505570
O13   O     O_3   0.021450 0.605740 0.544090 -0.508035
O14   O     O_2   0.953100 0.285520 0.441860 -0.443342
O15   O     O_3   0.137316 0.261132 0.340715 -0.641329
O16   O     O_2   0.951592 0.465777 0.703694 -0.481941
O17   O     O_3   0.037020 0.297273 0.670308 -0.616334
O18   O     O_2   0.638910 0.610739 0.865121 -0.612290
O19   O     O_2   0.441899 0.354248 0.834819 -0.535395
O20   O     O_2   0.645188 0.367403 0.128016 -0.597234
O21   O     O_2   0.766855 0.643482 0.165106 -0.615146
O22   O     O_3   0.116150 0.611500 0.411510 -0.495354
O23   O     O_2   0.271703 0.550609 0.300855 -0.498162
O24   O     O_3   0.607830 0.312738 0.323997 -0.663424
O25   O     O_3   0.121319 0.708662 0.328205 -0.597175
O26   O     O_2   0.236590 0.714510 0.558180 -0.433382
O27   O     O_3   0.511480 0.656670 0.446630 -0.499198
O28   O     O_2   0.345739 0.810952 0.504983 -0.448229
P1    P     P_3+3 0.594550 0.425840 0.359090 0.980815
P2    P     P_3+3 0.065650 0.701630 0.573510 1.045300
P3    P     P_3+3 0.499070 0.768981 0.461864 0.950680
P4    P     P_3+3 0.595130 0.574230 0.640920 0.998187
P5    P     P_3+3 0.699264 0.229922 0.536395 0.978514
P6    P     P_3+3 0.111552 0.604642 0.334113 0.948806
P7    P     P_3+3 0.135660 0.285731 0.420444 0.968132
P8    P     P_3+3 0.089500 0.396672 0.665769 0.961237
O29   O     O_3   0.755054 0.133232 0.375720 -0.746869
H51   H     H_    0.822266 0.078022 0.352354 0.297337
O30   O     O_3   0.268163 0.237006 0.704837 -0.751530
H52   H     H_    0.190583 0.232440 0.736954 0.322221
N3    N     N_3   0.267391 0.077679 0.603794 -0.508568
H53   H     H_    0.330816 0.073885 0.642162 0.223179
H54   H     H_    0.346804 0.096855 0.575798 0.165698
O31   O     O_3   0.437699 0.278501 0.915029 -0.665224
H55   H     H_    0.430134 0.235765 0.937362 0.298069
N4    N     N_3   0.460560 0.644568 0.778999 -0.498487
H56   H     H_    0.571750 0.671537 0.784527 0.242322
H57   H     H_    0.395886 0.660521 0.821304 0.200162
O32   O     O_3   0.083996 0.895966 0.602785 -0.693622
H58   H     H_    0.074803 0.960316 0.614596 0.315460

loop_
_geom_bond_atom_site_label_1
_geom_bond_atom_site_label_2
_ccdc_geom_bond_type
O22   P6    S    
C5    H25   S    
C53   C54   S    
C34   H50   S    
C51   P2    S    
O9    P5    S    
O2    P2    S    
C17   C18   A    
C9    C32   A    
O26   P2    D    
Ba1   O22   S    
C45   H4    S    
C29   N4    S    
O16   P8    D    
O1    P1    D    
C5    C6    S    
C43   C44   S    
C42   C43   S    
C8    H30   S    
C7    O17   S    
C26   H37   S    
O4    P4    D    
N4    H56   S    
C1    H11   S    
C55   H9    S    
O12   P1    S    
Ba1   Ba2   S    
O32   H58   S    
C28   C29   D    
C56   H13   S    
C4    H20   S    
C55   O2    S    
C54   H7    S    
C53   O24   S    
C25   O21   D    
C39   H44   S    
C34   C45   S    
C6    H27   S    
C40   C44   S    
C1    H16   S    
O11   P5    S    
Ba1   O12   S    
C11   N1    Am   
C17   H34   S    
C33   P1    S    
C45   H2    S    
C11   O18   D    
Ba2   O6    S    
C38   C41   S    
O29   H51   S    
C25   N2    Am   
O3    P3    S    
C14   C15   A    
C47   C49   S    
C53   H5    S    
C10   C15   A    
C48   C50   A    
C21   C22   A    
C36   N2    S    
Ba1   O26   S    
C7    C8    S    
C24   N2    Am   
C24   O20   D    
C50   O32   S    
C38   H43   S    
O5    P4    S    
Ba1   O1    S    
C34   H49   S    
C23   H23   S    
O10   P5    D    
C5    O11   S    
C1    H22   S    
C23   H48   S    
C12   H40   S    
C55   C56   S    
Ba2   O12   S    
Ba2   O8    S    
C30   N1    S    
C23   H47   S    
C26   C30   D    
C27   P8    S    
C16   C17   A    
C4    H19   S    
C5    H24   S    
Ba2   O13   S    
C46   H45   S    
O13   P2    S    
C15   C19   A    
C35   H38   S    
C31   H35   S    
C3    H17   S    
Ba1   O13   S    
C12   H31   S    
C35   C36   A    
C41   P7    S    
C40   H42   S    
C8    N3    S    
Ba2   O5    S    
C37   H41   S    
C29   C30   S    
C13   O19   D    
N3    H53   S    
C7    O30   S    
C53   H6    S    
C27   C37   S    
C48   C49   A    
O31   H55   S    
C10   C11   A    
C34   O7    S    
C39   C51   A    
C2    H15   S    
Ba1   P2    S    
C2    O25   S    
O25   P6    S    
C13   N1    Am   
Ba2   P4    S    
C21   H33   S    
C40   C41   D    
C55   H10   S    
C3    O15   S    
C1    C2    S    
C26   C27   S    
O24   P1    S    
Ba1   O27   S    
C50   C51   A    
C20   O31   S    
C43   C46   S    
O27   P3    S    
C46   C47   D    
O23   P6    D    
C14   C20   A    
C33   C35   A    
C6    H26   S    
O8    P7    S    
C56   H12   S    
C22   C24   A    
O28   P3    D    
Ba1   P1    S    
C45   H3    S    
Ba2   O9    S    
C18   C25   A    
Ba2   O14   S    
C12   O3    S    
O14   P7    D    
C31   C36   A    
C28   P4    S    
C9    H39   S    
C47   H46   S    
C49   C52   A    
C3    H18   S    
N4    H57   S    
O7    P4    S    
O15   P7    S    
O30   H52   S    
C32   P6    S    
O6    P8    S    
Ba2   O4    S    
C56   H14   S    
C4    H21   S    
C3    C4    S    
C54   O29   S    
C42   P5    S    
C54   H8    S    
C2    H1    S    
C9    C33   A    
C31   C32   A    
C28   C37   D    
C6    H28   S    
Ba1   O8    S    
N3    H54   S    
C12   C23   S    
C39   C52   A    
O17   P8    S    
C38   C42   D    
C52   P3    S    
C18   C19   A    
C8    H32   S    
C19   C22   A    
C10   C16   A    
C16   H36   S    
C20   C21   A    
Ba1   O5    S    
C7    H29   S    
C13   C14   A    
