data_mof_unit_14096.cif
_audit_creation_date              2012-12-10T18:06:37-0500
_audit_creation_method            fapswitch 2.2
_symmetry_space_group_name_H-M    P1
_symmetry_Int_Tables_number       1
_space_group_crystal_system       triclinic
_cell_length_a                    12.623368
_cell_length_b                    13.118216
_cell_length_c                    15.492629
_cell_angle_alpha                 83.244394
_cell_angle_beta                  100.45502
_cell_angle_gamma                 96.662892
_cell_volume                      2493.60506695

loop_
_atom_site_label
_atom_site_type_symbol
_atom_type_description
_atom_site_fract_x
_atom_site_fract_y
_atom_site_fract_z
_atom_type_partial_charge
C1    C     C_R   0.442119 0.308811 0.506454 0.864792
C2    C     C_R   0.682704 0.546830 0.930014 0.176923
C3    C     C_R   0.570485 0.536639 0.896363 0.092264
C4    C     C_R   0.435100 0.514949 0.335620 0.846217
C5    C     C_R   0.757552 0.532984 0.876365 -0.205024
C6    C     C_R   0.721301 0.509721 0.789515 -0.203499
C7    C     C_R   0.536433 0.503482 0.812756 -0.263643
C8    C     C_R   0.640626 0.942963 0.368967 -0.203898
C9    C     C_R   0.580825 0.801128 0.468465 -0.052952
C10   C     C_R   0.329482 0.158746 0.563644 -0.190727
C11   C     C_R   0.305503 0.051965 0.579361 0.228173
C12   C     C_R   0.451493 0.562213 0.094077 0.089599
C13   C     C_R   0.364571 0.987151 0.545258 -0.277337
C14   C     C_R   0.442720 0.027510 0.491880 0.065866
C15   C     C_R   0.451389 0.133524 0.464431 0.091119
C16   C     C_R   0.555558 0.691488 0.488841 0.856584
C17   C     C_R   0.512348 0.965835 0.464467 0.097584
C18   C     C_R   0.574624 0.005981 0.398283 0.179173
C19   C     C_R   0.568587 0.107719 0.361650 -0.258326
C20   C     C_R   0.507758 0.171032 0.394453 -0.193463
C21   C     C_R   0.523575 0.865737 0.502985 -0.259404
C22   C     C_R   0.642096 0.839786 0.402860 -0.194249
C23   C     C_R   0.340327 0.562593 0.056399 0.183167
C24   C     C_R   0.404443 0.199346 0.508668 -0.171815
C25   C     C_R   0.145625 0.605089 0.649776 -0.325583
C26   C     C_R   0.757885 0.380231 0.395880 0.024486
C27   C     C_R   0.853894 0.350615 0.379652 -0.246280
C28   C     C_R   0.566161 0.488455 0.663979 0.861969
C29   C     C_R   0.951431 0.395127 0.422874 -0.219938
C30   C     C_R   0.952318 0.471323 0.480329 0.006303
C31   C     C_R   0.853610 0.492310 0.500259 0.241478
C32   C     C_R   0.048368 0.523237 0.521971 -0.034120
C33   C     C_R   0.047739 0.572091 0.598357 0.177027
C34   C     C_R   0.530522 0.566400 0.038823 0.067266
C35   C     C_R   0.949370 0.590057 0.619500 -0.285533
C36   C     C_R   0.853241 0.556250 0.566890 -0.217868
C37   C     C_R   0.145057 0.532881 0.488657 0.240061
C38   C     C_R   0.241534 0.588468 0.623816 -0.033106
C39   C     C_R   0.399745 0.533760 0.239921 -0.048645
C40   C     C_R   0.609956 0.495988 0.757374 -0.057152
C41   C     C_R   0.261246 0.552072 0.110396 -0.204919
C42   C     C_R   0.290719 0.535881 0.201491 -0.212968
C43   C     C_R   0.479041 0.549015 0.185993 -0.263293
C44   C     C_3   0.222080 0.002617 0.634812 -0.413004
C45   C     C_R   0.494821 0.555839 0.948107 0.071213
C46   C     C_3   0.157241 0.077366 0.667422 -0.877541
C47   C     C_3   0.142979 0.550858 0.390480 -0.422881
C48   C     C_3   0.189642 0.661102 0.364611 -0.792493
C49   C     C_R   0.384715 0.565313 0.911733 -0.233695
C50   C     C_R   0.308974 0.569714 0.965290 -0.242001
C51   C     C_R   0.643428 0.578080 0.070895 -0.231639
C52   C     C_R   0.718132 0.570274 0.016580 -0.241062
H1    H     H_    0.224789 0.573965 0.935424 0.141626
H2    H     H_    0.317918 0.608137 0.665390 0.143839
H3    H     H_    0.451704 0.483143 0.789229 0.157034
H4    H     H_    0.946824 0.633220 0.674483 0.152320
H5    H     H_    0.147900 0.640157 0.710103 0.145671
H6    H     H_    0.681317 0.346845 0.362526 0.128911
H7    H     H_    0.025713 0.369176 0.411768 0.145457
H8    H     H_    0.852739 0.293510 0.334342 0.147301
H9    H     H_    0.780301 0.579048 0.581071 0.210958
H10   H     H_    0.779818 0.504344 0.747513 0.158699
H11   H     H_    0.803837 0.579955 0.043181 0.143377
H12   H     H_    0.843775 0.542190 0.900975 0.132023
H13   H     H_    0.176171 0.551996 0.081997 0.131712
H14   H     H_    0.227668 0.521972 0.240636 0.154056
H15   H     H_    0.562116 0.545004 0.216937 0.159760
H16   H     H_    0.355158 0.570925 0.841617 0.140975
H17   H     H_    0.676701 0.596092 0.137109 0.145821
H18   H     H_    0.211329 0.127647 0.713180 0.257117
H19   H     H_    0.114160 0.125198 0.610855 0.262949
H20   H     H_    0.096019 0.032843 0.703862 0.255129
H21   H     H_    0.163767 0.948893 0.594987 0.209855
H22   H     H_    0.263722 0.956101 0.693058 0.206122
H23   H     H_    0.686404 0.789513 0.375053 0.157778
H24   H     H_    0.139172 0.717144 0.381897 0.235625
H25   H     H_    0.273580 0.677927 0.399155 0.295577
H26   H     H_    0.188749 0.673496 0.292435 0.233835
H27   H     H_    0.183686 0.489982 0.370424 0.213497
H28   H     H_    0.059662 0.545006 0.352356 0.195707
H29   H     H_    0.612599 0.138979 0.309008 0.141110
H30   H     H_    0.687513 0.972345 0.317738 0.136916
H31   H     H_    0.485135 0.834554 0.558526 0.148821
H32   H     H_    0.292409 0.210894 0.595521 0.173578
H33   H     H_    0.345297 0.905129 0.558994 0.136419
H34   H     H_    0.503895 0.249199 0.363659 0.155672
N1    N     N_R   0.239390 0.551900 0.544730 -0.101587
N2    N     N_R   0.759950 0.448600 0.455730 -0.130973
O1    O     O_R   0.374950 0.371210 0.521360 -0.611927
O2    O     O_R   0.542050 0.338030 0.492790 -0.601465
O3    O     O_R   0.368720 0.526070 0.390200 -0.612106
O4    O     O_R   0.535820 0.492890 0.361630 -0.628453
O5    O     O_R   0.457950 0.661970 0.507210 -0.617997
O6    O     O_R   0.625050 0.628790 0.478640 -0.632710
O7    O     O_R   0.464180 0.507110 0.638370 -0.622534
O8    O     O_R   0.631280 0.473930 0.609800 -0.626185
Zn1   Zn    Zn3+2 0.388420 0.522150 0.519080 0.922411
Zn2   Zn    Zn3+2 0.611580 0.477850 0.480920 0.925071

loop_
_geom_bond_atom_site_label_1
_geom_bond_atom_site_label_2
_ccdc_geom_bond_type
C1    O2    A    
C49   H16   S    
C27   C29   A    
C41   C42   A    
C48   H24   S    
C19   C20   A    
C7    H3    S    
O4    Zn2   S    
C12   C23   A    
C34   C51   A    
C28   O7    A    
C8    H30   S    
C47   H28   S    
C9    C16   S    
C12   C43   A    
C3    C7    A    
C27   H8    S    
C30   C31   A    
C9    C22   A    
C28   C40   S    
C18   C19   A    
C48   H26   S    
C21   H31   S    
O8    Zn2   S    
C20   H34   S    
C8    C22   A    
C7    C40   A    
C47   H27   S    
C37   C47   S    
C46   H20   S    
C4    O3    A    
C13   C14   A    
C14   C17   A    
C25   H5    S    
C22   H23   S    
C44   C46   S    
C39   C42   A    
C15   C20   A    
C50   H1    S    
C51   C52   A    
C29   H7    S    
C23   C50   A    
C41   H13   S    
C10   C24   A    
C3    C45   A    
C8    C18   A    
C5    H12   S    
O1    Zn1   S    
C35   C36   A    
C48   H25   S    
C29   C30   A    
C25   C38   A    
C47   C48   S    
C38   H2    S    
C4    C39   S    
C45   C49   A    
C17   C18   A    
C16   O5    A    
C11   C44   S    
C34   C45   A    
C32   C37   A    
O3    Zn1   S    
C44   H22   S    
C26   H6    S    
C46   H19   S    
C2    C52   A    
C26   N2    A    
C15   C24   A    
C26   C27   A    
C6    C40   A    
C2    C5    A    
C12   C34   A    
C36   H9    S    
O5    Zn1   S    
C1    O1    A    
C31   N2    A    
C35   H4    S    
C14   C15   A    
C37   N1    A    
C52   H11   S    
C39   C43   A    
O7    Zn1   S    
C16   O6    A    
C23   C41   A    
C38   N1    A    
C28   O8    A    
C32   C33   A    
C6    H10   S    
C2    C3    A    
C30   C32   A    
C11   C13   A    
C9    C21   A    
C5    C6    A    
C10   H32   S    
C33   C35   A    
C44   H21   S    
C17   C21   A    
C46   H18   S    
C10   C11   A    
C1    C24   S    
C43   H15   S    
C49   C50   A    
C13   H33   S    
C42   H14   S    
O6    Zn2   S    
C31   C36   A    
C51   H17   S    
N1    Zn1   S    
C19   H29   S    
O2    Zn2   S    
N2    Zn2   S    
C25   C33   A    
C4    O4    A    
