data_mof_unit_17609.cif
_audit_creation_date              2012-10-26T17:44:59-0400
_audit_creation_method            fapswitch 2.2
_symmetry_space_group_name_H-M    P1
_symmetry_Int_Tables_number       1
_space_group_crystal_system       triclinic
_cell_length_a                    32.236968
_cell_length_b                    32.237036
_cell_length_c                    30.260798
_cell_angle_alpha                 89.999527
_cell_angle_beta                  89.999151
_cell_angle_gamma                 89.999841
_cell_volume                      31447.7565522

loop_
_atom_site_label
_atom_site_type_symbol
_atom_type_description
_atom_site_fract_x
_atom_site_fract_y
_atom_site_fract_z
_atom_type_partial_charge
C1    C     C_R   0.420462 0.000000 0.999997 0.539828
C2    C     C_R   0.967312 0.728004 0.019641 -0.098910
C3    C     C_R   1.000000 0.500000 0.634095 -0.003517
C4    C     C_R   0.000002 0.500003 0.865907 -0.003475
C5    C     C_R   0.499996 0.000003 0.865910 -0.003412
C6    C     C_R   0.999997 0.500004 0.134095 -0.003507
C7    C     C_R   0.499999 1.000000 0.134092 -0.003452
C8    C     C_R   0.525747 0.971909 0.296636 -0.042194
C9    C     C_R   0.971832 0.474332 0.296641 -0.042177
C10   C     C_R   0.474257 0.028101 0.296636 -0.042184
C11   C     C_R   0.028151 0.525685 0.296639 -0.042179
C12   C     C_R   0.525782 0.028064 0.703366 -0.042193
C13   C     C_R   0.728004 0.032661 0.019690 -0.098883
C14   C     C_R   0.971884 0.525724 0.703362 -0.042186
C15   C     C_R   0.474193 0.971964 0.703368 -0.042199
C16   C     C_R   0.028121 0.474282 0.703362 -0.042188
C17   C     C_R   0.025681 0.471846 0.796641 -0.042183
C18   C     C_R   0.471762 0.974408 0.796647 -0.042166
C19   C     C_R   0.974327 0.528166 0.796641 -0.042176
C20   C     C_R   0.528214 0.025617 0.796645 -0.042170
C21   C     C_R   0.025713 0.528127 0.203360 -0.042181
C22   C     C_R   0.471817 0.025654 0.203357 -0.042170
C23   C     C_R   0.974269 0.471892 0.203362 -0.042187
C24   C     C_R   0.032590 0.271994 0.019824 -0.098895
C25   C     C_R   0.528181 0.974349 0.203357 -0.042179
C26   C     C_R   0.500001 0.000004 0.273304 -0.129751
C27   C     C_R   0.999991 0.500009 0.273308 -0.129747
C28   C     C_R   0.499987 0.000014 0.726699 -0.129754
C29   C     C_R   0.000003 0.500004 0.726694 -0.129748
C30   C     C_R   0.000004 0.500006 0.773309 -0.129748
C31   C     C_R   0.499987 0.000013 0.773314 -0.129746
C32   C     C_R   0.999991 0.500010 0.226693 -0.129752
C33   C     C_R   0.500000 0.000003 0.226689 -0.129748
C34   C     C_R   0.554288 0.946957 0.273078 0.273143
C35   C     C_R   0.271996 0.032749 0.980467 -0.098893
C36   C     C_R   0.946808 0.445856 0.273082 0.273140
C37   C     C_R   0.445716 0.053052 0.273078 0.273147
C38   C     C_R   0.053172 0.554164 0.273080 0.273142
C39   C     C_R   0.554365 0.052967 0.726923 0.273148
C40   C     C_R   0.946909 0.554245 0.726920 0.273151
C41   C     C_R   0.445605 0.947066 0.726926 0.273147
C42   C     C_R   0.053098 0.445765 0.726920 0.273144
C43   C     C_R   0.054160 0.446825 0.773082 0.273145
C44   C     C_R   0.446663 0.945998 0.773087 0.273143
C45   C     C_R   0.945849 0.553188 0.773082 0.273149
C46   C     C_R   0.967409 0.271994 0.980170 -0.098888
C47   C     C_R   0.553306 0.054033 0.773085 0.273147
C48   C     C_R   0.054231 0.553103 0.226918 0.273147
C49   C     C_R   0.446772 0.054112 0.226916 0.273151
C50   C     C_R   0.945748 0.446918 0.226921 0.273146
C51   C     C_R   0.553229 0.945894 0.226916 0.273146
C52   C     C_R   0.228408 0.033106 0.980220 0.006559
C53   C     C_R   0.033047 0.771593 0.980106 0.006562
C54   C     C_R   0.771594 0.966979 0.980059 0.006561
C55   C     C_R   0.967056 0.228407 0.979915 0.006555
C56   C     C_R   0.228409 0.966897 0.019781 0.006562
C57   C     C_R   0.728006 0.967333 0.980311 -0.098879
C58   C     C_R   0.032943 0.228407 0.020080 0.006560
C59   C     C_R   0.771592 0.033016 0.019944 0.006555
C60   C     C_R   0.966956 0.771591 0.019892 0.006559
C61   C     C_R   0.728407 0.532950 0.479926 0.006551
C62   C     C_R   0.532945 0.271594 0.479917 0.006554
C63   C     C_R   0.271595 0.467098 0.479836 0.006553
C64   C     C_R   0.467170 0.728406 0.479706 0.006547
C65   C     C_R   0.728407 0.467052 0.520073 0.006554
C66   C     C_R   0.532827 0.728406 0.520294 0.006549
C67   C     C_R   0.271593 0.532899 0.520161 0.006549
C68   C     C_R   0.032690 0.728005 0.980355 -0.098904
C69   C     C_R   0.467058 0.271592 0.520083 0.006552
C70   C     C_R   0.206374 0.000001 0.000000 0.065256
C71   C     C_R   0.000001 0.793627 1.000000 0.065252
C72   C     C_R   0.793627 0.999998 0.000002 0.065251
C73   C     C_R   0.999999 0.206373 0.999998 0.065247
C74   C     C_R   0.706373 0.500001 0.499999 0.065245
C75   C     C_R   0.500001 0.293627 0.500000 0.065245
C76   C     C_R   0.293628 0.499999 0.499999 0.065243
C77   C     C_R   0.499999 0.706372 0.500000 0.065238
C78   C     C_3   0.484607 0.100686 0.359086 0.032721
C79   C     C_R   0.771995 0.467405 0.519817 -0.098892
C80   C     C_3   0.527642 0.099741 0.380839 -0.284787
C81   C     C_3   0.548087 0.142414 0.379791 -0.488474
C82   C     C_3   0.100714 0.515169 0.359085 0.032702
C83   C     C_3   0.099686 0.472152 0.380871 -0.284745
C84   C     C_3   0.142307 0.451599 0.379776 -0.488526
C85   C     C_3   0.515391 0.899321 0.359072 0.032737
C86   C     C_3   0.472357 0.900260 0.380827 -0.284746
C87   C     C_3   0.451896 0.857595 0.379725 -0.488527
C88   C     C_3   0.899278 0.484838 0.359104 0.032692
C89   C     C_3   0.900314 0.527859 0.380881 -0.284778
C90   C     C_R   0.467411 0.228005 0.519827 -0.098914
C91   C     C_3   0.857688 0.548403 0.379824 -0.488500
C92   C     C_3   0.484429 0.899352 0.640943 0.032762
C93   C     C_3   0.527468 0.900216 0.619196 -0.284744
C94   C     C_3   0.547854 0.857516 0.620297 -0.488511
C95   C     C_3   0.100696 0.484690 0.640913 0.032718
C96   C     C_3   0.099723 0.527718 0.619146 -0.284762
C97   C     C_3   0.142375 0.548206 0.620222 -0.488509
C98   C     C_3   0.515553 0.100662 0.640914 0.032744
C99   C     C_3   0.472510 0.099780 0.619177 -0.284798
C100  C     C_3   0.452132 0.142486 0.620220 -0.488460
C101  C     C_R   0.228005 0.532548 0.519902 -0.098887
C102  C     C_3   0.899305 0.515315 0.640917 0.032714
C103  C     C_3   0.900275 0.472290 0.619145 -0.284767
C104  C     C_3   0.857619 0.451809 0.620208 -0.488488
C105  C     C_3   0.984833 0.600722 0.859107 0.032680
C106  C     C_3   0.027854 0.599685 0.880886 -0.284802
C107  C     C_3   0.048388 0.642316 0.879859 -0.488461
C108  C     C_3   0.600749 0.014944 0.859109 0.032650
C109  C     C_3   0.599627 0.971938 0.880916 -0.284776
C110  C     C_3   0.642211 0.951307 0.879872 -0.488497
C111  C     C_3   0.015170 0.399286 0.859094 0.032694
C112  C     C_R   1.000000 0.579538 0.999998 0.539689
C113  C     C_R   0.532478 0.771994 0.520032 -0.098895
C114  C     C_3   0.972150 0.400315 0.880874 -0.284766
C115  C     C_3   0.951605 0.357690 0.879804 -0.488506
C116  C     C_3   0.399239 0.985078 0.859132 0.032638
C117  C     C_3   0.400377 0.028087 0.880933 -0.284815
C118  C     C_3   0.357792 0.048719 0.879922 -0.488462
C119  C     C_3   0.984666 0.399313 0.140913 0.032713
C120  C     C_3   0.027697 0.400281 0.119151 -0.284782
C121  C     C_3   0.048167 0.357620 0.120201 -0.488486
C122  C     C_3   0.600730 0.984912 0.140893 0.032676
C123  C     C_3   0.599666 0.027926 0.119100 -0.284780
C124  C     C_R   0.771994 0.532597 0.480181 -0.098890
C125  C     C_3   0.642278 0.048499 0.120148 -0.488487
C126  C     C_3   0.015319 0.600698 0.140894 0.032698
C127  C     C_3   0.972288 0.599719 0.119134 -0.284818
C128  C     C_3   0.951822 0.642384 0.120146 -0.488443
C129  C     C_3   0.399268 0.015095 0.140888 0.032663
C130  C     C_3   0.400334 0.972081 0.119096 -0.284808
C131  C     C_3   0.357714 0.951521 0.120106 -0.488446
C132  C     C_3   0.616650 0.945731 0.309606 0.048786
C133  C     C_3   0.651156 0.946422 0.274815 -0.265302
C134  C     C_3   0.689968 0.967946 0.292315 -0.501375
C135  C     C_R   0.467519 0.771993 0.479967 -0.098890
C136  C     C_3   0.945423 0.383492 0.309601 0.048797
C137  C     C_3   0.945994 0.348979 0.274816 -0.265294
C138  C     C_3   0.967416 0.310108 0.292308 -0.501387
C139  C     C_3   0.383354 0.054282 0.309609 0.048788
C140  C     C_3   0.348849 0.053589 0.274817 -0.265305
C141  C     C_3   0.310035 0.032070 0.292321 -0.501376
C142  C     C_3   0.054557 0.616524 0.309605 0.048791
C143  C     C_3   0.053969 0.651035 0.274817 -0.265299
C144  C     C_3   0.032549 0.689904 0.292317 -0.501378
C145  C     C_3   0.616732 0.054080 0.690398 0.048786
C146  C     C_R   0.228007 0.467450 0.480093 -0.098878
C147  C     C_3   0.651234 0.053328 0.725192 -0.265304
C148  C     C_3   0.690006 0.031727 0.707699 -0.501379
C149  C     C_3   0.945628 0.616604 0.690385 0.048787
C150  C     C_3   0.946303 0.651108 0.725178 -0.265310
C151  C     C_3   0.967793 0.689937 0.707672 -0.501374
C152  C     C_3   0.383242 0.945962 0.690395 0.048777
C153  C     C_3   0.348742 0.946737 0.725192 -0.265309
C154  C     C_3   0.309976 0.968344 0.707694 -0.501369
C155  C     C_3   0.054381 0.383402 0.690395 0.048789
C156  C     C_3   0.053727 0.348895 0.725186 -0.265302
C157  C     C_R   0.532592 0.228006 0.480171 -0.098909
C158  C     C_3   0.032238 0.310063 0.707687 -0.501380
C159  C     C_3   0.116521 0.445445 0.809607 0.048792
C160  C     C_3   0.151033 0.446034 0.774820 -0.265298
C161  C     C_3   0.189899 0.467463 0.792317 -0.501389
C162  C     C_3   0.445112 0.883633 0.809598 0.048799
C163  C     C_3   0.445575 0.849117 0.774814 -0.265291
C164  C     C_3   0.466895 0.810187 0.792299 -0.501401
C165  C     C_3   0.883487 0.554575 0.809608 0.048796
C166  C     C_3   0.848975 0.553989 0.774822 -0.265298
C167  C     C_3   0.810106 0.532568 0.792323 -0.501391
C168  C     C_R   0.293708 0.000002 0.999999 0.004994
C169  C     C_3   0.554849 0.116392 0.809607 0.048793
C170  C     C_3   0.554345 0.150902 0.774816 -0.265303
C171  C     C_3   0.533018 0.189825 0.792311 -0.501389
C172  C     C_3   0.116595 0.554380 0.190394 0.048793
C173  C     C_3   0.151102 0.553727 0.225184 -0.265302
C174  C     C_3   0.189932 0.532232 0.207689 -0.501393
C175  C     C_3   0.445334 0.116472 0.190389 0.048796
C176  C     C_3   0.445892 0.150985 0.225174 -0.265302
C177  C     C_3   0.467283 0.189871 0.207674 -0.501391
C178  C     C_3   0.883388 0.445648 0.190391 0.048791
C179  C     C_R   0.000001 0.706293 0.999997 0.004994
C180  C     C_3   0.848880 0.446315 0.225181 -0.265310
C181  C     C_3   0.810059 0.467824 0.207684 -0.501386
C182  C     C_3   0.554666 0.883531 0.190395 0.048795
C183  C     C_3   0.554117 0.849018 0.225180 -0.265296
C184  C     C_3   0.532723 0.810132 0.207686 -0.501395
C185  C     C_3   0.205868 0.068816 0.958855 -0.404107
C186  C     C_3   0.068692 0.794132 0.958619 -0.404111
C187  C     C_3   0.794134 0.931364 0.958517 -0.404104
C188  C     C_3   0.931524 0.205867 0.958219 -0.404093
C189  C     C_3   0.205869 0.931188 0.041146 -0.404113
C190  C     C_R   0.706293 0.999998 0.999999 0.005057
C191  C     C_3   0.068475 0.205868 0.041778 -0.404098
C192  C     C_3   0.794130 0.068631 0.041488 -0.404097
C193  C     C_3   0.931311 0.794130 0.041381 -0.404103
C194  C     C_3   0.705868 0.568488 0.458239 -0.404082
C195  C     C_3   0.568479 0.294133 0.458221 -0.404089
C196  C     C_3   0.294134 0.431612 0.458052 -0.404086
C197  C     C_3   0.431763 0.705867 0.457776 -0.404074
C198  C     C_3   0.705868 0.431514 0.541761 -0.404089
C199  C     C_3   0.568234 0.705867 0.542224 -0.404076
C200  C     C_3   0.294130 0.568384 0.541948 -0.404076
C201  C     C_R   1.000000 0.293706 0.999996 0.005067
C202  C     C_3   0.431524 0.294130 0.541781 -0.404084
C203  C     C_R   0.793706 0.500001 0.499998 0.005067
C204  C     C_R   0.579538 1.000000 0.999997 0.539821
C205  C     C_R   0.500001 0.206294 0.499998 0.005028
C206  C     C_R   0.206294 0.499999 0.499996 0.005105
C207  C     C_R   0.499998 0.793706 0.499998 0.005114
C208  C     C_1   0.161353 0.000001 1.000000 -0.058711
C209  C     C_1   0.000001 0.838647 0.000000 -0.058717
C210  C     C_1   0.838648 0.999999 0.000002 -0.058717
C211  C     C_1   0.999999 0.161352 0.999999 -0.058726
C212  C     C_1   0.661352 0.500000 0.499999 -0.058725
C213  C     C_1   0.500001 0.338648 0.500001 -0.058728
C214  C     C_1   0.338649 0.499999 0.500000 -0.058728
C215  C     C_R   0.000000 0.420462 0.999998 0.539689
C216  C     C_1   0.499999 0.661352 0.500000 -0.058737
C217  C     C_1   0.338443 0.000001 0.999997 -0.069560
C218  C     C_1   0.000001 0.661557 0.999996 -0.069548
C219  C     C_1   0.661557 0.999998 0.999997 -0.069493
C220  C     C_1   1.000000 0.338442 0.999996 -0.069472
C221  C     C_1   0.838442 0.500001 0.499997 -0.069469
C222  C     C_1   0.500001 0.161558 0.499996 -0.069501
C223  C     C_1   0.161558 0.499999 0.499996 -0.069429
C224  C     C_1   0.499999 0.838442 0.499996 -0.069405
C225  C     C_1   0.375878 0.000001 0.999997 -0.030984
C226  C     C_R   0.920462 0.500000 0.499998 0.539684
C227  C     C_1   0.000000 0.624122 0.999996 -0.031033
C228  C     C_1   0.624122 0.999999 0.999996 -0.030997
C229  C     C_1   0.000000 0.375878 0.999996 -0.031046
C230  C     C_1   0.875877 0.500000 0.499997 -0.031044
C231  C     C_1   0.500000 0.124122 0.499996 -0.031086
C232  C     C_1   0.124123 0.500000 0.499996 -0.031055
C233  C     C_1   0.500000 0.875877 0.499996 -0.031109
C234  C     C_1   0.123890 0.000000 0.999999 -0.033840
C235  C     C_1   0.000001 0.876110 0.000000 -0.033843
C236  C     C_1   0.876110 0.999999 0.000001 -0.033840
C237  C     C_R   0.500000 0.079538 0.499997 0.539548
C238  C     C_1   1.000000 0.123890 0.999999 -0.033845
C239  C     C_1   0.623889 0.500000 0.499999 -0.033840
C240  C     C_1   0.500000 0.376110 0.500001 -0.033842
C241  C     C_1   0.376111 0.499999 0.500001 -0.033839
C242  C     C_1   0.500000 0.623889 0.500000 -0.033844
C243  C     C_R   1.000000 0.079288 1.000000 0.550016
C244  C     C_R   0.079288 1.000000 1.000000 0.550010
C245  C     C_R   0.000000 0.920712 0.000000 0.550009
C246  C     C_R   0.920712 1.000000 0.000000 0.550015
C247  C     C_R   0.500000 0.579288 0.500000 0.550032
C248  C     C_R   0.079538 0.500000 0.499998 0.539680
C249  C     C_R   0.579288 0.500000 0.500000 0.550027
C250  C     C_R   0.500000 0.420712 0.500000 0.550026
C251  C     C_R   0.420712 0.500000 0.500000 0.550031
C252  C     C_R   0.499999 1.000000 0.085754 0.607113
C253  C     C_R   0.999999 0.500001 0.085755 0.606959
C254  C     C_R   0.500000 0.000000 0.914246 0.607200
C255  C     C_R   0.000000 0.500001 0.914245 0.607062
C256  C     C_R   1.000000 0.500000 0.585755 0.606989
C257  C     C_R   0.499999 0.000001 0.585757 0.606828
C258  C     C_R   1.000000 0.500000 0.414245 0.607075
C259  C     C_R   0.500000 0.920462 0.499997 0.539545
C260  C     C_R   0.500000 0.000001 0.414244 0.606927
C261  C     C_R   0.478514 0.031091 0.343014 0.211108
C262  C     C_R   0.031133 0.521419 0.343017 0.211092
C263  C     C_R   0.521490 0.968917 0.343013 0.211115
C264  C     C_R   0.968857 0.478590 0.343020 0.211093
C265  C     C_R   0.478449 0.968960 0.656991 0.211129
C266  C     C_R   0.031106 0.478540 0.656984 0.211105
C267  C     C_R   0.521535 0.031058 0.656987 0.211129
C268  C     C_R   0.968895 0.521463 0.656985 0.211093
C269  C     C_R   0.978589 0.531143 0.843020 0.211088
C270  C     C_R   0.271996 0.967255 0.019533 -0.098897
C271  C     C_R   0.531184 0.021345 0.843023 0.211065
C272  C     C_R   0.021417 0.468866 0.843019 0.211093
C273  C     C_R   0.468801 0.978671 0.843026 0.211077
C274  C     C_R   0.978529 0.468904 0.156984 0.211102
C275  C     C_R   0.531155 0.978612 0.156979 0.211086
C276  C     C_R   0.021458 0.531110 0.156982 0.211105
C277  C     C_R   0.468842 0.021389 0.156979 0.211080
C278  C     C_R   0.500001 0.000003 0.365903 -0.003538
C279  C     C_R   0.999997 0.500002 0.365906 -0.003484
C280  C     C_R   0.499996 0.000005 0.634099 -0.003581
Cu1   Cu    Cu3+1 0.500000 0.958950 0.000000 0.953681
Cu2   Cu    Cu3+1 1.000000 0.000000 0.955550 0.932914
Cu3   Cu    Cu3+1 0.500000 0.500000 0.544450 0.932860
Cu4   Cu    Cu3+1 0.500000 0.500000 0.455550 0.932867
Cu5   Cu    Cu3+1 0.958950 0.500000 0.000000 0.953828
Cu6   Cu    Cu3+1 0.500000 0.041050 0.000000 0.953682
Cu7   Cu    Cu3+1 0.041050 0.500000 0.000000 0.953826
Cu8   Cu    Cu3+1 0.000000 0.458950 0.500000 0.953862
Cu9   Cu    Cu3+1 0.458950 0.000000 0.500000 0.954002
Cu10  Cu    Cu3+1 0.000000 0.541050 0.500000 0.953860
Cu11  Cu    Cu3+1 0.541050 0.000000 0.500000 0.954002
Cu12  Cu    Cu3+1 0.000000 0.000000 0.044450 0.932907
H1    H     H_    0.289115 0.058024 0.965429 0.108306
H2    H     H_    0.557747 0.210887 0.464907 0.108282
H3    H     H_    0.334824 0.029587 0.898177 0.152499
H4    H     H_    0.966603 0.373265 0.126507 0.164040
H5    H     H_    0.988094 0.392365 0.176706 0.138355
H6    H     H_    0.024743 0.410507 0.084433 0.190532
H7    H     H_    0.048007 0.422679 0.136789 0.143918
H8    H     H_    0.052164 0.347054 0.154881 0.142497
H9    H     H_    0.079134 0.359331 0.104240 0.150428
H10   H     H_    0.028949 0.334712 0.101963 0.152490
H11   H     H_    0.626820 0.966900 0.126503 0.164061
H12   H     H_    0.607664 0.988379 0.176685 0.138361
H13   H     H_    0.210889 0.442325 0.464773 0.108235
H14   H     H_    0.589460 0.024925 0.084380 0.190632
H15   H     H_    0.577214 0.048194 0.136715 0.143969
H16   H     H_    0.652827 0.052539 0.154828 0.142501
H17   H     H_    0.640496 0.079453 0.104170 0.150458
H18   H     H_    0.665237 0.029328 0.101925 0.152465
H19   H     H_    0.033380 0.626743 0.126478 0.164042
H20   H     H_    0.011891 0.607656 0.176685 0.138371
H21   H     H_    0.975240 0.589467 0.084425 0.190566
H22   H     H_    0.951976 0.577336 0.136793 0.143894
H23   H     H_    0.947837 0.652983 0.154816 0.142498
H24   H     H_    0.442446 0.789111 0.464549 0.108228
H25   H     H_    0.920849 0.640659 0.104200 0.150429
H26   H     H_    0.971034 0.665273 0.101874 0.152589
H27   H     H_    0.373181 0.033109 0.126494 0.164066
H28   H     H_    0.392328 0.011629 0.176679 0.138358
H29   H     H_    0.410568 0.975077 0.084385 0.190659
H30   H     H_    0.422766 0.951806 0.136731 0.143936
H31   H     H_    0.347128 0.947500 0.154776 0.142499
H32   H     H_    0.359504 0.920559 0.104147 0.150454
H33   H     H_    0.334780 0.970690 0.101845 0.152559
H34   H     H_    0.628810 0.930663 0.339977 0.168383
H35   H     H_    0.789114 0.442247 0.535072 0.108278
H36   H     H_    0.608071 0.978062 0.319205 0.120882
H37   H     H_    0.659088 0.914113 0.265156 0.188894
H38   H     H_    0.640256 0.963270 0.245021 0.168760
H39   H     H_    0.682793 0.000503 0.301607 0.144316
H40   H     H_    0.714229 0.968181 0.266268 0.149690
H41   H     H_    0.702219 0.951206 0.321627 0.148281
H42   H     H_    0.930339 0.371380 0.339986 0.168406
H43   H     H_    0.977785 0.391979 0.319176 0.120856
H44   H     H_    0.913656 0.341140 0.265181 0.188881
H45   H     H_    0.962854 0.359828 0.245008 0.168808
H46   H     H_    0.557549 0.789112 0.535450 0.108251
H47   H     H_    0.000001 0.317191 0.301573 0.144315
H48   H     H_    0.967563 0.285842 0.266267 0.149689
H49   H     H_    0.950661 0.297912 0.321636 0.148280
H50   H     H_    0.371194 0.069352 0.339979 0.168379
H51   H     H_    0.391932 0.021951 0.319211 0.120896
H52   H     H_    0.340919 0.085898 0.265155 0.188898
H53   H     H_    0.359749 0.036738 0.245026 0.168763
H54   H     H_    0.317208 0.999513 0.301617 0.144320
H55   H     H_    0.285775 0.031833 0.266274 0.149692
H56   H     H_    0.297785 0.048813 0.321630 0.148278
H57   H     H_    0.210886 0.557672 0.535221 0.108253
H58   H     H_    0.069649 0.628640 0.339982 0.168397
H59   H     H_    0.022200 0.608031 0.319193 0.120874
H60   H     H_    0.086302 0.658878 0.265167 0.188891
H61   H     H_    0.037098 0.640183 0.245018 0.168783
H62   H     H_    0.999968 0.682819 0.301596 0.144319
H63   H     H_    0.032390 0.714169 0.266274 0.149692
H64   H     H_    0.049313 0.702103 0.321637 0.148279
H65   H     H_    0.628922 0.069124 0.660027 0.168370
H66   H     H_    0.608096 0.021764 0.680799 0.120884
H67   H     H_    0.659226 0.085623 0.734846 0.188888
H68   H     H_    0.442257 0.210885 0.535091 0.108302
H69   H     H_    0.640298 0.036505 0.754988 0.168768
H70   H     H_    0.682770 0.999182 0.698412 0.144316
H71   H     H_    0.714264 0.031450 0.733748 0.149690
H72   H     H_    0.702292 0.048439 0.678385 0.148279
H73   H     H_    0.930543 0.628754 0.660020 0.168373
H74   H     H_    0.977962 0.608049 0.680774 0.120916
H75   H     H_    0.913991 0.659016 0.734849 0.188902
H76   H     H_    0.963168 0.640219 0.754965 0.168744
H77   H     H_    0.000353 0.682786 0.698366 0.144319
H78   H     H_    0.968020 0.714196 0.733720 0.149691
H79   H     H_    0.466531 0.126721 0.373498 0.164037
H80   H     H_    0.951035 0.702178 0.678367 0.148278
H81   H     H_    0.371045 0.930912 0.660031 0.168360
H82   H     H_    0.391888 0.978272 0.680782 0.120898
H83   H     H_    0.340740 0.914447 0.734859 0.188892
H84   H     H_    0.359684 0.963566 0.754980 0.168738
H85   H     H_    0.317222 0.000885 0.698395 0.144318
H86   H     H_    0.285719 0.968637 0.733744 0.149692
H87   H     H_    0.297684 0.951628 0.678386 0.148279
H88   H     H_    0.069458 0.371257 0.660022 0.168386
H89   H     H_    0.022041 0.391950 0.680799 0.120885
H90   H     H_    0.488025 0.107638 0.323292 0.138360
H91   H     H_    0.086044 0.340994 0.734840 0.188892
H92   H     H_    0.036871 0.359779 0.754981 0.168768
H93   H     H_    0.999673 0.317207 0.698399 0.144314
H94   H     H_    0.032028 0.285802 0.733734 0.149689
H95   H     H_    0.048987 0.297828 0.678373 0.148279
H96   H     H_    0.128638 0.430355 0.839985 0.168394
H97   H     H_    0.108026 0.477802 0.819193 0.120873
H98   H     H_    0.158882 0.413701 0.765175 0.188880
H99   H     H_    0.140181 0.462900 0.745018 0.168791
H100  H     H_    0.182807 0.500043 0.801594 0.144310
H101  H     H_    0.524700 0.089509 0.415556 0.190503
H102  H     H_    0.214164 0.467625 0.766274 0.149684
H103  H     H_    0.202102 0.450703 0.821638 0.148273
H104  H     H_    0.430004 0.871564 0.839988 0.168415
H105  H     H_    0.477501 0.892029 0.819161 0.120851
H106  H     H_    0.413212 0.841366 0.765193 0.188865
H107  H     H_    0.462455 0.859917 0.745000 0.168838
H108  H     H_    0.499503 0.817179 0.801552 0.144308
H109  H     H_    0.466966 0.785921 0.766258 0.149683
H110  H     H_    0.450116 0.798037 0.821634 0.148271
H111  H     H_    0.871373 0.569665 0.839986 0.168396
H112  H     H_    0.057920 0.710886 0.965232 0.108304
H113  H     H_    0.547963 0.077357 0.363193 0.143903
H114  H     H_    0.891979 0.522217 0.819194 0.120880
H115  H     H_    0.841132 0.586323 0.765175 0.188886
H116  H     H_    0.859825 0.537120 0.745022 0.168795
H117  H     H_    0.817192 0.499988 0.801604 0.144313
H118  H     H_    0.785841 0.532407 0.766281 0.149685
H119  H     H_    0.797906 0.549333 0.821642 0.148271
H120  H     H_    0.569973 0.128473 0.839982 0.168394
H121  H     H_    0.522472 0.107981 0.819198 0.120900
H122  H     H_    0.586698 0.158667 0.765167 0.188883
H123  H     H_    0.537450 0.140089 0.745018 0.168781
H124  H     H_    0.552075 0.152985 0.345111 0.142497
H125  H     H_    0.500421 0.182817 0.801595 0.144313
H126  H     H_    0.532914 0.214086 0.766264 0.149685
H127  H     H_    0.549813 0.201989 0.821628 0.148272
H128  H     H_    0.128741 0.569452 0.160018 0.168381
H129  H     H_    0.108046 0.522039 0.180803 0.120886
H130  H     H_    0.159006 0.586046 0.234832 0.188883
H131  H     H_    0.140216 0.536878 0.254983 0.168787
H132  H     H_    0.182784 0.499665 0.198408 0.144309
H133  H     H_    0.214193 0.532025 0.233734 0.149685
H134  H     H_    0.202167 0.548973 0.178370 0.148271
H135  H     H_    0.579055 0.140720 0.395747 0.150423
H136  H     H_    0.430233 0.128574 0.160011 0.168394
H137  H     H_    0.477699 0.108006 0.180803 0.120888
H138  H     H_    0.413551 0.158803 0.234821 0.188879
H139  H     H_    0.462769 0.140149 0.254976 0.168798
H140  H     H_    0.499869 0.182810 0.198394 0.144313
H141  H     H_    0.467423 0.214136 0.233715 0.149687
H142  H     H_    0.450510 0.202057 0.178353 0.148269
H143  H     H_    0.871240 0.430573 0.160019 0.168376
H144  H     H_    0.891945 0.477985 0.180792 0.120898
H145  H     H_    0.840964 0.413999 0.234831 0.188870
H146  H     H_    0.528857 0.165310 0.398032 0.152519
H147  H     H_    0.859771 0.463161 0.254979 0.168780
H148  H     H_    0.817219 0.500388 0.198403 0.144310
H149  H     H_    0.785796 0.468040 0.233729 0.149687
H150  H     H_    0.797819 0.451087 0.178366 0.148273
H151  H     H_    0.569762 0.871431 0.160013 0.168400
H152  H     H_    0.522299 0.891995 0.180816 0.120868
H153  H     H_    0.586460 0.841200 0.234817 0.188873
H154  H     H_    0.537246 0.859853 0.254987 0.168808
H155  H     H_    0.500134 0.817192 0.198417 0.144307
H156  H     H_    0.532590 0.785866 0.233727 0.149684
H157  H     H_    0.126794 0.533198 0.373470 0.164052
H158  H     H_    0.549489 0.797947 0.178360 0.148271
H159  H     H_    0.227729 0.092038 0.944958 0.118803
H160  H     H_    0.186061 0.057125 0.931541 0.138558
H161  H     H_    0.186053 0.084623 0.983701 0.136253
H162  H     H_    0.091872 0.772271 0.944641 0.118792
H163  H     H_    0.056918 0.813941 0.931346 0.138563
H164  H     H_    0.084575 0.813947 0.983411 0.136242
H165  H     H_    0.772273 0.908204 0.944501 0.118792
H166  H     H_    0.813942 0.943176 0.931262 0.138567
H167  H     H_    0.813948 0.915446 0.983283 0.136251
H168  H     H_    0.107643 0.511713 0.323291 0.138350
H169  H     H_    0.908418 0.227729 0.944102 0.118790
H170  H     H_    0.943439 0.186058 0.931016 0.138579
H171  H     H_    0.915511 0.186054 0.982916 0.136258
H172  H     H_    0.227731 0.907965 0.055044 0.118797
H173  H     H_    0.186061 0.942879 0.068461 0.138552
H174  H     H_    0.186054 0.915379 0.016301 0.136247
H175  H     H_    0.091581 0.227729 0.055894 0.118786
H176  H     H_    0.056558 0.186060 0.068982 0.138574
H177  H     H_    0.084488 0.186053 0.017082 0.136252
H178  H     H_    0.772267 0.091790 0.055503 0.118797
H179  H     H_    0.089507 0.475143 0.415601 0.190558
H180  H     H_    0.813937 0.056819 0.068743 0.138566
H181  H     H_    0.813945 0.084550 0.016722 0.136263
H182  H     H_    0.908132 0.772268 0.055358 0.118796
H183  H     H_    0.943085 0.813937 0.068655 0.138562
H184  H     H_    0.915427 0.813946 0.016591 0.136251
H185  H     H_    0.727730 0.591598 0.444130 0.118799
H186  H     H_    0.686060 0.556580 0.431032 0.138577
H187  H     H_    0.686053 0.584495 0.482941 0.136273
H188  H     H_    0.591585 0.272270 0.444106 0.118794
H189  H     H_    0.556565 0.313941 0.431017 0.138576
H190  H     H_    0.077229 0.451875 0.363274 0.143985
H191  H     H_    0.584491 0.313947 0.482918 0.136261
H192  H     H_    0.272271 0.408539 0.443879 0.118790
H193  H     H_    0.313943 0.443586 0.430877 0.138581
H194  H     H_    0.313947 0.415545 0.482709 0.136268
H195  H     H_    0.408740 0.727729 0.443507 0.118789
H196  H     H_    0.443836 0.686057 0.430653 0.138594
H197  H     H_    0.415607 0.686054 0.482369 0.136275
H198  H     H_    0.727731 0.408405 0.555870 0.118793
H199  H     H_    0.686060 0.443422 0.568968 0.138572
H200  H     H_    0.686055 0.415507 0.517060 0.136266
H201  H     H_    0.152819 0.447552 0.345084 0.142498
H202  H     H_    0.591256 0.727730 0.556493 0.118786
H203  H     H_    0.556161 0.686059 0.569349 0.138589
H204  H     H_    0.584390 0.686054 0.517633 0.136274
H205  H     H_    0.272266 0.591457 0.556120 0.118796
H206  H     H_    0.313937 0.556410 0.569123 0.138579
H207  H     H_    0.313945 0.584452 0.517292 0.136280
H208  H     H_    0.408419 0.272266 0.555894 0.118796
H209  H     H_    0.443438 0.313937 0.568986 0.138574
H210  H     H_    0.415511 0.313945 0.517085 0.136268
H211  H     H_    0.140558 0.420649 0.395768 0.150453
H212  H     H_    0.710887 0.942121 0.965154 0.108264
H213  H     H_    0.165275 0.470788 0.397960 0.152377
H214  H     H_    0.533466 0.873281 0.373476 0.164030
H215  H     H_    0.511972 0.892378 0.323277 0.138355
H216  H     H_    0.475303 0.910451 0.415557 0.190461
H217  H     H_    0.452043 0.922671 0.363211 0.143948
H218  H     H_    0.447883 0.847077 0.345031 0.142499
H219  H     H_    0.420937 0.859277 0.395706 0.150426
H220  H     H_    0.471130 0.834667 0.397914 0.152394
H221  H     H_    0.873202 0.466811 0.373504 0.164054
H222  H     H_    0.892336 0.488289 0.323312 0.138379
H223  H     H_    0.942252 0.289113 0.964909 0.108256
H224  H     H_    0.910522 0.524876 0.415602 0.190590
H225  H     H_    0.922753 0.548137 0.363258 0.143959
H226  H     H_    0.847143 0.552435 0.345142 0.142500
H227  H     H_    0.859446 0.579360 0.395800 0.150454
H228  H     H_    0.834740 0.529216 0.398042 0.152431
H229  H     H_    0.466311 0.873342 0.626537 0.164018
H230  H     H_    0.487829 0.892405 0.676739 0.138322
H231  H     H_    0.524545 0.910419 0.584467 0.190391
H232  H     H_    0.547819 0.922589 0.636819 0.143915
H233  H     H_    0.551845 0.846987 0.654991 0.142497
H234  H     H_    0.289117 0.941982 0.034572 0.108327
H235  H     H_    0.578817 0.859144 0.604319 0.150404
H236  H     H_    0.528582 0.834623 0.602104 0.152457
H237  H     H_    0.126748 0.466631 0.626511 0.164038
H238  H     H_    0.107639 0.488122 0.676706 0.138361
H239  H     H_    0.089519 0.524757 0.584422 0.190514
H240  H     H_    0.077306 0.548022 0.636767 0.143946
H241  H     H_    0.152912 0.552223 0.654909 0.142500
H242  H     H_    0.140664 0.579164 0.604245 0.150435
H243  H     H_    0.165305 0.528989 0.602015 0.152432
H244  H     H_    0.533665 0.126666 0.626488 0.164021
H245  H     H_    0.057746 0.289113 0.035085 0.108273
H246  H     H_    0.512158 0.107627 0.676706 0.138360
H247  H     H_    0.475424 0.089535 0.584462 0.190442
H248  H     H_    0.452158 0.077433 0.636836 0.143876
H249  H     H_    0.448165 0.153068 0.654898 0.142498
H250  H     H_    0.421158 0.140838 0.604270 0.150405
H251  H     H_    0.471394 0.165349 0.601971 0.152573
H252  H     H_    0.873253 0.533378 0.626519 0.164043
H253  H     H_    0.892364 0.511880 0.676711 0.138341
H254  H     H_    0.910488 0.475253 0.584424 0.190523
H255  H     H_    0.922685 0.451981 0.636769 0.143933
H256  H     H_    0.710884 0.057872 0.034847 0.108285
H257  H     H_    0.847070 0.447796 0.654891 0.142499
H258  H     H_    0.859331 0.420849 0.604234 0.150431
H259  H     H_    0.834698 0.471027 0.601990 0.152483
H260  H     H_    0.966805 0.626796 0.873508 0.164059
H261  H     H_    0.988285 0.607666 0.823315 0.138370
H262  H     H_    0.024872 0.589455 0.915600 0.190615
H263  H     H_    0.048138 0.577261 0.863249 0.143932
H264  H     H_    0.052404 0.652892 0.845184 0.142499
H265  H     H_    0.079351 0.640551 0.895819 0.150445
H266  H     H_    0.029205 0.665245 0.898108 0.152532
H267  H     H_    0.942083 0.710884 0.034764 0.108323
H268  H     H_    0.626866 0.032924 0.873489 0.164081
H269  H     H_    0.607674 0.011457 0.823317 0.138356
H270  H     H_    0.589427 0.974962 0.915636 0.190695
H271  H     H_    0.577146 0.951696 0.863308 0.143989
H272  H     H_    0.652757 0.947250 0.845193 0.142500
H273  H     H_    0.640385 0.920356 0.895851 0.150475
H274  H     H_    0.665193 0.970448 0.898094 0.152419
H275  H     H_    0.033199 0.373208 0.873488 0.164053
H276  H     H_    0.011719 0.392350 0.823301 0.138359
H277  H     H_    0.975134 0.410513 0.915599 0.190580
H278  H     H_    0.789113 0.557757 0.464927 0.108258
H279  H     H_    0.951871 0.422760 0.863261 0.143966
H280  H     H_    0.947572 0.347156 0.845118 0.142500
H281  H     H_    0.920650 0.359444 0.895783 0.150448
H282  H     H_    0.970793 0.334736 0.898012 0.152426
H283  H     H_    0.373124 0.967104 0.873526 0.164078
H284  H     H_    0.392301 0.988562 0.823343 0.138389
H285  H     H_    0.410601 0.025067 0.915644 0.190730
H286  H     H_    0.422846 0.048326 0.863303 0.143970
H287  H     H_    0.347217 0.052764 0.845252 0.142502
H288  H     H_    0.359633 0.079676 0.895886 0.150477
O1    O     O_R   0.440170 0.965330 0.000010 -0.507012
O2    O     O_R   0.465330 0.059830 0.500010 -0.506964
O3    O     O_R   0.059830 0.534670 0.500010 -0.506975
O4    O     O_R   0.534670 0.940170 0.500010 -0.506938
O5    O     O_R   0.940170 0.534670 0.499990 -0.507026
O6    O     O_R   0.465330 0.940170 0.499990 -0.506991
O7    O     O_R   0.059830 0.465330 0.499990 -0.507012
O8    O     O_R   0.534670 0.059830 0.499990 -0.507008
O9    O     O_R   0.500030 0.965330 0.064870 -0.495570
O10   O     O_R   0.965330 0.499970 0.064870 -0.495455
O11   O     O_R   0.499970 0.034670 0.064870 -0.495559
O12   O     O_R   0.965330 0.559830 0.000010 -0.506994
O13   O     O_R   0.034670 0.500030 0.064870 -0.495452
O14   O     O_R   0.500030 0.034670 0.935130 -0.495649
O15   O     O_R   0.965330 0.500030 0.935130 -0.495529
O16   O     O_R   0.499970 0.965330 0.935130 -0.495646
O17   O     O_R   0.034670 0.499970 0.935130 -0.495536
O18   O     O_R   0.000030 0.465330 0.564870 -0.495455
O19   O     O_R   0.465330 0.999970 0.564870 -0.495337
O20   O     O_R   0.999970 0.534670 0.564870 -0.495454
O21   O     O_R   0.534670 0.000030 0.564870 -0.495328
O22   O     O_R   0.000030 0.534670 0.435130 -0.495533
O23   O     O_R   0.559830 0.034670 0.000010 -0.507003
O24   O     O_R   0.465330 0.000030 0.435130 -0.495418
O25   O     O_R   0.999970 0.465330 0.435130 -0.495526
O26   O     O_R   0.534670 0.999970 0.435130 -0.495429
O27   O     O_R   0.000010 0.059770 0.037600 -0.503206
O28   O     O_R   0.059770 0.999990 0.037600 -0.503197
O29   O     O_R   0.999990 0.940230 0.037600 -0.503197
O30   O     O_R   0.940230 0.000010 0.037600 -0.503198
O31   O     O_R   0.000010 0.940230 0.962400 -0.503198
O32   O     O_R   0.059770 0.000010 0.962400 -0.503192
O33   O     O_R   0.999990 0.059770 0.962400 -0.503201
O34   O     O_R   0.034670 0.440170 0.000010 -0.506974
O35   O     O_R   0.940230 0.999990 0.962400 -0.503200
O36   O     O_R   0.500010 0.559770 0.537600 -0.503211
O37   O     O_R   0.559770 0.499990 0.537600 -0.503206
O38   O     O_R   0.499990 0.440230 0.537600 -0.503204
O39   O     O_R   0.440230 0.500010 0.537600 -0.503205
O40   O     O_R   0.500010 0.440230 0.462400 -0.503204
O41   O     O_R   0.559770 0.500010 0.462400 -0.503201
O42   O     O_R   0.499990 0.559770 0.462400 -0.503208
O43   O     O_R   0.440230 0.499990 0.462400 -0.503207
O44   O     O_3   0.461712 0.063766 0.366932 -0.540261
O45   O     O_R   0.440170 0.034670 0.999990 -0.507065
O46   O     O_3   0.063846 0.538146 0.366935 -0.540317
O47   O     O_3   0.538286 0.936238 0.366929 -0.540247
O48   O     O_3   0.936148 0.461860 0.366942 -0.540328
O49   O     O_3   0.461598 0.936307 0.633079 -0.540187
O50   O     O_3   0.063795 0.461765 0.633065 -0.540280
O51   O     O_3   0.538389 0.063706 0.633069 -0.540206
O52   O     O_3   0.936206 0.538239 0.633067 -0.540282
O53   O     O_3   0.961855 0.563851 0.866941 -0.540335
O54   O     O_3   0.563930 0.038004 0.866944 -0.540394
O55   O     O_3   0.038147 0.436155 0.866938 -0.540321
O56   O     O_R   0.965330 0.440170 0.999990 -0.507020
O57   O     O_3   0.436057 0.962012 0.866953 -0.540404
O58   O     O_3   0.961748 0.436218 0.133067 -0.540278
O59   O     O_3   0.563878 0.961906 0.133057 -0.540350
O60   O     O_3   0.038242 0.563793 0.133060 -0.540286
O61   O     O_3   0.436123 0.038099 0.133057 -0.540358
O62   O     O_3   0.582603 0.921752 0.294660 -0.545098
O63   O     O_3   0.921531 0.417604 0.294665 -0.545104
O64   O     O_3   0.417402 0.078259 0.294661 -0.545103
O65   O     O_3   0.078449 0.582415 0.294662 -0.545107
O66   O     O_3   0.582726 0.078120 0.705340 -0.545087
O67   O     O_R   0.559830 0.965330 0.999990 -0.507043
O68   O     O_3   0.921678 0.582538 0.705338 -0.545100
O69   O     O_3   0.417241 0.921916 0.705342 -0.545088
O70   O     O_3   0.078329 0.417471 0.705338 -0.545101
O71   O     O_3   0.082414 0.421550 0.794664 -0.545101
O72   O     O_3   0.421312 0.917811 0.794668 -0.545106
O73   O     O_3   0.917597 0.578465 0.794664 -0.545104
O74   O     O_3   0.578655 0.082222 0.794665 -0.545107
O75   O     O_3   0.082527 0.578331 0.205336 -0.545105
O76   O     O_3   0.421471 0.082343 0.205335 -0.545110
O77   O     O_3   0.917451 0.421693 0.205339 -0.545103
O78   O     O_R   0.034670 0.559830 0.999990 -0.507035
O79   O     O_3   0.578529 0.917662 0.205335 -0.545104
O80   O     O_R   0.940170 0.465330 0.500010 -0.506979

loop_
_geom_bond_atom_site_label_1
_geom_bond_atom_site_label_2
_ccdc_geom_bond_type
C4    C272  A    
C144  H63   S    
C126  C127  S    
C266  O50   S    
C107  H266  S    
C152  O69   S    
C239  C249  S    
C269  O53   S    
C64   C77   A    
C253  O10   A    
C226  O5    A    
C152  H82   S    
C56   C270  A    
C190  C219  S    
C114  C115  S    
C22   C277  A    
C233  C259  S    
C240  C250  S    
C115  H280  S    
C47   O74   S    
C170  H122  S    
C91   H226  S    
C226  O80   A    
C61   C124  A    
C122  H12   S    
C166  H116  S    
C250  O38   A    
C176  H138  S    
C249  O41   A    
C63   C76   A    
C102  H252  S    
C143  C144  S    
C78   H90   S    
C183  H154  S    
C81   H146  S    
Cu1   Cu6   S    
C8    C26   A    
C108  C109  S    
C150  H75   S    
C38   O65   S    
C193  H183  S    
C53   C68   A    
C182  C183  S    
C257  O21   A    
C103  H255  S    
C261  C278  A    
C137  H45   S    
Cu6   O23   S    
C148  H72   S    
C46   C55   A    
C93   H231  S    
Cu4   O41   S    
C215  O34   A    
C63   C146  A    
C95   H237  S    
C161  H102  S    
C18   C273  A    
C97   H243  S    
C134  H39   S    
C254  O16   A    
C274  O58   S    
C118  H287  S    
Cu12  O27   S    
C273  O57   S    
C165  O73   S    
C184  H158  S    
C275  O59   S    
C199  H202  S    
C107  H264  S    
C188  H169  S    
C236  C246  S    
C157  C205  A    
C24   H245  S    
C13   H256  S    
C67   C200  S    
C108  O54   S    
C96   H239  S    
Cu12  O30   S    
C139  H50   S    
C200  H205  S    
C139  H51   S    
C194  H187  S    
C83   H190  S    
C157  H2    S    
C257  O19   A    
C92   O49   S    
C209  C235  T    
C271  O54   S    
C18   C44   A    
C90   C205  A    
Cu9   O6    S    
C175  C176  S    
C174  H133  S    
C51   O79   S    
Cu8   O7    S    
C184  H156  S    
C62   C157  A    
C246  O30   A    
C160  H98   S    
C161  H100  S    
C245  O29   A    
C143  H61   S    
C22   C49   A    
C251  O39   A    
C153  H83   S    
Cu2   Cu12  S    
C35   H1    S    
C244  O32   A    
C54   C187  S    
C224  C233  T    
C195  H188  S    
C62   C75   A    
C5    C273  A    
Cu6   O11   S    
C125  H17   S    
C53   C71   A    
C21   C276  A    
C187  H167  S    
C36   C50   A    
C223  C232  T    
C110  H274  S    
C39   C47   A    
C143  H60   S    
C259  O6    A    
C132  O62   S    
C3    C268  A    
C172  H128  S    
C163  H107  S    
C171  H127  S    
C139  C140  S    
C270  H234  S    
C247  O42   A    
C102  H253  S    
C61   C74   A    
C151  H77   S    
C106  H263  S    
C249  O37   A    
C41   O69   S    
C180  H147  S    
C88   H222  S    
C191  H176  S    
C99   H248  S    
C125  H16   S    
C87   H219  S    
C130  C131  S    
C85   H214  S    
Cu5   Cu7   S    
C186  H164  S    
C114  H277  S    
C167  H117  S    
C57   H212  S    
C262  C279  A    
C178  O77   S    
C156  C158  S    
C116  H283  S    
Cu4   O43   S    
C215  O56   A    
C202  H210  S    
C1    O1    A    
C20   C47   A    
C154  H87   S    
C13   C190  A    
C158  H95   S    
Cu7   O34   S    
C142  H59   S    
C88   C89   S    
C6    C253  S    
C98   C99   S    
C254  O14   A    
Cu9   O24   S    
C101  H57   S    
C155  C156  S    
C181  H149  S    
C63   C196  S    
C18   C31   A    
C260  O24   A    
C7    C277  A    
C19   C30   A    
C100  H249  S    
C77   C216  S    
C234  C244  S    
C130  H30   S    
Cu6   O14   S    
C149  H73   S    
C155  H88   S    
C49   O76   S    
C65   C79   A    
C66   C113  A    
C95   C96   S    
C147  C148  S    
C241  C251  S    
Cu3   O39   S    
C246  O35   A    
Cu8   O18   S    
C25   C51   A    
Cu11  O26   S    
Cu10  O20   S    
C85   C86   S    
C180  H145  S    
C124  H278  S    
C200  H207  S    
C144  H62   S    
C34   C51   A    
C220  C229  T    
C172  O75   S    
Cu11  O21   S    
C162  O72   S    
C108  H269  S    
C188  H170  S    
C133  H37   S    
C78   C80   S    
C181  H148  S    
C89   H225  S    
C170  C171  S    
C185  H160  S    
C115  H281  S    
C267  C280  A    
C121  H8    S    
C91   H227  S    
C145  O66   S    
C245  O31   A    
C149  O68   S    
C46   C201  A    
C78   H79   S    
C146  H13   S    
C71   C209  S    
C221  C230  T    
C9    C36   A    
C83   H179  S    
C69   C75   A    
C219  C228  T    
C89   C91   S    
C6    C276  A    
C187  H165  S    
C38   C48   A    
C131  H32   S    
C110  H272  S    
C132  H34   S    
C259  O4    A    
C69   C202  S    
C3    C266  A    
C165  H111  S    
C45   O73   S    
C173  H131  S    
C175  H137  S    
C1    O45   A    
Cu4   O40   S    
C169  H121  S    
C171  H125  S    
C164  H110  S    
C60   C193  S    
C182  H151  S    
C216  C242  T    
C24   C201  A    
C264  O48   S    
C124  C203  A    
C111  O55   S    
C212  C239  T    
C156  H92   S    
C138  H47   S    
C196  H193  S    
C177  H142  S    
C167  H119  S    
C186  H162  S    
C226  C230  S    
C238  C243  S    
C75   C213  S    
C65   C74   A    
C48   O75   S    
C232  C248  S    
Cu6   O45   S    
Cu8   Cu10  S    
C53   C186  S    
C29   C30   A    
C154  H85   S    
C158  H93   S    
C265  O49   S    
C26   C33   A    
C83   C84   S    
C20   C271  A    
C105  H260  S    
C267  O51   S    
C199  H204  S    
C35   C168  A    
C8    C34   A    
C55   C188  S    
C86   H217  S    
C100  H251  S    
C256  O20   A    
C84   H211  S    
Cu1   O9    S    
C255  O15   A    
C127  H21   S    
C272  O55   S    
Cu5   O15   S    
C128  H26   S    
C198  H198  S    
C20   C31   A    
C155  O70   S    
C79   H35   S    
Cu3   O37   S    
C14   C29   A    
C35   C52   A    
C102  O52   S    
C120  C121  S    
C67   C101  A    
C135  C207  A    
C129  C130  S    
C4    C269  A    
C144  H64   S    
C253  O13   A    
C107  H265  S    
Cu7   O78   S    
C175  O76   S    
C73   C211  S    
C177  H140  S    
C136  C137  S    
Cu1   O16   S    
C145  H66   S    
C19   C45   A    
C265  C280  A    
C276  O60   S    
C13   C59   A    
C128  H23   S    
C68   C179  A    
C148  H70   S    
C170  H123  S    
Cu2   O31   S    
C159  H97   S    
C21   C48   A    
C175  H136  S    
C125  H18   S    
C179  C218  S    
C117  C118  S    
C237  O8    A    
C237  O2    A    
C183  H153  S    
C192  H178  S    
C112  O78   A    
C150  H76   S    
C141  H56   S    
C102  C103  S    
C6    C274  A    
C16   C266  A    
Cu11  O8    S    
C101  C206  A    
C65   C198  S    
C55   C73   A    
C129  H28   S    
C76   C214  S    
C132  H36   S    
C152  C153  S    
C2    C179  A    
C256  O18   A    
Cu3   Cu4   S    
C248  O7    A    
C150  C151  S    
C136  H43   S    
C189  H173  S    
Cu4   O42   S    
C191  H177  S    
C25   C33   A    
C54   C57   A    
C97   H242  S    
Cu10  O22   S    
C134  H40   S    
C17   C30   A    
C16   C42   A    
C252  O9    A    
C118  H288  S    
Cu12  O28   S    
C114  H279  S    
C213  C240  T    
C59   C192  S    
C98   O51   S    
C155  H89   S    
C277  O61   S    
C88   O48   S    
C12   C28   A    
C123  H14   S    
C260  O26   A    
C92   H229  S    
C113  C207  A    
C243  O27   A    
C111  H276  S    
C117  H286  S    
C96   H240  S    
C2    C60   A    
C123  C125  S    
C9    C264  A    
C200  H206  S    
C205  C222  S    
C264  C279  A    
C173  H130  S    
C11   C262  A    
C122  O59   S    
C3    C256  S    
C131  H33   S    
C84   H213  S    
C258  O25   A    
C174  H134  S    
C134  H41   S    
C43   O71   S    
C159  H96   S    
C261  O44   S    
C210  C236  T    
C168  C217  S    
Cu7   O13   S    
C59   C72   A    
C176  H139  S    
Cu9   O19   S    
C94   H236  S    
C112  C227  S    
C98   H244  S    
C64   C197  S    
C82   H168  S    
C152  H81   S    
C62   C195  S    
C119  H5    S    
C145  C147  S    
C129  O61   S    
C95   O50   S    
C40   C45   A    
C122  H11   S    
C166  H115  S    
C82   O46   S    
C19   C269  A    
C109  C110  S    
C36   O63   S    
C86   C87   S    
C23   C50   A    
C58   C191  S    
C60   C71   A    
C151  H80   S    
C147  H67   S    
Cu10  O3    S    
C192  H180  S    
C191  H175  S    
C99   H247  S    
C193  H184  S    
C196  H192  S    
C120  H7    S    
C168  C270  A    
C37   C49   A    
Cu3   O36   S    
C159  C160  S    
C148  H71   S    
C164  H108  S    
C211  C238  T    
C105  O53   S    
C93   H232  S    
C140  C141  S    
C8    C263  A    
C109  H270  S    
C15   C41   A    
C95   H238  S    
C247  O36   A    
C161  H103  S    
C88   H221  S    
C162  H104  S    
C189  H174  S    
C194  H185  S    
C252  O11   A    
C133  C134  S    
C41   C44   A    
C117  H285  S    
C42   C43   A    
C189  H172  S    
C80   H101  S    
C263  C278  A    
C100  H250  S    
C140  H53   S    
C180  C181  S    
C9    C27   A    
C162  C163  S    
C1    C225  S    
C258  O22   A    
C126  O60   S    
C27   C32   A    
C28   C31   A    
Cu5   O10   S    
C121  H10   S    
C201  C220  S    
C15   C265  A    
C178  C180  S    
C119  C120  S    
C162  H105  S    
Cu12  O29   S    
C105  C106  S    
C165  H114  S    
C7    C275  A    
C68   H112  S    
C10   C261  A    
C231  C237  S    
C194  H186  S    
C23   C32   A    
C12   C39   A    
C25   C275  A    
C149  C150  S    
C15   C28   A    
C89   H224  S    
C174  H132  S    
C185  H159  S    
C92   C93   S    
C218  C227  T    
Cu8   O25   S    
C111  C114  S    
C66   C77   A    
C37   O64   S    
C159  O71   S    
C153  H84   S    
C135  H24   S    
C34   O62   S    
C24   C58   A    
C82   C83   S    
C74   C212  S    
C103  C104  S    
C197  H197  S    
C142  C143  S    
C103  H254  S    
C104  H257  S    
C131  H31   S    
C110  H273  S    
C244  O28   A    
C165  C166  S    
C142  O65   S    
Cu2   O35   S    
C42   O70   S    
C169  C170  S    
C163  C164  S    
C146  C206  A    
C169  H120  S    
C202  H208  S    
C17   C43   A    
C184  H155  S    
C169  O74   S    
C188  H171  S    
C182  H152  S    
C173  C174  S    
C151  H78   S    
C40   O68   S    
C90   H68   S    
Cu9   O2    S    
C214  C241  T    
C108  H268  S    
C138  H48   S    
C87   H220  S    
C106  H262  S    
C196  H194  S    
Cu11  O4    S    
C85   H215  S    
C177  H141  S    
C23   C274  A    
C186  H163  S    
Cu1   O1    S    
C167  H118  S    
C70   C208  S    
C147  H69   S    
C248  O3    A    
C260  C278  S    
C116  C117  S    
C203  C221  S    
C123  H15   S    
C46   H223  S    
C202  H209  S    
C198  H199  S    
C154  H86   S    
C158  H94   S    
C142  H58   S    
C72   C210  S    
C84   H201  S    
C132  C133  S    
C199  H203  S    
C181  H150  S    
C156  H91   S    
C138  H49   S    
Cu8   O80   S    
C11   C27   A    
C204  C228  S    
C109  H271  S    
C66   C199  S    
C195  H191  S    
C130  H29   S    
C139  O64   S    
C10   C26   A    
C112  O12   A    
C149  H74   S    
C64   C135  A    
C207  C224  S    
C44   O72   S    
C193  H182  S    
Cu5   O12   S    
C17   C272  A    
C94   H235  S    
C215  C229  S    
C14   C268  A    
C113  H46   S    
C251  O43   A    
C81   H135  S    
C116  H284  S    
Cu1   O67   S    
C21   C32   A    
C5    C271  A    
Cu10  O5    S    
C118  H3    S    
C85   O47   S    
C133  H38   S    
C145  H65   S    
C255  O17   A    
C185  H161  S    
C16   C29   A    
C115  H282  S    
C121  H9    S    
C91   H228  S    
Cu2   O32   S    
C5    C254  S    
C160  H99   S    
C250  O40   A    
C119  O58   S    
C183  C184  S    
Cu7   O17   S    
C178  H144  S    
C99   C100  S    
C206  C223  S    
C96   C97   S    
C98   H246  S    
C178  H143  S    
C93   C94   S    
C106  C107  S    
C141  H55   S    
C104  H259  S    
C136  H42   S    
C187  H166  S    
C120  H6    S    
C126  H19   S    
C129  H27   S    
C50   O77   S    
C176  C177  S    
C204  O67   A    
C222  C231  T    
C56   C70   A    
C172  H129  S    
Cu2   O33   S    
C166  C167  S    
C141  H54   S    
C52   C185  S    
C182  O79   S    
C163  H106  S    
C69   C90   A    
C171  H126  S    
C208  C234  T    
C164  H109  S    
C172  C173  S    
C263  O47   S    
C22   C33   A    
C97   H241  S    
C56   C189  S    
C262  O46   S    
C82   H157  S    
C268  O52   S    
C126  H20   S    
C119  H4    S    
C87   H218  S    
C80   C81   S    
C137  H44   S    
C10   C37   A    
C2    H267  S    
C137  C138  S    
C242  C247  S    
Cu3   O38   S    
C7    C252  S    
C116  O57   S    
C79   C203  A    
C92   H230  S    
C160  C161  S    
C136  O63   S    
C111  H275  S    
C122  C123  S    
C12   C267  A    
C57   C190  A    
C81   H124  S    
C105  H261  S    
C192  H181  S    
Cu9   Cu11  S    
C197  H195  S    
C86   H216  S    
C80   H113  S    
C243  O33   A    
C52   C70   A    
C195  H189  S    
C14   C40   A    
Cu5   O56   S    
C127  H22   S    
C54   C72   A    
C198  H200  S    
C257  C280  S    
C128  H25   S    
C217  C225  T    
C258  C279  S    
C197  H196  S    
C140  H52   S    
C11   C38   A    
C78   O44   S    
C67   C76   A    
C204  O23   A    
C4    C255  S    
C153  C154  S    
C94   H233  S    
C104  H258  S    
C61   C194  S    
C235  C245  S    
C127  C128  S    
C58   C73   A    
C39   O66   S    
