data_mof_unit_8362.cif
_audit_creation_date              2013-03-05T16:47:36-0500
_audit_creation_method            fapswitch 2.2
_symmetry_space_group_name_H-M    P1
_symmetry_Int_Tables_number       1
_space_group_crystal_system       triclinic
_cell_length_a                    18.128342
_cell_length_b                    18.19722
_cell_length_c                    18.402518
_cell_angle_alpha                 120.332279
_cell_angle_beta                  90.014048
_cell_angle_gamma                 119.771922
_cell_volume                      4285.2477883

loop_
_atom_site_label
_atom_site_type_symbol
_atom_site_description
_atom_site_fract_x
_atom_site_fract_y
_atom_site_fract_z
_atom_type_partial_charge
Zn1   Zn    Zn3+2 0.207400 0.586780 0.791530 1.025439
Zn2   Zn    Zn3+2 0.792600 0.413220 0.208470 1.032468
Zn3   Zn    Zn3+2 0.208510 0.413230 0.792630 0.975847
Zn4   Zn    Zn3+2 0.791490 0.586770 0.207370 0.979328
Zn5   Zn    Zn3+2 0.383150 0.586740 0.791530 1.027358
Zn6   Zn    Zn3+2 0.616850 0.413260 0.208470 1.041629
Zn7   Zn    Zn3+2 0.207400 0.413250 0.618010 1.046789
Zn8   Zn    Zn3+2 0.792600 0.586750 0.381990 1.044955
O1    O     O_3   0.251620 0.500000 0.748430 -0.520605
O2    O     O_3   0.748380 0.500000 0.251570 -0.522323
O3    O     O_R   0.134680 0.268390 0.572240 -0.624339
O4    O     O_R   0.865320 0.731610 0.427760 -0.624514
O5    O     O_R   0.306670 0.731630 0.863510 -0.579122
O6    O     O_R   0.693330 0.268370 0.136490 -0.581233
O7    O     O_R   0.135450 0.439270 0.865360 -0.645042
O8    O     O_R   0.864550 0.560730 0.134640 -0.645617
O9    O     O_R   0.429670 0.560710 0.692610 -0.596068
O10   O     O_R   0.570330 0.439290 0.307390 -0.599202
O11   O     O_R   0.308540 0.439240 0.865360 -0.651971
O12   O     O_R   0.691460 0.560760 0.134640 -0.653536
O13   O     O_R   0.133580 0.439310 0.571150 -0.627974
O14   O     O_R   0.866420 0.560690 0.428850 -0.628341
O15   O     O_R   0.430770 0.560690 0.864590 -0.623536
O16   O     O_R   0.569230 0.439310 0.135410 -0.618595
O17   O     O_R   0.133580 0.560760 0.692610 -0.630171
O18   O     O_R   0.866420 0.439240 0.307390 -0.632178
O19   O     O_R   0.134680 0.560740 0.864590 -0.627446
O20   O     O_R   0.865320 0.439260 0.135410 -0.625536
O21   O     O_R   0.306670 0.439270 0.571150 -0.591662
O22   O     O_R   0.693330 0.560730 0.428850 -0.591867
O23   O     O_R   0.135450 0.268370 0.694460 -0.633798
O24   O     O_R   0.864550 0.731630 0.305540 -0.634454
O25   O     O_R   0.429670 0.731610 0.863510 -0.651455
O26   O     O_R   0.570330 0.268390 0.136490 -0.645247
C1    C     C_R   0.109696 0.220274 0.609355 0.784612
C2    C     C_R   0.890297 0.779732 0.390649 0.784572
C3    C     C_R   0.392804 0.780958 0.887923 0.844907
C4    C     C_R   0.607186 0.219032 0.112061 0.889774
C5    C     C_R   0.109778 0.499920 0.888606 0.810347
C6    C     C_R   0.890186 0.500047 0.111354 0.810846
C7    C     C_R   0.392099 0.497956 0.607858 0.931980
C8    C     C_R   0.607896 0.502046 0.392132 0.929924
C9    C     C_R   0.394024 0.501208 0.889664 0.814909
C10   C     C_R   0.605993 0.498668 0.110212 0.822454
C11   C     C_R   0.108681 0.500077 0.607734 0.788040
C12   C     C_R   0.891323 0.499921 0.392259 0.786404
C13   C     C_3   0.002387 0.416843 0.450008 -0.056669
C14   C     C_3   0.997627 0.583130 0.549949 -0.056185
C15   C     C_3   0.034658 0.503977 0.436473 -0.129088
C16   C     C_3   0.965351 0.495998 0.563485 -0.128634
H1    H     H_    0.062194 0.507300 0.383596 0.160185
H2    H     H_    0.937814 0.492667 0.616358 0.160339
H3    H     H_    0.004964 0.348295 0.411611 0.212745
H4    H     H_    0.995034 0.651667 0.588276 0.212453
C17   C     C_3   0.949176 0.499668 0.448904 -0.006428
C18   C     C_3   0.050835 0.500311 0.551061 -0.007232
C19   C     C_3   0.916138 0.412563 0.461604 -0.190136
C20   C     C_3   0.083874 0.587412 0.538354 -0.190251
H5    H     H_    0.846529 0.340616 0.428999 0.165416
H6    H     H_    0.153481 0.659361 0.570961 0.165057
C21   C     C_3   0.437261 0.965084 0.929825 -0.267040
C22   C     C_3   0.562708 0.034872 0.070262 -0.284488
C23   C     C_3   0.540359 0.036787 0.955080 0.535640
C24   C     C_3   0.459604 0.963171 0.044987 0.470940
H7    H     H_    0.386826 0.936042 0.870925 0.201665
H8    H     H_    0.613109 0.063864 0.129160 0.205010
C25   C     C_3   0.549518 0.103045 0.053244 -0.152734
C26   C     C_3   0.450454 0.896923 0.946828 -0.157484
C27   C     C_3   0.446397 0.032183 0.029540 -0.226301
C28   C     C_3   0.553585 0.967780 0.970535 -0.235082
H9    H     H_    0.402566 0.058332 0.055259 0.211194
H10   H     H_    0.597391 0.941573 0.944862 0.214655
C29   C     C_3   0.417460 0.411705 0.450641 0.426209
C30   C     C_3   0.582487 0.588280 0.549290 0.426502
C31   C     C_3   0.505059 0.417603 0.465030 -0.390438
C32   C     C_3   0.494879 0.582374 0.534893 -0.389715
H11   H     H_    0.509552 0.350293 0.436725 0.222670
H12   H     H_    0.490381 0.649680 0.563189 0.222780
C33   C     C_3   0.551491 0.503374 0.448854 -0.275018
C34   C     C_3   0.448467 0.496617 0.551092 -0.276334
C35   C     C_3   0.464279 0.496397 0.434583 0.237107
C36   C     C_3   0.535675 0.503583 0.565341 0.237619
H13   H     H_    0.885181 0.239199 0.854538 0.149067
H14   H     H_    0.113314 0.760732 0.144250 0.151715
C37   C     C_R   0.923733 0.133165 0.791208 -0.093128
C38   C     C_R   0.073907 0.865920 0.207631 -0.095741
H15   H     H_    0.919272 0.117593 0.841171 0.178295
H16   H     H_    0.077201 0.880768 0.157245 0.177995
C39   C     C_R   0.948602 0.084564 0.719068 -0.113074
C40   C     C_R   0.049431 0.914600 0.280122 -0.111883
H17   H     H_    0.963498 0.031777 0.714140 0.157844
H18   H     H_    0.033668 0.966737 0.284934 0.157584
C41   C     C_R   0.955022 0.104867 0.654180 0.127674
C42   C     C_R   0.044476 0.895184 0.345513 0.128082
C43   C     C_R   0.934866 0.173470 0.662201 -0.122160
C44   C     C_R   0.065628 0.827368 0.337646 -0.125912
H19   H     H_    0.937982 0.189114 0.612357 0.105061
H20   H     H_    0.063534 0.812362 0.387850 0.105876
C45   C     C_R   0.910258 0.222041 0.734529 -0.122968
C46   C     C_R   0.089921 0.778779 0.265004 -0.118296
H21   H     H_    0.895380 0.275236 0.740598 0.122690
H22   H     H_    0.105643 0.726225 0.259061 0.125332
C47   C     C_R   0.904609 0.201821 0.798889 -0.072947
C48   C     C_R   0.094142 0.798127 0.200145 -0.066527
C49   C     C_R   0.931172 0.944691 0.523607 -0.214390
C50   C     C_R   0.068680 0.055322 0.476372 -0.214476
H23   H     H_    0.875821 0.900982 0.539886 0.197929
H24   H     H_    0.123975 0.098992 0.460019 0.198201
C51   C     C_R   0.948925 0.892140 0.446782 -0.047950
C52   C     C_R   0.050972 0.107878 0.553221 -0.048378
C53   C     C_R   0.018901 0.947304 0.422827 -0.008953
C54   C     C_R   0.980895 0.052732 0.577124 -0.008615
H25   H     H_    0.708477 0.899872 0.961134 0.220081
H26   H     H_    0.291381 0.100044 0.038964 0.220665
C55   C     C_R   0.691870 0.758082 0.924838 0.361852
C56   C     C_R   0.307362 0.241130 0.073951 0.363981
C57   C     C_R   0.647941 0.675331 0.933387 -0.177208
C58   C     C_R   0.351269 0.323586 0.065031 -0.177535
H27   H     H_    0.657106 0.613071 0.899470 0.186259
H28   H     H_    0.341437 0.385353 0.098027 0.187962
C59   C     C_R   0.591164 0.671861 0.985113 0.070832
C60   C     C_R   0.408999 0.327520 0.014271 0.055639
C61   C     C_R   0.579622 0.752493 0.030263 -0.101618
C62   C     C_R   0.421611 0.247632 0.970502 -0.077272
H29   H     H_    0.536690 0.750886 0.071121 0.153102
H30   H     H_    0.465680 0.249758 0.930764 0.161104
C63   C     C_R   0.622231 0.834330 0.021402 -0.195784
C64   C     C_R   0.378727 0.165897 0.979477 -0.178389
H31   H     H_    0.612122 0.895651 0.055458 0.166628
H32   H     H_    0.389481 0.105070 0.946336 0.174488
C65   C     C_R   0.677378 0.836778 0.968379 -0.151021
C66   C     C_R   0.322591 0.162991 0.031519 -0.167391
C67   C     C_R   0.592070 0.578140 0.043373 -0.237634
C68   C     C_R   0.408065 0.421151 0.955843 -0.236636
H33   H     H_    0.663431 0.640265 0.078168 0.182315
H34   H     H_    0.336696 0.359063 0.921062 0.182128
C69   C     C_R   0.550300 0.496583 0.052873 -0.043068
C70   C     C_R   0.449795 0.502862 0.946532 -0.040205
C71   C     C_R   0.457319 0.416710 0.008361 0.013100
C72   C     C_R   0.542837 0.582551 0.990838 0.013525
C73   C     C_R   0.061469 0.738925 0.903121 0.391417
C74   C     C_R   0.937567 0.260422 0.096236 0.391407
C75   C     C_R   0.067379 0.691079 0.941223 -0.240553
C76   C     C_R   0.932001 0.308520 0.058259 -0.239795
H35   H     H_    0.124340 0.734853 0.999487 0.213809
H36   H     H_    0.875135 0.264980 0.999991 0.212711
C77   C     C_R   0.999934 0.586957 0.905451 0.066821
C78   C     C_R   0.999673 0.412599 0.094154 0.064723
C79   C     C_R   0.925194 0.529812 0.831106 -0.252278
C80   C     C_R   0.074318 0.469447 0.168465 -0.249348
H37   H     H_    0.871563 0.449832 0.804032 0.171648
H38   H     H_    0.128106 0.549399 0.195633 0.175569
C81   C     C_R   0.917874 0.576303 0.792800 -0.275545
C82   C     C_R   0.081330 0.422685 0.206615 -0.274093
H39   H     H_    0.858482 0.530543 0.736179 0.220679
H40   H     H_    0.140671 0.468209 0.263197 0.221408
C83   C     C_R   0.985217 0.680656 0.827720 0.386722
C84   C     C_R   0.013760 0.318362 0.171577 0.386642
C85   C     C_R   0.949329 0.539623 0.007270 -0.255427
C86   C     C_R   0.050529 0.460242 0.992581 -0.248748
H41   H     H_    0.909932 0.570431 0.012394 0.186091
H42   H     H_    0.089902 0.429405 0.987447 0.186663
C87   C     C_R   0.946548 0.498450 0.054775 -0.063410
C88   C     C_R   0.053342 0.501451 0.945104 -0.060728
C89   C     C_R   0.997797 0.457913 0.047121 0.028712
C90   C     C_R   0.002033 0.541917 0.952693 0.028964
N1    N     N_R   0.750884 0.762230 0.872577 0.248313
O27   O     O_R   0.799753 0.844405 0.873014 -0.273026
O28   O     O_R   0.758870 0.685493 0.826760 -0.284156
N2    N     N_R   0.247736 0.236806 0.125587 0.248900
O29   O     O_R   0.199108 0.154937 0.125612 -0.272834
O30   O     O_R   0.239334 0.313297 0.170746 -0.285568
S1    S     S_3+6 0.969070 0.734917 0.777170 0.097475
O31   O     O_2   0.891570 0.650908 0.690433 -0.271273
O32   O     O_2   0.948216 0.810262 0.838994 -0.152520
O33   O     O_3   0.062972 0.798251 0.757648 -0.550908
H43   H     H_    0.052283 0.835792 0.739362 0.377579
S2    S     S_3+6 0.029617 0.263732 0.221880 0.097241
O34   O     O_2   0.049887 0.187903 0.159745 -0.152441
O35   O     O_2   0.107391 0.347450 0.308411 -0.270423
O36   O     O_3   0.935820 0.200967 0.241808 -0.553698
H44   H     H_    0.946231 0.163054 0.259791 0.377755
S3    S     S_3+6 0.152103 0.869529 0.950549 0.064688
O37   O     O_2   0.117416 0.932108 0.958474 -0.229261
O38   O     O_2   0.209485 0.919084 0.041924 -0.283581
O39   O     O_3   0.215536 0.869058 0.883870 -0.525472
H45   H     H_    0.239762 0.934205 0.888830 0.362954
S4    S     S_3+6 0.846705 0.129852 0.048567 0.064141
O40   O     O_2   0.789064 0.080894 0.957535 -0.282352
O41   O     O_2   0.881246 0.066875 0.039779 -0.231334
O42   O     O_3   0.783521 0.130030 0.115478 -0.527672
H46   H     H_    0.762155 0.066801 0.112959 0.365627
S5    S     S_3+6 0.593155 0.086242 0.893731 0.028755
O43   O     O_2   0.692300 0.167407 0.944798 -0.285887
O44   O     O_2   0.579372 0.998685 0.804557 -0.262375
O45   O     O_3   0.546615 0.139739 0.878691 -0.614362
H47   H     H_    0.582282 0.170991 0.849221 0.380754
S6    S     S_3+6 0.406407 0.913772 0.106271 0.053175
O46   O     O_2   0.423832 0.002183 0.196961 -0.229263
O47   O     O_2   0.306518 0.836640 0.057769 -0.278366
O48   O     O_3   0.448814 0.855230 0.118164 -0.557078
H48   H     H_    0.426638 0.791912 0.057248 0.324424
S7    S     S_3+6 0.310015 0.289989 0.382109 0.105519
O49   O     O_2   0.283622 0.236518 0.428057 -0.329057
O50   O     O_2   0.240373 0.307079 0.366280 -0.160234
O51   O     O_3   0.317604 0.215744 0.283984 -0.497258
H49   H     H_    0.263552 0.144130 0.256723 0.406377
S8    S     S_3+6 0.689892 0.710051 0.617798 0.105514
O52   O     O_2   0.759426 0.693143 0.634390 -0.159115
O53   O     O_2   0.716618 0.763022 0.571421 -0.329746
O54   O     O_3   0.681997 0.784714 0.715515 -0.496814
H50   H     H_    0.735934 0.856326 0.742525 0.405899
N3    N     N_R   0.422724 0.494212 0.364980 0.258499
O55   O     O_R   0.350678 0.493552 0.365472 -0.289605
O56   O     O_R   0.461291 0.502674 0.307499 -0.370841
N4    N     N_R   0.577279 0.505694 0.634857 0.258515
O57   O     O_R   0.539291 0.498345 0.692964 -0.372129
O58   O     O_R   0.648859 0.505420 0.633804 -0.291038

loop_
_geom_bond_atom_site_label_1
_geom_bond_atom_site_label_2
_geom_bond_distance
_ccdc_geom_bond_type
C14   C17   1.535503 S    
C45   C47   1.396934 A    
S7    O49   1.503170 D    
C67   C69   1.397350 A    
C10   C69   1.433592 S    
Zn7   O21   1.942508 S    
C24   S6    1.781444 S    
Zn2   O20   1.947836 S    
O48   H48   0.990476 S    
Zn5   O15   1.956313 S    
C76   C78   1.398909 A    
C38   C48   1.397566 A    
C7    C34   1.461375 S    
S2    O34   1.502231 D    
C88   C90   1.415376 A    
C13   C15   1.547937 S    
C55   C65   1.405912 A    
N3    O55   1.300217 A    
C14   H4    1.106742 S    
C49   H23   1.085099 S    
H13   C47   1.081643 S    
C22   C25   1.543123 S    
S4    O42   1.681823 S    
Zn4   O2    1.958971 S    
O24   C2    1.283084 A    
C59   C72   1.476110 S    
S4    O41   1.502367 D    
C87   C89   1.415234 A    
C30   C36   1.530979 S    
C60   C71   1.476395 S    
C82   C84   1.405008 A    
C32   H12   1.110365 S    
C57   H27   1.083289 S    
Zn8   O2    1.952044 S    
C43   C45   1.398369 A    
C61   H29   1.082512 S    
Zn5   O9    1.943168 S    
N2    O29   1.301168 A    
O20   C6    1.273678 A    
O17   C11   1.274883 A    
C20   H6    1.109941 S    
C3    C26   1.489697 S    
C42   C53   1.487575 S    
C46   C48   1.397197 A    
O15   C9    1.271544 A    
C22   C28   1.556361 S    
C9    C70   1.433796 S    
Zn7   O1    1.952044 S    
C58   C60   1.402346 A    
C27   H9    1.109060 S    
C79   C81   1.394290 A    
C22   C24   1.541757 S    
C51   C53   1.412031 A    
C61   C63   1.394258 A    
C29   C34   1.540333 S    
C35   N3    1.458802 S    
C11   C18   1.481814 S    
O19   C5    1.273573 A    
S8    O52   1.502240 D    
C15   H1    1.108782 S    
C44   H20   1.083557 S    
C12   C17   1.481789 S    
C16   H2    1.108759 S    
C23   S5    1.780985 S    
Zn3   O11   1.952004 S    
S6    O46   1.502175 D    
C85   C87   1.397220 A    
C39   H17   1.083267 S    
C82   H40   1.082081 S    
C37   C47   1.397457 A    
C13   H3    1.106845 S    
O21   C7    1.274202 A    
Zn1   O17   1.956477 S    
C14   C16   1.547924 S    
C68   C70   1.397441 A    
O39   H45   0.990061 S    
C8    C33   1.461276 S    
C41   C43   1.407356 A    
S1    O31   1.503330 D    
S1    O32   1.502206 D    
C78   C89   1.476116 S    
C29   C31   1.550901 S    
C79   H37   1.083437 S    
C74   C84   1.420599 A    
C64   C66   1.397796 A    
S7    O50   1.502237 D    
C29   C35   1.530986 S    
O12   C10   1.275701 A    
O11   C9    1.275919 A    
C40   C42   1.406758 A    
O13   C11   1.274233 A    
C50   C53   1.389488 A    
N3    O56   1.299773 A    
S6    O47   1.501847 D    
Zn6   O10   1.943165 S    
S7    O51   1.680951 S    
C23   C25   1.531577 S    
O9    C7    1.276170 A    
C74   S4    1.770744 S    
C22   H8    1.109579 S    
C37   H15   1.082896 S    
O42   H46   0.989719 S    
Zn1   O1    1.938516 S    
N4    O57   1.299577 A    
C6    C87   1.458880 S    
N1    O28   1.301310 A    
C56   C58   1.405224 A    
C38   C40   1.399377 A    
S3    O39   1.681655 S    
N1    O27   1.301238 A    
C33   C35   1.533450 S    
C37   C39   1.399356 A    
O51   H49   0.990656 S    
C30   S8    1.784138 S    
C55   C57   1.405311 A    
O36   H44   0.990455 S    
Zn8   O14   1.949897 S    
C39   C41   1.406742 A    
C16   C18   1.535406 S    
C15   C20   1.547616 S    
Zn6   O26   1.918359 S    
Zn5   O25   1.918358 S    
S4    O40   1.503051 D    
C73   S3    1.770873 S    
C73   C75   1.403711 A    
C86   H42   1.085139 S    
Zn4   O8    1.937432 S    
Zn7   O3    1.924029 S    
S3    O37   1.502300 D    
C63   H31   1.080883 S    
Zn5   O1    1.950107 S    
Zn3   O1    1.958974 S    
C77   C90   1.476355 S    
O6    C4    1.283164 A    
S3    O38   1.502951 D    
C69   C71   1.410145 A    
C40   H18   1.083503 S    
O54   H50   0.990678 S    
C56   C66   1.405808 A    
C23   C28   1.541083 S    
Zn8   O4    1.924028 S    
S5    O45   1.680400 S    
Zn6   O16   1.956313 S    
S6    O48   1.680022 S    
S5    O44   1.502521 D    
C56   N2    1.438431 S    
Zn2   O18   1.956475 S    
C86   C89   1.387859 A    
C42   C44   1.407272 A    
C31   H11   1.110372 S    
O7    C5    1.284904 A    
C81   H39   1.082157 S    
Zn4   O24   1.920487 S    
C1    C52   1.444569 S    
C70   C72   1.410194 A    
O8    C6    1.284844 A    
C36   N4    1.458757 S    
C58   H28   1.083277 S    
C76   H36   1.081892 S    
O33   H43   0.990493 S    
O14   C12   1.274318 A    
C49   C54   1.389857 A    
C75   C77   1.399081 A    
C30   C33   1.540134 S    
C17   C19   1.535335 S    
O16   C10   1.271633 A    
C80   H38   1.083374 S    
O4    C2    1.284000 A    
C30   C32   1.551007 S    
C60   C62   1.400697 A    
Zn2   O2    1.938519 S    
C24   C26   1.531538 S    
C86   C88   1.397164 A    
C68   C71   1.374034 A    
C74   C76   1.403619 A    
Zn3   O7    1.937434 S    
C62   H30   1.082894 S    
C46   H22   1.082965 S    
C50   C52   1.398835 A    
S1    O33   1.680850 S    
C73   C83   1.420520 A    
C75   H35   1.081828 S    
C49   C51   1.398984 A    
H25   C65   1.079654 S    
C77   C79   1.397087 A    
C68   H34   1.085176 S    
O26   C4    1.282001 A    
C16   C19   1.547609 S    
H26   C66   1.079765 S    
C21   C23   1.541720 S    
C32   C34   1.548587 S    
C55   N1    1.438348 S    
C78   C80   1.396940 A    
O45   H47   0.991024 S    
C2    C51   1.444671 S    
C64   H32   1.080593 S    
C32   C35   1.543893 S    
Zn6   O2    1.950105 S    
S2    O35   1.503330 D    
C43   H19   1.083222 S    
C31   C36   1.543890 S    
C14   C20   1.546658 S    
C57   C59   1.402189 A    
C24   C27   1.540881 S    
C85   C90   1.388007 A    
C62   C64   1.394168 A    
Zn8   O22   1.942510 S    
C63   C65   1.397738 A    
O10   C8    1.276022 A    
C85   H41   1.085137 S    
C84   S2    1.772271 S    
Zn1   O19   1.947834 S    
C15   C17   1.535423 S    
Zn3   O23   1.920487 S    
Zn7   O13   1.949898 S    
C21   C26   1.542767 S    
C50   H24   1.085121 S    
O5    C3    1.283030 A    
S8    O54   1.680961 S    
H14   C48   1.081651 S    
C44   C46   1.398525 A    
C38   H16   1.083241 S    
O3    C1    1.283979 A    
C34   C36   1.533425 S    
C18   C20   1.535352 S    
O25   C3    1.282009 A    
O23   C1    1.283040 A    
C21   C27   1.556139 S    
C81   C83   1.405039 A    
Zn2   O6    1.924191 S    
C52   C54   1.412251 A    
C59   C61   1.400225 A    
S2    O36   1.680754 S    
C19   H5    1.109942 S    
O18   C12   1.274789 A    
C41   C54   1.488055 S    
Zn4   O12   1.952005 S    
C21   H7    1.109592 S    
Zn1   O5    1.924191 S    
C4    C25   1.489960 S    
C29   S7    1.784168 S    
C67   C72   1.373621 A    
S8    O53   1.503185 D    
S5    O43   1.501993 D    
C80   C82   1.394236 A    
C13   C19   1.546693 S    
C67   H33   1.085196 S    
C26   C28   1.544567 S    
O22   C8    1.274298 A    
C28   H10   1.109058 S    
N2    O30   1.301360 A    
C25   C27   1.544432 S    
C5    C88   1.458789 S    
C31   C33   1.548510 S    
C45   H21   1.082757 S    
N4    O58   1.300228 A    
C83   S1    1.772193 S    
C13   C18   1.535619 S    
