data_mof_unit_9286.cif
_audit_creation_date              2012-12-10T19:00:12-0500
_audit_creation_method            fapswitch 2.2
_symmetry_space_group_name_H-M    P1
_symmetry_Int_Tables_number       1
_space_group_crystal_system       triclinic
_cell_length_a                    9.540263
_cell_length_b                    10.831429
_cell_length_c                    13.36515
_cell_angle_alpha                 90.668367
_cell_angle_beta                  73.122251
_cell_angle_gamma                 90.387128
_cell_volume                      1321.49717295

loop_
_atom_site_label
_atom_site_type_symbol
_atom_type_description
_atom_site_fract_x
_atom_site_fract_y
_atom_site_fract_z
_atom_type_partial_charge
C1    C     C_R   0.499362 0.737644 0.502721 0.793133
C2    C     C_R   0.427563 0.560615 0.981746 0.032128
C3    C     C_R   0.471856 0.568906 0.871276 0.076661
C4    C     C_R   0.537375 0.568170 0.034241 0.074788
C5    C     C_R   0.678546 0.613830 0.981324 0.173837
C6    C     C_R   0.710123 0.647543 0.876781 -0.248236
C7    C     C_R   0.609042 0.623819 0.821956 -0.195334
C8    C     C_R   0.514095 0.521270 0.134879 -0.223305
C9    C     C_R   0.757178 0.583852 0.136540 -0.203437
C10   C     C_R   0.375289 0.525677 0.814924 -0.105523
C11   C     C_R   0.368213 0.935178 0.517717 0.111354
C12   C     C_R   0.422267 0.508593 0.700165 0.785755
C13   C     C_R   0.495541 0.870645 0.514294 -0.093819
C14   C     C_R   0.617658 0.936577 0.525414 -0.216738
C15   C     C_R   0.617510 0.065377 0.524625 -0.213546
C16   C     C_R   0.495284 0.129033 0.512650 -0.098743
C17   C     C_R   0.368225 0.062318 0.516499 0.132006
C18   C     C_3   0.273745 0.064908 0.444987 -0.487815
C19   C     C_3   0.272204 0.925047 0.447522 -0.437124
C20   C     C_R   0.941110 0.401113 0.460915 0.255443
C21   C     C_R   0.907150 0.592214 0.547326 -0.064749
C22   C     C_R   0.055796 0.591994 0.547697 -0.065444
C23   C     C_R   0.499068 0.262189 0.501869 0.805594
C24   C     C_R   0.088545 0.400882 0.460979 0.258410
C25   C     C_3   0.136403 0.351761 0.351558 -0.503764
C26   C     C_3   0.977325 0.351699 0.352121 -0.486166
C27   C     C_R   0.577884 0.505227 0.299902 0.801754
C28   C     C_R   0.786590 0.623396 0.033396 -0.205204
C29   C     C_R   0.620290 0.532354 0.187703 -0.060188
C30   C     C_R   0.230463 0.494722 0.870002 -0.210474
C31   C     C_R   0.179954 0.510285 0.977732 -0.195132
C32   C     C_R   0.275579 0.546857 0.034030 -0.003740
Cu1   Cu    Cu3+1 0.359330 0.500020 0.500010 0.949252
Cu2   Cu    Cu3+1 0.640670 0.499980 0.499990 0.942584
H1    H     H_    0.840303 0.595199 0.176542 0.165147
H2    H     H_    0.715431 0.114253 0.528132 0.162142
H3    H     H_    0.164733 0.106289 0.483197 0.196085
H4    H     H_    0.332965 0.101715 0.366721 0.194383
H5    H     H_    0.162764 0.885872 0.488239 0.191146
H6    H     H_    0.328206 0.881417 0.370659 0.212206
H7    H     H_    0.837660 0.668472 0.583452 0.118758
H8    H     H_    0.096828 0.667504 0.584923 0.130680
H9    H     H_    0.204967 0.418034 0.296065 0.229054
H10   H     H_    0.182526 0.257785 0.345763 0.185833
H11   H     H_    0.954310 0.418363 0.296323 0.226354
H12   H     H_    0.815452 0.687462 0.836017 0.137692
H13   H     H_    0.931876 0.257428 0.349042 0.190085
H14   H     H_    0.893557 0.661454 0.994291 0.140255
H15   H     H_    0.414449 0.472204 0.172177 0.145447
H16   H     H_    0.153863 0.462662 0.829303 0.166170
H17   H     H_    0.064874 0.495562 0.017235 0.148216
H18   H     H_    0.638422 0.653394 0.741837 0.161935
H19   H     H_    0.715632 0.889305 0.529239 0.158235
N1    N     N_R   0.852320 0.499070 0.499340 -0.180235
N2    N     N_R   0.148230 0.499110 0.499340 -0.178121
O1    O     O_R   0.381190 0.680360 0.500000 -0.581427
O2    O     O_R   0.618780 0.680320 0.499990 -0.593493
O3    O     O_R   0.323230 0.500000 0.650990 -0.583247
O4    O     O_R   0.560820 0.499960 0.650980 -0.582506
O5    O     O_R   0.381220 0.319680 0.500010 -0.576898
O6    O     O_R   0.618810 0.319640 0.500000 -0.583659
O7    O     O_R   0.439180 0.500040 0.349020 -0.573597
O8    O     O_R   0.676770 0.500000 0.349010 -0.580433
C33   C     C_1   0.210317 0.593106 0.139103 0.174059
N3    N     N_1   0.157635 0.631850 0.222591 -0.294483

loop_
_geom_bond_atom_site_label_1
_geom_bond_atom_site_label_2
_ccdc_geom_bond_type
C17   C18   S    
Cu1   N2    S    
Cu2   O2    S    
C2    C4    A    
Cu2   N1    S    
C6    C7    A    
C27   O7    A    
C1    O2    A    
Cu1   O5    S    
C5    C28   A    
C27   C29   S    
C10   C30   A    
C31   C32   A    
C9    C29   A    
C30   C31   A    
C4    C8    A    
C12   O3    A    
C33   N3    T    
C25   H9    S    
Cu1   O1    S    
C2    C3    A    
C30   H16   S    
C22   N2    A    
C3    C10   A    
C22   H8    S    
C13   C14   A    
C24   N2    A    
C23   O5    A    
C11   C13   A    
C11   C19   S    
Cu1   O3    S    
C27   O8    A    
C26   H13   S    
C21   H7    S    
C5    C6    A    
C19   H5    S    
C25   H10   S    
C2    C32   A    
Cu2   O8    S    
C18   H3    S    
C7    H18   S    
Cu1   Cu2   S    
C16   C23   S    
C3    C7    A    
C18   H4    S    
C21   N1    A    
C10   C12   S    
Cu2   O4    S    
C1    C13   S    
C19   H6    S    
C8    C29   A    
C15   C16   A    
C16   C17   A    
C15   H2    S    
C23   O6    A    
C14   H19   S    
C24   C25   S    
C32   C33   S    
C20   N1    A    
C18   C19   S    
C9    H1    S    
C14   C15   A    
C11   C17   A    
C6    H12   S    
C26   H11   S    
C25   C26   S    
C21   C22   A    
C12   O4    A    
Cu1   O7    S    
C8    H15   S    
C1    O1    A    
Cu2   O6    S    
C28   H14   S    
C20   C24   A    
C9    C28   A    
C31   H17   S    
C4    C5    A    
C20   C26   S    
