data_mof_unit_18899.cif
_audit_creation_date              2013-03-05T15:48:15-0500
_audit_creation_method            fapswitch 2.2
_symmetry_space_group_name_H-M    P1
_symmetry_Int_Tables_number       1
_space_group_crystal_system       triclinic
_cell_length_a                    15.78133
_cell_length_b                    15.66254
_cell_length_c                    34.581477
_cell_angle_alpha                 89.596362
_cell_angle_beta                  90.035672
_cell_angle_gamma                 120.365796
_cell_volume                      7374.86419494

loop_
_atom_site_label
_atom_site_type_symbol
_atom_site_description
_atom_site_fract_x
_atom_site_fract_y
_atom_site_fract_z
_atom_type_partial_charge
O1    O     O_R   0.498680 0.159540 0.541860 -0.542142
O2    O     O_R   0.840460 0.339140 0.541860 -0.522720
O3    O     O_R   0.660860 0.501320 0.541860 -0.540914
O4    O     O_R   0.159540 0.498680 0.041860 -0.531602
O5    O     O_R   0.339140 0.840460 0.041860 -0.523071
O6    O     O_R   0.501320 0.660860 0.041860 -0.534507
O7    O     O_R   0.532760 0.358060 0.540030 -0.473899
O8    O     O_R   0.641940 0.174700 0.540030 -0.463457
O9    O     O_R   0.825300 0.467240 0.540030 -0.485579
O10   O     O_R   0.358060 0.532760 0.040030 -0.460066
O11   O     O_R   0.174700 0.641940 0.040030 -0.458482
O12   O     O_R   0.467240 0.825300 0.040030 -0.469438
C1    C     C_R   0.578446 0.441362 0.554910 0.582783
C2    C     C_R   0.558864 0.137267 0.555276 0.552153
C3    C     C_R   0.862611 0.421600 0.555013 0.573080
C4    C     C_R   0.441357 0.577493 0.055029 0.569838
C5    C     C_R   0.135758 0.557867 0.054764 0.563939
C6    C     C_R   0.421452 0.862987 0.055051 0.566654
O13   O     O_R   0.498590 0.161190 0.456930 -0.495409
O14   O     O_R   0.838810 0.337400 0.456930 -0.481422
O15   O     O_R   0.662600 0.501410 0.456930 -0.482753
O16   O     O_R   0.161190 0.498590 0.956930 -0.488243
O17   O     O_R   0.337400 0.838810 0.956930 -0.493718
O18   O     O_R   0.501410 0.662600 0.956930 -0.483515
O19   O     O_R   0.532680 0.359580 0.461300 -0.499800
O20   O     O_R   0.640420 0.173100 0.461300 -0.516023
O21   O     O_R   0.826900 0.467320 0.461300 -0.525766
O22   O     O_R   0.359580 0.532680 0.961300 -0.512602
O23   O     O_R   0.173100 0.640420 0.961300 -0.507978
O24   O     O_R   0.467320 0.826900 0.961300 -0.512148
C7    C     C_R   0.604581 0.420910 0.439841 0.563974
C8    C     C_R   0.558199 0.136389 0.445329 0.544613
C9    C     C_R   0.864458 0.422654 0.445386 0.557034
C10   C     C_R   0.422315 0.602682 0.939607 0.565026
C11   C     C_R   0.178070 0.577492 0.939445 0.552099
C12   C     C_R   0.421882 0.864737 0.945406 0.550755
Cr1   Cr    Cr6+3 0.522350 0.263930 0.500020 1.019050
Cr2   Cr    Cr6+3 0.736070 0.258420 0.500020 1.027650
Cr3   Cr    Cr6+3 0.741580 0.477650 0.500020 1.010781
Cr4   Cr    Cr6+3 0.263930 0.522350 0.000020 1.024516
Cr5   Cr    Cr6+3 0.258420 0.736070 0.000020 1.017565
Cr6   Cr    Cr6+3 0.477650 0.741580 0.000020 1.018205
O25   O     O_3   0.666667 0.333333 0.499990 -0.274203
O26   O     O_3   0.333333 0.666667 0.999990 -0.287141
N1    N     N_R   0.935762 0.443104 0.777466 -0.156370
N2    N     N_R   0.564066 0.518201 0.775500 -0.160729
N3    N     N_R   0.504916 0.086059 0.777045 -0.146861
N4    N     N_R   0.445868 0.031805 0.266980 -0.167694
N5    N     N_R   0.627350 0.511035 0.254838 -0.160880
N6    N     N_R   0.966537 0.411880 0.266216 -0.160595
N7    N     N_R   0.909251 0.429032 0.740603 -0.229197
N8    N     N_R   0.577532 0.504917 0.738707 -0.234002
N9    N     N_R   0.509404 0.098463 0.738961 -0.219068
N10   N     N_R   0.440669 0.024586 0.228688 -0.237011
N11   N     N_R   0.617071 0.520656 0.217179 -0.230311
N12   N     N_R   0.973423 0.414885 0.227862 -0.239119
C13   C     C_R   0.901649 0.447734 0.594259 0.052572
C14   C     C_R   0.552136 0.456124 0.593820 0.052737
C15   C     C_R   0.543121 0.090580 0.593889 0.042758
C16   C     C_R   0.456042 0.921680 0.090958 0.046388
C17   C     C_R   0.467694 0.536088 0.088665 0.043090
C18   C     C_R   0.074165 0.534420 0.089926 0.038539
C19   C     C_R   0.872017 0.370275 0.621132 -0.164731
C20   C     C_R   0.629444 0.511855 0.619404 -0.164038
C21   C     C_R   0.471003 0.089598 0.617873 -0.164217
C22   C     C_R   0.390403 0.941489 0.110993 -0.164127
C23   C     C_R   0.560841 0.593406 0.105455 -0.175432
C24   C     C_R   0.038056 0.441678 0.107866 -0.177816
C25   C     C_R   0.885753 0.389771 0.660337 -0.139082
C26   C     C_R   0.611831 0.510914 0.658538 -0.136946
C27   C     C_R   0.473949 0.078257 0.657611 -0.134254
C28   C     C_R   0.411355 0.979573 0.148183 -0.137232
C29   C     C_R   0.584506 0.564167 0.139954 -0.135615
C30   C     C_R   0.000968 0.425254 0.145415 -0.136008
C31   C     C_R   0.931205 0.487416 0.673635 0.007257
C32   C     C_R   0.516089 0.455630 0.673095 0.010113
C33   C     C_R   0.547969 0.065702 0.674280 0.008771
C34   C     C_R   0.498857 0.999500 0.166305 0.010564
C35   C     C_R   0.515985 0.475979 0.158494 0.009652
C36   C     C_R   0.997767 0.500907 0.165607 0.011938
C37   C     C_R   0.966710 0.565774 0.646787 -0.115672
C38   C     C_R   0.437263 0.405036 0.647479 -0.114028
C39   C     C_R   0.613863 0.055749 0.650260 -0.118189
C40   C     C_R   0.569209 0.989618 0.145126 -0.109324
C41   C     C_R   0.426404 0.413654 0.140099 -0.110663
C42   C     C_R   0.023351 0.589793 0.146310 -0.110021
C43   C     C_R   0.950931 0.546613 0.607083 0.117928
C44   C     C_R   0.454711 0.403799 0.607794 0.118514
C45   C     C_R   0.611634 0.067021 0.610020 0.128474
C46   C     C_R   0.548362 0.950155 0.107699 0.118936
C47   C     C_R   0.401386 0.442940 0.105486 0.121641
C48   C     C_R   0.060574 0.607117 0.108529 0.127558
N13   N     N_R   0.005170 0.599086 0.728905 -0.254856
N14   N     N_R   0.407663 0.415027 0.729519 -0.260782
N15   N     N_R   0.601030 0.019588 0.734084 -0.261112
N16   N     N_R   0.588190 0.023744 0.227455 -0.234269
N17   N     N_R   0.462227 0.377718 0.218971 -0.233921
N18   N     N_R   0.973163 0.563823 0.227059 -0.234319
N19   N     N_R   0.031473 0.613257 0.765926 -0.272477
N20   N     N_R   0.394065 0.428131 0.766450 -0.274054
N21   N     N_R   0.596072 0.006590 0.772320 -0.270541
N22   N     N_R   0.593418 0.031042 0.265808 -0.248675
N23   N     N_R   0.472549 0.367941 0.256708 -0.234744
N24   N     N_R   0.966139 0.560698 0.265429 -0.246875
C49   C     C_R   0.999989 0.534990 0.790430 0.357325
C50   C     C_R   0.472220 0.482467 0.789621 0.364070
C51   C     C_R   0.545686 0.037511 0.794334 0.360209
C52   C     C_R   0.521363 0.033404 0.286348 0.348307
C53   C     C_R   0.554520 0.435732 0.275466 0.345784
C54   C     C_R   0.964712 0.485647 0.285835 0.352481
C55   C     C_R   0.946291 0.506198 0.715322 0.332170
C56   C     C_R   0.499750 0.455888 0.714742 0.337249
C57   C     C_R   0.554813 0.062730 0.716629 0.330338
C58   C     C_R   0.511363 0.019821 0.208139 0.340624
C59   C     C_R   0.533674 0.455227 0.198554 0.332750
C60   C     C_R   0.977656 0.491325 0.207518 0.335281
C61   C     C_R   0.077832 0.479043 0.839141 0.274415
C62   C     C_R   0.514484 0.615175 0.837384 0.275067
C63   C     C_R   0.419700 0.964743 0.846195 0.282132
C64   C     C_R   0.440432 0.006415 0.351641 0.264568
C65   C     C_R   0.602183 0.522401 0.339279 0.264180
C66   C     C_R   0.986108 0.425290 0.350923 0.269168
C67   C     C_R   0.116725 0.485494 0.876332 0.127549
C68   C     C_R   0.504351 0.644813 0.874522 0.123363
C69   C     C_R   0.393259 0.936605 0.884969 0.134182
C70   C     C_R   0.448481 0.030403 0.391263 0.143089
C71   C     C_R   0.613911 0.520264 0.379632 0.147510
C72   C     C_R   0.964927 0.412400 0.390956 0.141922
C73   C     C_R   0.113326 0.637453 0.886723 -0.190313
C74   C     C_R   0.376484 0.475116 0.888870 -0.183957
C75   C     C_R   0.554578 0.956722 0.896551 -0.190795
C76   C     C_R   0.626231 0.107810 0.385906 -0.187971
C77   C     C_R   0.534753 0.340557 0.377361 -0.190231
C78   C     C_R   0.901400 0.525047 0.386296 -0.191312
C79   C     C_R   0.069340 0.627274 0.850935 -0.204317
C80   C     C_R   0.387847 0.445895 0.852443 -0.206290
C81   C     C_R   0.584586 0.997250 0.859547 -0.201820
C82   C     C_R   0.618127 0.086037 0.346802 -0.185112
C83   C     C_R   0.524091 0.343128 0.337437 -0.173556
C84   C     C_R   0.921979 0.537223 0.346961 -0.184389
C85   C     C_R   0.048181 0.546556 0.827672 0.018141
C86   C     C_R   0.458499 0.514657 0.827187 0.021286
C87   C     C_R   0.517599 0.001597 0.834239 0.012587
C88   C     C_R   0.526316 0.040692 0.328858 -0.000464
C89   C     C_R   0.560601 0.433662 0.317937 0.005949
C90   C     C_R   0.958655 0.483186 0.328482 0.012490
C91   C     C_R   0.134645 0.565544 0.900513 0.005700
C92   C     C_R   0.435021 0.574029 0.900562 0.009833
C93   C     C_R   0.458439 0.923984 0.909386 0.000372
C94   C     C_R   0.542794 0.085951 0.407932 -0.005580
C95   C     C_R   0.581819 0.428273 0.398780 -0.003227
C96   C     C_R   0.916584 0.458142 0.408098 0.000220
H1    H     H_    0.832643 0.293690 0.612052 0.146119
H2    H     H_    0.704948 0.552014 0.609570 0.127638
H3    H     H_    0.416258 0.104872 0.606359 0.120905
H4    H     H_    0.319688 0.922220 0.098850 0.140057
H5    H     H_    0.614929 0.663144 0.092619 0.122878
H6    H     H_    0.043133 0.383187 0.093632 0.122784
H7    H     H_    0.859512 0.327709 0.680214 0.149486
H8    H     H_    0.674036 0.552715 0.677393 0.148721
H9    H     H_    0.419748 0.082479 0.675407 0.144387
H10   H     H_    0.356261 0.988204 0.163429 0.143575
H11   H     H_    0.655212 0.613158 0.152888 0.143565
H12   H     H_    0.979241 0.354826 0.159220 0.142881
H13   H     H_    0.005196 0.641752 0.656529 0.131523
H14   H     H_    0.362440 0.365094 0.658195 0.128543
H15   H     H_    0.669006 0.042255 0.662788 0.120700
H16   H     H_    0.638583 0.007593 0.158250 0.135005
H17   H     H_    0.373467 0.343890 0.153388 0.134204
H18   H     H_    0.018432 0.647950 0.161045 0.131696
H19   H     H_    0.128846 0.701189 0.903956 0.159002
H20   H     H_    0.322406 0.419336 0.908093 0.160172
H21   H     H_    0.606050 0.949192 0.914916 0.145980
H22   H     H_    0.699248 0.149363 0.398092 0.162521
H23   H     H_    0.509742 0.269679 0.391375 0.155355
H24   H     H_    0.865589 0.561856 0.398870 0.155018
H25   H     H_    0.050848 0.682006 0.841566 0.139220
H26   H     H_    0.342983 0.368983 0.844282 0.139842
H27   H     H_    0.659150 0.022389 0.850255 0.144268
H28   H     H_    0.684676 0.110460 0.330123 0.165481
H29   H     H_    0.490479 0.274333 0.321556 0.166049
H30   H     H_    0.902900 0.584272 0.330571 0.166427
N25   N     N_2   0.987553 0.626537 0.580126 -0.516919
H31   H     H_    0.062168 0.673983 0.582872 0.241378
C97   C     C_3   0.934581 0.679634 0.579490 -0.293244
H32   H     H_    0.942168 0.716846 0.607582 0.123849
H33   H     H_    0.855700 0.628491 0.573420 0.183058
H34   H     H_    0.964855 0.736738 0.556246 0.133301
N26   N     N_2   0.374447 0.352963 0.582021 -0.513281
H35   H     H_    0.323882 0.375953 0.584366 0.241120
C98   C     C_3   0.327717 0.246291 0.583824 -0.289648
H36   H     H_    0.292673 0.218084 0.612549 0.122855
H37   H     H_    0.382232 0.222901 0.578502 0.186859
H38   H     H_    0.270309 0.213242 0.561181 0.134480
N27   N     N_2   0.681712 0.059898 0.586389 -0.497086
H39   H     H_    0.743704 0.071145 0.600855 0.237058
C99   C     C_3   0.640707 0.973146 0.562163 -0.294897
H40   H     H_    0.609340 0.905065 0.580366 0.130352
H41   H     H_    0.699400 0.976068 0.543526 0.135715
H42   H     H_    0.582535 0.970056 0.543119 0.147166
N28   N     N_2   0.619608 0.937392 0.087590 -0.502913
H43   H     H_    0.687055 0.001587 0.086046 0.241498
C100  C     C_3   0.628223 0.854729 0.101355 -0.279092
H44   H     H_    0.660676 0.869638 0.130796 0.122998
H45   H     H_    0.676682 0.843145 0.081498 0.140513
H46   H     H_    0.554975 0.786220 0.102219 0.179939
N29   N     N_2   0.309407 0.378312 0.088061 -0.499362
H47   H     H_    0.296271 0.307046 0.085465 0.241352
C101  C     C_3   0.227442 0.380045 0.105827 -0.278600
H48   H     H_    0.216466 0.351526 0.136025 0.125928
H49   H     H_    0.159899 0.332116 0.089103 0.140290
H50   H     H_    0.240180 0.456604 0.105901 0.177849
N30   N     N_2   0.088698 0.699692 0.090449 -0.491312
H51   H     H_    0.112422 0.757873 0.109438 0.237289
C102  C     C_3   0.017161 0.696285 0.063379 -0.281110
H52   H     H_    0.948413 0.678749 0.078841 0.131429
H53   H     H_    0.000311 0.639618 0.040880 0.162626
H54   H     H_    0.047131 0.769387 0.048818 0.131929
N31   N     N_2   0.137974 0.411731 0.889092 -0.494694
H55   H     H_    0.177902 0.397257 0.869382 0.247564
C103  C     C_3   0.053127 0.321586 0.902900 -0.259398
H56   H     H_    0.001782 0.282655 0.878711 0.171704
H57   H     H_    0.014014 0.338043 0.925721 0.173013
H58   H     H_    0.077294 0.271951 0.915438 0.125568
N32   N     N_2   0.561771 0.745935 0.885292 -0.495851
H59   H     H_    0.557002 0.793411 0.865843 0.246289
C104  C     C_3   0.662494 0.777550 0.895199 -0.255132
H60   H     H_    0.704075 0.778230 0.869188 0.177566
H61   H     H_    0.665477 0.727657 0.917457 0.173979
H62   H     H_    0.698281 0.853560 0.907080 0.118731
N33   N     N_2   0.301082 0.920124 0.899021 -0.490806
H63   H     H_    0.245160 0.894179 0.879073 0.259259
C105  C     C_3   0.308167 0.002231 0.920634 -0.272789
H64   H     H_    0.332776 0.067734 0.901355 0.153287
H65   H     H_    0.360693 0.021832 0.944963 0.161549
H66   H     H_    0.235050 0.981329 0.932821 0.131622
N34   N     N_2   0.362351 0.001861 0.413776 -0.484888
H67   H     H_    0.301379 0.989142 0.398186 0.284506
C106  C     C_3   0.340286 0.925241 0.442293 -0.299866
H68   H     H_    0.324360 0.855555 0.427871 0.117246
H69   H     H_    0.274860 0.911165 0.459386 0.142105
H70   H     H_    0.402604 0.948174 0.462552 0.150865
N35   N     N_2   0.659339 0.610882 0.400533 -0.477821
H71   H     H_    0.711798 0.671519 0.385291 0.277697
C107  C     C_3   0.592347 0.631608 0.421436 -0.282089
H72   H     H_    0.550664 0.651502 0.401076 0.115146
H73   H     H_    0.634845 0.694989 0.441074 0.141950
H74   H     H_    0.539969 0.566790 0.439187 0.171248
N36   N     N_2   0.986533 0.348837 0.413296 -0.488912
H75   H     H_    0.991347 0.295290 0.397916 0.275944
C108  C     C_3   0.065387 0.399067 0.440857 -0.304525
H76   H     H_    0.135552 0.448643 0.425582 0.111188
H77   H     H_    0.073954 0.343580 0.457909 0.144119
H78   H     H_    0.049025 0.443343 0.461246 0.158390
O27   O     O_3   0.064437 0.403412 0.814701 -0.557954
C109  C     C_3   0.151784 0.431530 0.793473 0.001321
H79   H     H_    0.167572 0.370154 0.796013 0.163453
H80   H     H_    0.218304 0.499341 0.804404 0.101534
C110  C     C_3   0.136381 0.445958 0.750703 -0.257418
H81   H     H_    0.067093 0.381179 0.740380 0.201319
H82   H     H_    0.130749 0.513222 0.747184 0.180030
C111  C     C_3   0.221022 0.458076 0.725562 -0.472282
H83   H     H_    0.291751 0.520533 0.736012 0.163728
H84   H     H_    0.209644 0.473920 0.695261 0.142413
H85   H     H_    0.223687 0.388624 0.725995 0.190173
O28   O     O_3   0.584587 0.683279 0.812117 -0.560827
C112  C     C_3   0.545324 0.731209 0.789691 0.000276
H86   H     H_    0.592054 0.812053 0.794660 0.168027
H87   H     H_    0.468432 0.710438 0.797432 0.093619
C113  C     C_3   0.549307 0.709776 0.746734 -0.250757
H88   H     H_    0.617145 0.707231 0.740630 0.211886
H89   H     H_    0.484882 0.636616 0.739644 0.165029
C114  C     C_3   0.549133 0.788342 0.720507 -0.474818
H90   H     H_    0.487042 0.799542 0.727739 0.163495
H91   H     H_    0.542093 0.764783 0.689897 0.141766
H92   H     H_    0.619332 0.859320 0.723690 0.188453
O29   O     O_3   0.349831 0.956345 0.819708 -0.554352
C115  C     C_3   0.291648 0.856261 0.807909 -0.001089
H93   H     H_    0.222444 0.847036 0.795647 0.171698
H94   H     H_    0.269808 0.802761 0.832504 0.117175
C116  C     C_3   0.343306 0.829401 0.776733 -0.269309
H95   H     H_    0.367747 0.884075 0.752622 0.199465
H96   H     H_    0.408437 0.830452 0.789401 0.148055
C117  C     C_3   0.275358 0.726367 0.760726 -0.485700
H97   H     H_    0.244539 0.671093 0.784611 0.149415
H98   H     H_    0.316534 0.704998 0.740864 0.137303
H99   H     H_    0.215028 0.726074 0.744181 0.193495
O30   O     O_3   0.348485 0.953251 0.334938 -0.559653
C118  C     C_3   0.323653 0.853302 0.331371 0.008104
H100  H     H_    0.294327 0.814185 0.359420 0.127488
H101  H     H_    0.387621 0.845634 0.322782 0.118112
C119  C     C_3   0.244872 0.803734 0.300338 -0.234881
H102  H     H_    0.178345 0.806501 0.308771 0.182621
H103  H     H_    0.272918 0.844298 0.272487 0.201871
C120  C     C_3   0.217188 0.696204 0.294656 -0.485277
H104  H     H_    0.283269 0.691130 0.287865 0.141563
H105  H     H_    0.165347 0.664438 0.270144 0.183866
H106  H     H_    0.181427 0.652446 0.321193 0.141187
O31   O     O_3   0.635209 0.612755 0.320916 -0.560082
C121  C     C_3   0.554528 0.626092 0.313401 0.011926
H107  H     H_    0.502707 0.602798 0.338377 0.112870
H108  H     H_    0.513640 0.582560 0.287683 0.153804
C122  C     C_3   0.592840 0.735511 0.304944 -0.242860
H109  H     H_    0.636283 0.780289 0.330035 0.170341
H110  H     H_    0.641740 0.758874 0.279146 0.191693
C123  C     C_3   0.508918 0.755199 0.297439 -0.490892
H111  H     H_    0.464285 0.711261 0.272440 0.152596
H112  H     H_    0.539298 0.834911 0.290846 0.177914
H113  H     H_    0.461199 0.735616 0.323447 0.123749
O32   O     O_3   0.027518 0.375980 0.333177 -0.557490
C124  C     C_3   0.130423 0.427422 0.339043 0.006262
H114  H     H_    0.148002 0.384345 0.359902 0.144819
H115  H     H_    0.160855 0.503641 0.350842 0.100301
C125  C     C_3   0.181655 0.434785 0.300624 -0.236830
H116  H     H_    0.152195 0.359573 0.288395 0.195748
H117  H     H_    0.166654 0.479928 0.279833 0.182149
C126  C     C_3   0.292419 0.482475 0.305714 -0.499683
H118  H     H_    0.323268 0.557715 0.317961 0.131029
H119  H     H_    0.327412 0.488625 0.277188 0.158590
H120  H     H_    0.309681 0.436813 0.325297 0.153627

loop_
_geom_bond_atom_site_label_1
_geom_bond_atom_site_label_2
_geom_bond_distance
_ccdc_geom_bond_type
N21   C51   1.357077 A    
N16   N22   1.330946 A    
C63   C87   1.409572 A    
C64   C88   1.416209 A    
C35   C41   1.403023 A    
C122  H110  1.111815 S    
C116  C117  1.524072 S    
C2    C15   1.477304 S    
C100  H45   1.109973 S    
C78   H24   1.083551 S    
C117  H97   1.110420 S    
O22   Cr4   1.962183 S    
C109  C110  1.532355 S    
O9    Cr3   1.974562 S    
C114  H92   1.109811 S    
C76   C94   1.404651 A    
O10   Cr4   1.975698 S    
C99   H41   1.110358 S    
O12   Cr6   1.975960 S    
O13   Cr1   2.091294 S    
C10   C92   1.471272 S    
C22   C28   1.389253 A    
C36   C60   1.474192 S    
C77   C95   1.403481 A    
N17   C59   1.359629 A    
C83   H29   1.083554 S    
O1    Cr1   2.063044 S    
N3    N9    1.326609 A    
O3    Cr3   2.083511 S    
C107  H72   1.108653 S    
N16   C58   1.358020 A    
O8    Cr2   1.961657 S    
C33   C57   1.470563 S    
O13   C8    1.252556 A    
N9    C57   1.354791 A    
C50   C86   1.452112 S    
N30   C102  1.446430 S    
C44   N26   1.421860 S    
C98   H36   1.111404 S    
C79   H25   1.083479 S    
O20   Cr2   1.959713 S    
O5    C6    1.248230 A    
C125  H116  1.111638 S    
C41   H17   1.083305 S    
C126  H120  1.110950 S    
N25   H31   1.031483 S    
C40   H16   1.083242 S    
C104  H60   1.110578 S    
C81   H27   1.083135 S    
C123  H111  1.111146 S    
N12   C60   1.356504 A    
C48   N30   1.423805 S    
C62   C68   1.405051 A    
N17   N23   1.332353 A    
C69   C93   1.418551 A    
O14   C9    1.245976 A    
C77   C83   1.393524 A    
C113  H89   1.110242 S    
C75   C93   1.404612 A    
C51   C87   1.467984 S    
C52   C88   1.474253 S    
C121  H107  1.114757 S    
C27   H9    1.083130 S    
C117  H99   1.108499 S    
C53   C89   1.472974 S    
C110  H82   1.107014 S    
C14   C44   1.410835 A    
C63   O29   1.387757 S    
Cr3   O25   1.950689 S    
C16   C46   1.415041 A    
O23   C11   1.279660 A    
N20   C50   1.354519 A    
C72   N36   1.426967 S    
O17   Cr5   2.074633 S    
O24   C12   1.261765 A    
C119  H103  1.111217 S    
O9    C3    1.243439 A    
C98   H38   1.110217 S    
Cr2   O25   1.968663 S    
C29   H11   1.082821 S    
O10   C4    1.249417 A    
C80   H26   1.083652 S    
C30   H12   1.082899 S    
N10   C58   1.356893 A    
C66   C90   1.413893 A    
C84   H30   1.083127 S    
C73   C91   1.408704 A    
O6    C4    1.245290 A    
N27   H39   1.031877 S    
O7    C1    1.242916 A    
C8    C94   1.474942 S    
O17   C12   1.245885 A    
O6    Cr6   2.069412 S    
C107  H74   1.110915 S    
C118  H100  1.111737 S    
C125  H117  1.111185 S    
O19   C7    1.284499 A    
N24   C54   1.357138 A    
O20   C8    1.252422 A    
C35   C59   1.479061 S    
N6    C54   1.356744 A    
C101  H50   1.111130 S    
C68   N32   1.423103 S    
C120  H105  1.108578 S    
O21   C9    1.252447 A    
O15   C7    1.272765 A    
N36   H75   1.030915 S    
N32   C104  1.447463 S    
C43   N25   1.422248 S    
C112  C113  1.533590 S    
C97   H33   1.108705 S    
N8    C56   1.355723 A    
C24   C30   1.392424 A    
C45   N27   1.424955 S    
C15   C45   1.419892 A    
N26   C98   1.446379 S    
C17   C23   1.405693 A    
C28   C34   1.401057 A    
C71   C95   1.421312 A    
C73   C79   1.388780 A    
C72   C96   1.416286 A    
C19   C25   1.384505 A    
C109  H80   1.118418 S    
C36   C42   1.401948 A    
C105  H64   1.111630 S    
C121  C122  1.527640 S    
O29   C115  1.421333 S    
N28   C100  1.445868 S    
C40   C46   1.403783 A    
N1    C49   1.353977 A    
C13   C19   1.401894 A    
C14   C20   1.402113 A    
C39   C45   1.404142 A    
C71   N35   1.426841 S    
C106  H69   1.110338 S    
C102  H54   1.110353 S    
C32   C38   1.404296 A    
C108  H78   1.110360 S    
N5    N11   1.329185 A    
C39   H15   1.083446 S    
N6    N12   1.329418 A    
C13   C43   1.411193 A    
C103  H56   1.111257 S    
C7    C95   1.482409 S    
O2    Cr2   2.079158 S    
C123  H112  1.109742 S    
N14   N20   1.329580 A    
C101  H48   1.111532 S    
O7    Cr1   1.974470 S    
C23   H5    1.081542 S    
C76   H22   1.083521 S    
C77   H23   1.082900 S    
C104  H61   1.110856 S    
C124  H115  1.117674 S    
C4    C17   1.485779 S    
C27   C33   1.401877 A    
C64   O30   1.384439 S    
C67   N31   1.423467 S    
O23   Cr5   1.958781 S    
C42   H18   1.083277 S    
O24   Cr6   1.949365 S    
C69   N33   1.427720 S    
O3    C1    1.239765 A    
C47   N29   1.420104 S    
C112  H86   1.111536 S    
C111  H83   1.110834 S    
C116  H96   1.109542 S    
C29   C35   1.402333 A    
C117  H98   1.108930 S    
C21   H3    1.081374 S    
C82   C88   1.397667 A    
C15   C21   1.402402 A    
C22   H4    1.083278 S    
C61   O27   1.386692 S    
C38   C44   1.402073 A    
N2    C50   1.352569 A    
N14   C56   1.355965 A    
C25   H7    1.082958 S    
C26   H8    1.082999 S    
C18   C24   1.403729 A    
C99   H40   1.111578 S    
C105  H66   1.110396 S    
O22   C10   1.279418 A    
Cr4   O26   1.950846 S    
N29   C101  1.445029 S    
C28   H10   1.082873 S    
C115  H93   1.110946 S    
O1    C2    1.253476 A    
C54   C90   1.476914 S    
O27   C109  1.419836 S    
N27   C99   1.446792 S    
O18   Cr6   2.094492 S    
C106  H68   1.110558 S    
C124  H114  1.111131 S    
C111  H85   1.109652 S    
C108  H76   1.110740 S    
N30   H51   1.031970 S    
C68   C92   1.413464 A    
Cr6   O26   1.965196 S    
C65   C71   1.409946 A    
C103  H58   1.110239 S    
C64   C70   1.411921 A    
C76   C82   1.386884 A    
N35   H71   1.031378 S    
C118  C119  1.527849 S    
C126  H119  1.110361 S    
C80   C86   1.392785 A    
C74   H20   1.082683 S    
C115  C116  1.535630 S    
O8    C2    1.248974 A    
C23   C29   1.391812 A    
N13   N19   1.330681 A    
C125  C126  1.525070 S    
C16   C22   1.406466 A    
C30   C36   1.402280 A    
C113  C114  1.524632 S    
C34   C58   1.475013 S    
C121  H108  1.111421 S    
C122  C123  1.525740 S    
C100  H46   1.110875 S    
C123  H113  1.110625 S    
N29   H47   1.031690 S    
C84   C90   1.401075 A    
C120  H104  1.110567 S    
Cr1   O25   1.966120 S    
C99   H42   1.110691 S    
C61   C85   1.410149 A    
O31   C121  1.414236 S    
C98   H37   1.108176 S    
C75   C81   1.396470 A    
C5    C18   1.480710 S    
C78   C96   1.402306 A    
N33   C105  1.446696 S    
O2    C3    1.244482 A    
C19   H1    1.083985 S    
C37   C43   1.402559 A    
N13   C55   1.357560 A    
O4    C5    1.247853 A    
C63   C69   1.404523 A    
C107  H73   1.110064 S    
Cr5   O26   1.969426 S    
N31   H55   1.029651 S    
C38   H14   1.083250 S    
O32   C124  1.416550 S    
O11   C5    1.242586 A    
C31   C55   1.468403 S    
N23   C53   1.357039 A    
C102  H53   1.111155 S    
C24   H6    1.081014 S    
C49   C85   1.460366 S    
C112  H87   1.118042 S    
C97   H32   1.111329 S    
N4    C52   1.355647 A    
N11   C59   1.357131 A    
C65   O31   1.385501 S    
C25   C31   1.401900 A    
C66   C72   1.413324 A    
N26   H35   1.031504 S    
O18   C10   1.272903 A    
C33   C39   1.400875 A    
C113  H88   1.111674 S    
C118  H101  1.115877 S    
C70   N34   1.426732 S    
C100  H44   1.111363 S    
C115  H94   1.114769 S    
C20   H2    1.082043 S    
C70   C94   1.414666 A    
N28   H43   1.031519 S    
C102  H52   1.111648 S    
C110  C111  1.522776 S    
C82   H28   1.083265 S    
C41   C47   1.404923 A    
N4    N10   1.328776 A    
O16   C11   1.273031 A    
C119  H102  1.111631 S    
N25   C97   1.446915 S    
C78   C84   1.387987 A    
C12   C93   1.479479 S    
C108  H77   1.110288 S    
N1    N7    1.326181 A    
N2    N8    1.325193 A    
C66   O32   1.384789 S    
C114  H91   1.110370 S    
C62   O28   1.385704 S    
C122  H109  1.111952 S    
O21   Cr3   1.964075 S    
N35   C107  1.448067 S    
C18   C48   1.419067 A    
N22   C52   1.357510 A    
C20   C26   1.380216 A    
C46   N28   1.420524 S    
O19   Cr1   1.946516 S    
C81   C87   1.399599 A    
C3    C13   1.463160 S    
C120  H106  1.109536 S    
N19   C49   1.355643 A    
N36   C108  1.447492 S    
C74   C92   1.406556 A    
O4    Cr4   2.079143 S    
C31   C37   1.404097 A    
C97   H34   1.110250 S    
C111  H84   1.110391 S    
C1    C14   1.462384 S    
C116  H95   1.110707 S    
C21   C27   1.388149 A    
C75   H21   1.082700 S    
C34   C40   1.403345 A    
N31   C103  1.447159 S    
O14   Cr2   2.080561 S    
N18   C60   1.357676 A    
O15   Cr3   2.090764 S    
C79   C85   1.394325 A    
C32   C56   1.463659 S    
O16   Cr4   2.093452 S    
C109  H79   1.111238 S    
N32   H59   1.029782 S    
C11   C91   1.479863 S    
C105  H65   1.111189 S    
C6    C16   1.480838 S    
C67   C91   1.416756 A    
N3    C51   1.355502 A    
N34   C106  1.447486 S    
C26   C32   1.399339 A    
C65   C89   1.413814 A    
C110  H81   1.111518 S    
N5    C53   1.356300 A    
O5    Cr5   2.077200 S    
C83   C89   1.399424 A    
N7    C55   1.355801 A    
C73   H19   1.082919 S    
C119  C120  1.525332 S    
C74   C80   1.385581 A    
C62   C86   1.408787 A    
C9    C96   1.475599 S    
O30   C118  1.414879 S    
C61   C67   1.406841 A    
C103  H57   1.111118 S    
C42   C48   1.400164 A    
N15   C57   1.358260 A    
N18   N24   1.330067 A    
C101  H49   1.109292 S    
O11   Cr5   1.959012 S    
C106  H70   1.110199 S    
C126  H118  1.109884 S    
O28   C112  1.417873 S    
N15   N21   1.332717 A    
C104  H62   1.109905 S    
C124  C125  1.528750 S    
O12   C6    1.255555 A    
N33   H63   1.029787 S    
C37   H13   1.083125 S    
N34   H67   1.031155 S    
C17   C47   1.416737 A    
C114  H90   1.108249 S    
