data_mof_unit_66498.cif
_audit_creation_date              2012-12-11T14:04:13-0500
_audit_creation_method            fapswitch 2.2
_symmetry_space_group_name_H-M    P1
_symmetry_Int_Tables_number       1
_space_group_crystal_system       triclinic
_cell_length_a                    20.119309
_cell_length_b                    22.05005
_cell_length_c                    8.537089
_cell_angle_alpha                 89.890694
_cell_angle_beta                  103.446012
_cell_angle_gamma                 89.970792
_cell_volume                      3683.50282086

loop_
_atom_site_label
_atom_site_type_symbol
_atom_type_description
_atom_site_fract_x
_atom_site_fract_y
_atom_site_fract_z
_atom_type_partial_charge
Ba1   Ba    Ba6+2 0.999900 0.456810 0.844860 1.625970
Ba2   Ba    Ba6+2 0.999900 0.543190 0.344860 1.620889
Ba3   Ba    Ba6+2 0.499900 0.956810 0.844860 1.625970
Ba4   Ba    Ba6+2 0.499900 0.043190 0.344860 1.620889
C1    C     C_3   0.055041 0.176484 0.698911 -0.074930
C2    C     C_3   0.052973 0.825220 0.186857 -0.104830
C3    C     C_3   0.555041 0.676484 0.698911 -0.074929
C4    C     C_3   0.552973 0.325220 0.186857 -0.104830
C5    C     C_R   0.125903 0.694739 0.836655 -0.010563
C6    C     C_R   0.125340 0.304818 0.336863 -0.003220
C7    C     C_R   0.625903 0.194739 0.836655 -0.010563
C8    C     C_R   0.625340 0.804818 0.336863 -0.003220
C9    C     C_R   0.178863 0.735259 0.901398 -0.133728
C10   C     C_R   0.178780 0.264631 0.400956 -0.105827
C11   C     C_R   0.678863 0.235259 0.901398 -0.133728
C12   C     C_R   0.678780 0.764631 0.400956 -0.105827
C13   C     C_R   0.216959 0.730407 0.063567 0.004540
C14   C     C_R   0.218162 0.270378 0.561476 0.009778
C15   C     C_R   0.716959 0.230407 0.063567 0.004540
C16   C     C_R   0.718162 0.770378 0.561476 0.009778
C17   C     C_R   0.199698 0.681360 0.155976 -0.135752
C18   C     C_R   0.201849 0.320093 0.652546 -0.118171
C19   C     C_R   0.699698 0.181360 0.155976 -0.135752
C20   C     C_R   0.701849 0.820093 0.652546 -0.118171
C21   C     C_R   0.146415 0.640602 0.091730 0.080587
C22   C     C_R   0.147610 0.360197 0.589778 0.108928
C23   C     C_R   0.646415 0.140601 0.091730 0.080587
C24   C     C_R   0.647610 0.860197 0.589778 0.108928
C25   C     C_R   0.815055 0.268285 0.293231 -0.129251
C26   C     C_R   0.815990 0.732188 0.791281 -0.130415
C27   C     C_R   0.315055 0.768285 0.293231 -0.129251
C28   C     C_R   0.315990 0.232188 0.791281 -0.130415
C29   C     C_R   0.868282 0.308708 0.357373 0.001986
C30   C     C_R   0.869034 0.691586 0.855918 0.005558
C31   C     C_R   0.368282 0.808708 0.357373 0.001986
C32   C     C_R   0.369034 0.191586 0.855918 0.005558
C33   C     C_R   0.846564 0.363533 0.104026 0.061177
C34   C     C_R   0.847229 0.636728 0.603188 0.061919
C35   C     C_R   0.346564 0.863533 0.104026 0.061177
C36   C     C_R   0.347229 0.136728 0.603188 0.061919
C37   C     C_R   0.792434 0.323557 0.040479 -0.118252
C38   C     C_R   0.793557 0.677151 0.538824 -0.123721
C39   C     C_R   0.292434 0.823557 0.040479 -0.118252
C40   C     C_R   0.293557 0.177151 0.538824 -0.123721
C41   C     C_R   0.775772 0.273996 0.132214 0.007474
C42   C     C_R   0.776973 0.726737 0.630139 0.006536
C43   C     C_R   0.275772 0.773996 0.132214 0.007474
C44   C     C_R   0.276973 0.226737 0.630139 0.006536
C45   C     C_3   0.977671 0.233932 0.133533 0.322633
C46   C     C_3   0.979511 0.766882 0.622021 0.337258
C47   C     C_3   0.477671 0.733932 0.133533 0.322633
C48   C     C_3   0.479511 0.266883 0.622022 0.337257
C49   C     C_R   0.885247 0.354597 0.260863 -0.292966
C50   C     C_R   0.885935 0.645569 0.759998 -0.289085
C51   C     C_R   0.385247 0.854597 0.260863 -0.292966
C52   C     C_R   0.385935 0.145569 0.759998 -0.289085
C53   C     C_3   0.949472 0.170166 0.132420 -0.357349
C54   C     C_3   0.949533 0.830432 0.607050 -0.379818
C55   C     C_3   0.449472 0.670166 0.132420 -0.357349
C56   C     C_3   0.449533 0.330432 0.607051 -0.379816
C57   C     C_3   0.220443 0.463705 0.263964 0.576688
C58   C     C_3   0.228062 0.531682 0.772618 0.492355
C59   C     C_3   0.720442 0.963705 0.263964 0.576688
C60   C     C_3   0.728062 0.031682 0.772618 0.492355
C61   C     C_3   0.288567 0.433677 0.235682 0.339013
C62   C     C_3   0.302099 0.556608 0.759064 0.382040
C63   C     C_3   0.788567 0.933676 0.235682 0.339014
C64   C     C_3   0.802099 0.056608 0.759064 0.382041
C65   C     C_3   0.803991 0.537679 0.901140 0.314468
C66   C     C_3   0.803614 0.462664 0.401296 0.308142
C67   C     C_3   0.303991 0.037679 0.901140 0.314468
C68   C     C_3   0.303614 0.962664 0.401296 0.308142
C69   C     C_3   0.738987 0.575637 0.860477 -0.388241
C70   C     C_3   0.738655 0.424741 0.362892 -0.382297
C71   C     C_3   0.238987 0.075637 0.860477 -0.388241
C72   C     C_3   0.238655 0.924741 0.362892 -0.382297
C73   C     C_3   0.021638 0.238191 0.653506 0.402397
C74   C     C_3   0.020505 0.762679 0.146893 0.322649
C75   C     C_3   0.521639 0.738191 0.653506 0.402397
C76   C     C_3   0.520505 0.262679 0.146893 0.322648
C77   C     C_R   0.108256 0.649191 0.933920 -0.278579
C78   C     C_R   0.108201 0.350734 0.433748 -0.258087
C79   C     C_R   0.608256 0.149191 0.933920 -0.278579
C80   C     C_R   0.608201 0.850734 0.433748 -0.258087
H1    H     H_    0.041271 0.269446 0.755358 0.078247
H2    H     H_    0.042680 0.731916 0.248752 0.099135
H3    H     H_    0.541271 0.769446 0.755358 0.078248
H4    H     H_    0.542680 0.231916 0.248753 0.099135
H5    H     H_    0.823817 0.532467 0.791306 0.016457
H6    H     H_    0.822621 0.468071 0.290307 0.017894
H7    H     H_    0.323817 0.032467 0.791306 0.016458
H8    H     H_    0.322621 0.968071 0.290307 0.017895
H9    H     H_    0.842209 0.561201 0.996624 0.056560
H10   H     H_    0.842356 0.438997 0.495713 0.056385
H11   H     H_    0.342209 0.061201 0.996624 0.056560
H12   H     H_    0.342356 0.938997 0.495713 0.056385
H13   H     H_    0.700256 0.553297 0.763804 0.123159
H14   H     H_    0.699296 0.447345 0.267784 0.136045
H15   H     H_    0.200256 0.053297 0.763804 0.123159
H16   H     H_    0.199296 0.947345 0.267784 0.136045
H17   H     H_    0.749617 0.621234 0.818263 0.065569
H18   H     H_    0.748980 0.379314 0.319463 0.066080
H19   H     H_    0.249617 0.121234 0.818263 0.065569
H20   H     H_    0.248980 0.879314 0.319463 0.066080
H21   H     H_    0.717910 0.580823 0.968980 0.129613
H22   H     H_    0.718550 0.419163 0.472726 0.127823
H23   H     H_    0.217911 0.080823 0.968980 0.129613
H24   H     H_    0.218550 0.919163 0.472726 0.127823
H25   H     H_    0.036670 0.255291 0.544236 -0.068974
H26   H     H_    0.033650 0.745489 0.035606 -0.041132
H27   H     H_    0.536670 0.755291 0.544236 -0.068974
H28   H     H_    0.533650 0.245489 0.035607 -0.041132
H29   H     H_    0.111413 0.182293 0.739532 0.038879
H30   H     H_    0.109434 0.820049 0.224931 0.078146
H31   H     H_    0.611413 0.682293 0.739532 0.038879
H32   H     H_    0.609434 0.320049 0.224932 0.078146
H33   H     H_    0.900555 0.171052 0.171488 0.080940
H34   H     H_    0.901322 0.830691 0.649235 0.070527
H35   H     H_    0.400555 0.671052 0.171489 0.080941
H36   H     H_    0.401322 0.330691 0.649236 0.070527
H37   H     H_    0.804666 0.233863 0.373752 0.091433
H38   H     H_    0.805289 0.766350 0.871848 0.075957
H39   H     H_    0.304665 0.733863 0.373752 0.091433
H40   H     H_    0.305289 0.266350 0.871848 0.075957
H41   H     H_    0.190257 0.768968 0.820227 0.081043
H42   H     H_    0.189330 0.230359 0.320545 0.075862
H43   H     H_    0.690257 0.268968 0.820227 0.081043
H44   H     H_    0.689330 0.730359 0.320545 0.075863
H45   H     H_    0.763109 0.333597 0.920944 0.076867
H46   H     H_    0.764540 0.667412 0.418969 0.077106
H47   H     H_    0.263109 0.833597 0.920944 0.076867
H48   H     H_    0.264540 0.167412 0.418969 0.077106
H49   H     H_    0.228814 0.671580 0.275853 0.089336
H50   H     H_    0.232111 0.330528 0.770580 0.064147
H51   H     H_    0.728814 0.171580 0.275853 0.089337
H52   H     H_    0.732111 0.830528 0.770580 0.064147
H53   H     H_    0.925879 0.385908 0.311913 0.064919
H54   H     H_    0.926289 0.613972 0.811686 0.065268
H55   H     H_    0.425879 0.885908 0.311913 0.064919
H56   H     H_    0.426289 0.113972 0.811686 0.065268
H57   H     H_    0.068256 0.617388 0.882359 0.064750
H58   H     H_    0.066946 0.381647 0.383673 0.056901
H59   H     H_    0.568256 0.117388 0.882359 0.064750
H60   H     H_    0.566946 0.881647 0.383673 0.056901
H61   H     H_    0.035998 0.156936 0.800436 0.141076
H62   H     H_    0.035136 0.845413 0.289070 0.140741
H63   H     H_    0.535998 0.656936 0.800436 0.141076
H64   H     H_    0.535136 0.345413 0.289069 0.140741
H65   H     H_    0.938368 0.263218 0.055877 0.060889
H66   H     H_    0.941497 0.735710 0.547712 0.061118
H67   H     H_    0.438368 0.763218 0.055877 0.060889
H68   H     H_    0.441497 0.235710 0.547713 0.061118
H69   H     H_    0.988616 0.250576 0.259910 -0.043211
H70   H     H_    0.989322 0.753260 0.750915 -0.054348
H71   H     H_    0.488617 0.750576 0.259910 -0.043211
H72   H     H_    0.489322 0.253260 0.750916 -0.054347
H73   H     H_    0.941122 0.151205 0.009178 0.159367
H74   H     H_    0.939070 0.845532 0.479645 0.125299
H75   H     H_    0.441122 0.651205 0.009178 0.159367
H76   H     H_    0.439070 0.345532 0.479646 0.125298
H77   H     H_    0.986361 0.140684 0.215595 0.127376
H78   H     H_    0.986103 0.862570 0.681357 0.122193
H79   H     H_    0.486361 0.640684 0.215595 0.127376
H80   H     H_    0.486104 0.362570 0.681358 0.122192
O1    O     O_2   0.866180 0.413660 0.823810 -0.456796
O2    O     O_2   0.866180 0.586340 0.323810 -0.455802
O3    O     O_2   0.366180 0.913660 0.823810 -0.456796
O4    O     O_2   0.366180 0.086340 0.323810 -0.455802
O5    O     O_3   0.221887 0.469430 0.731756 -0.634608
O6    O     O_3   0.220064 0.527185 0.233427 -0.642332
O7    O     O_3   0.721887 0.969430 0.731756 -0.634608
O8    O     O_3   0.720064 0.027185 0.233427 -0.642332
O9    O     O_3   0.036500 0.232303 0.071765 -0.604221
O10   O     O_3   0.039803 0.767095 0.565712 -0.601491
O11   O     O_3   0.536500 0.732303 0.071765 -0.604221
O12   O     O_3   0.539803 0.267095 0.565712 -0.601491
O13   O     O_3   0.077880 0.530130 0.092320 -0.492842
O14   O     O_3   0.077880 0.469870 0.592320 -0.492401
O15   O     O_3   0.577880 0.030130 0.092320 -0.492842
O16   O     O_3   0.577880 0.969870 0.592320 -0.492401
O17   O     O_3   0.922050 0.469730 0.097400 -0.496754
O18   O     O_3   0.922050 0.530270 0.597400 -0.495893
O19   O     O_3   0.422050 0.969730 0.097400 -0.496754
O20   O     O_3   0.422050 0.030270 0.597400 -0.495893
O21   O     O_3   0.976760 0.360270 0.628090 -0.502497
O22   O     O_3   0.976760 0.639730 0.128090 -0.491858
O23   O     O_3   0.476760 0.860270 0.628090 -0.502497
O24   O     O_3   0.476760 0.139730 0.128090 -0.491858
O25   O     O_2   0.862544 0.312353 0.680954 -0.469606
O26   O     O_2   0.861572 0.686753 0.177929 -0.469982
O27   O     O_2   0.362544 0.812353 0.680954 -0.469606
O28   O     O_2   0.361572 0.186753 0.177929 -0.469982
O29   O     O_3   0.787581 0.480996 0.955045 -0.633510
O30   O     O_3   0.787497 0.519249 0.455956 -0.635243
O31   O     O_3   0.287581 0.980996 0.955045 -0.633510
O32   O     O_3   0.287497 0.019249 0.455956 -0.635243
O33   O     O_3   0.950197 0.233035 0.626454 -0.580538
O34   O     O_3   0.949290 0.766644 0.127812 -0.614495
O35   O     O_3   0.450197 0.733035 0.626454 -0.580538
O36   O     O_3   0.449289 0.266645 0.127812 -0.614495
O37   O     O_2   0.133470 0.412980 0.865660 -0.457899
O38   O     O_2   0.133470 0.587020 0.365660 -0.456595
O39   O     O_2   0.633470 0.912980 0.865660 -0.457899
O40   O     O_2   0.633470 0.087020 0.365660 -0.456595
O41   O     O_3   0.022720 0.360150 0.061220 -0.478804
O42   O     O_3   0.022720 0.639850 0.561220 -0.477291
O43   O     O_3   0.522720 0.860150 0.061220 -0.478804
O44   O     O_3   0.522720 0.139850 0.561220 -0.477291
O45   O     O_2   0.130888 0.302148 0.008587 -0.501379
O46   O     O_2   0.133096 0.694373 0.509385 -0.489179
O47   O     O_2   0.630888 0.802148 0.008587 -0.501379
O48   O     O_2   0.633096 0.194373 0.509385 -0.489179
P1    P     P_3+3 0.859590 0.433890 0.993820 0.987973
P2    P     P_3+3 0.859590 0.566110 0.493820 0.987248
P3    P     P_3+3 0.359590 0.933890 0.993820 0.987973
P4    P     P_3+3 0.359590 0.066110 0.493820 0.987248
P5    P     P_3+3 0.140130 0.433190 0.695710 0.986579
P6    P     P_3+3 0.140130 0.566810 0.195710 0.965419
P7    P     P_3+3 0.640130 0.933190 0.695710 0.986578
P8    P     P_3+3 0.640130 0.066810 0.195710 0.965419
P9    P     P_3+3 0.080342 0.300420 0.120822 0.926391
P10   P     P_3+3 0.082002 0.698239 0.619773 0.932835
P11   P     P_3+3 0.580342 0.800420 0.120822 0.926391
P12   P     P_3+3 0.582002 0.198239 0.619773 0.932835
P13   P     P_3+3 0.913400 0.695272 0.071210 0.942920
P14   P     P_3+3 0.913642 0.304520 0.572105 0.957674
P15   P     P_3+3 0.413400 0.195272 0.071210 0.942920
P16   P     P_3+3 0.413642 0.804520 0.572105 0.957674
N1    N     N_3   0.347610 0.471561 0.310304 -0.511782
H81   H     H_    0.392749 0.449024 0.304522 0.167440
H82   H     H_    0.346413 0.511565 0.243581 0.205017
N2    N     N_3   0.355469 0.510980 0.819041 -0.470557
H83   H     H_    0.344160 0.469971 0.757527 0.184409
H84   H     H_    0.359334 0.503097 0.941342 0.186835
N3    N     N_3   0.847610 0.971561 0.310305 -0.511782
H85   H     H_    0.892749 0.949024 0.304523 0.167440
H86   H     H_    0.846413 0.011565 0.243582 0.205017
N4    N     N_3   0.855469 0.010980 0.819041 -0.470557
H87   H     H_    0.844160 0.969971 0.757527 0.184409
H88   H     H_    0.859334 0.003097 0.941342 0.186836
N5    N     N_3   0.297170 0.372672 0.309403 -0.527731
H89   H     H_    0.312824 0.376221 0.434609 0.180493
H90   H     H_    0.336072 0.349472 0.271854 0.187097
N6    N     N_3   0.321463 0.611792 0.855414 -0.465834
H91   H     H_    0.330281 0.602545 0.978636 0.162594
H92   H     H_    0.284205 0.645511 0.825286 0.161963
N7    N     N_3   0.797169 0.872672 0.309403 -0.527731
H93   H     H_    0.812823 0.876221 0.434608 0.180493
H94   H     H_    0.836072 0.849472 0.271854 0.187097
N8    N     N_3   0.821463 0.111792 0.855414 -0.465834
H95   H     H_    0.830281 0.102545 0.978636 0.162594
H96   H     H_    0.784205 0.145511 0.825286 0.161963
N9    N     N_3   0.285572 0.427552 0.062906 -0.455746
H97   H     H_    0.252982 0.391837 0.016300 0.204945
H98   H     H_    0.333466 0.413549 0.048447 0.150819
N10   N     N_3   0.304654 0.573326 0.593296 -0.468742
H99   H     H_    0.257676 0.570792 0.511689 0.202212
H100  H     H_    0.340168 0.547431 0.550482 0.208938
N11   N     N_3   0.785573 0.927552 0.062906 -0.455747
H101  H     H_    0.752982 0.891837 0.016300 0.204945
H102  H     H_    0.833466 0.913549 0.048447 0.150819
N12   N     N_3   0.804654 0.073326 0.593296 -0.468742
H103  H     H_    0.757676 0.070792 0.511689 0.202212
H104  H     H_    0.840168 0.047431 0.550482 0.208938
N13   N     N_3   0.039272 0.135375 0.561575 -0.474624
H105  H     H_    0.058094 0.092508 0.601973 0.182547
H106  H     H_    0.067194 0.149486 0.478870 0.165786
N14   N     N_3   0.036405 0.866195 0.048490 -0.498244
H107  H     H_    0.983280 0.869063 0.007801 0.204078
H108  H     H_    0.056021 0.847864 0.955642 0.176505
N15   N     N_3   0.539272 0.635375 0.561575 -0.474624
H109  H     H_    0.558094 0.592508 0.601973 0.182547
H110  H     H_    0.567194 0.649487 0.478870 0.165786
N16   N     N_3   0.536406 0.366195 0.048490 -0.498244
H111  H     H_    0.483280 0.369063 0.007800 0.204077
H112  H     H_    0.556022 0.347864 0.955643 0.176505
N17   N     N_3   0.218677 0.454330 0.429671 -0.539456
H113  H     H_    0.265972 0.466228 0.501678 0.180313
H114  H     H_    0.182067 0.484224 0.452104 0.194035
N18   N     N_3   0.223478 0.536304 0.937514 -0.453747
H115  H     H_    0.223640 0.581812 0.967185 0.095856
H116  H     H_    0.176013 0.518884 0.942583 0.199269
N19   N     N_3   0.718677 0.954330 0.429671 -0.539456
H117  H     H_    0.765971 0.966228 0.501678 0.180314
H118  H     H_    0.682067 0.984224 0.452104 0.194035
N20   N     N_3   0.723478 0.036304 0.937514 -0.453747
H119  H     H_    0.723640 0.081812 0.967185 0.095856
H120  H     H_    0.676013 0.018884 0.942583 0.199268
N21   N     N_3   0.161325 0.433987 0.163813 -0.411311
H121  H     H_    0.119239 0.437982 0.215057 0.166707
H122  H     H_    0.172457 0.388169 0.168893 0.168230
N22   N     N_3   0.173268 0.567088 0.670263 -0.456610
H123  H     H_    0.128071 0.563587 0.709650 0.167092
H124  H     H_    0.187012 0.612465 0.681944 0.142830
N23   N     N_3   0.661324 0.933987 0.163813 -0.411311
H125  H     H_    0.619239 0.937982 0.215057 0.166707
H126  H     H_    0.672457 0.888169 0.168892 0.168230
N24   N     N_3   0.673268 0.067088 0.670263 -0.456610
H127  H     H_    0.628071 0.063587 0.709650 0.167092
H128  H     H_    0.687012 0.112465 0.681944 0.142830

loop_
_geom_bond_atom_site_label_1
_geom_bond_atom_site_label_2
_ccdc_geom_bond_type
C72   H20   S    
C4    C76   S    
O5    P5    S    
C79   H59   S    
O43   P11   S    
O27   P16   D    
O46   P10   D    
O6    P6    S    
C25   C29   A    
O15   P8    S    
N19   H118  S    
O26   P13   D    
O45   P9    D    
C10   C14   A    
O14   P5    S    
O25   P14   D    
O10   P10   S    
O3    P3    D    
O13   P6    S    
C68   C72   S    
O24   P15   S    
Ba1   O37   S    
Ba1   O13   S    
C75   H3    S    
C28   C44   A    
C45   C53   S    
N23   H126  S    
C4    H64   S    
C37   H45   S    
C3    H31   S    
C11   C15   A    
C24   C80   A    
C62   N6    S    
C47   H71   S    
C59   N23   S    
C3    C75   S    
C58   N18   S    
O40   P8    D    
Ba4   P4    S    
C60   C64   S    
C45   H69   S    
N22   H123  S    
C66   H10   S    
C68   H8    S    
N18   H116  S    
N5    H89   S    
N9    H98   S    
C65   H9    S    
O48   P12   D    
N9    H97   S    
C52   H56   S    
C57   N21   S    
C2    C74   S    
C67   H11   S    
C80   H60   S    
N8    H96   S    
N15   H109  S    
C61   N9    S    
C62   N2    S    
C54   H34   S    
C51   H55   S    
N6    H91   S    
C8    C80   A    
Ba3   O39   S    
O21   P14   S    
Ba1   Ba2   S    
C38   C42   A    
C33   P1    S    
C6    C10   A    
C5    C77   A    
Ba3   O15   S    
C2    H30   S    
C5    C9    A    
N16   H112  S    
C48   C56   S    
C6    P9    S    
C56   H80   S    
C63   N7    S    
C5    P10   S    
O28   P15   D    
C35   C51   A    
C8    C12   A    
N6    H92   S    
Ba4   P8    S    
N10   H100  S    
C71   H15   S    
C66   C70   S    
N3    H85   S    
C65   C69   S    
N16   H111  S    
Ba2   O13   S    
C19   C23   A    
C13   C17   A    
C14   C18   A    
Ba1   O41   S    
N13   H105  S    
Ba2   O2    S    
C63   N3    S    
O31   P3    S    
C61   N1    S    
O8    P8    S    
O34   P13   S    
C12   C16   A    
C70   H18   S    
C33   C49   A    
O33   P14   S    
C20   H52   S    
C77   H57   S    
O9    P9    S    
C23   P8    S    
C72   H24   S    
C27   C43   A    
N17   H113  S    
Ba3   O20   S    
C71   H19   S    
N3    H86   S    
C36   P4    S    
C21   P6    S    
C66   H6    S    
C55   H75   S    
Ba4   O16   S    
C65   H5    S    
C17   H49   S    
Ba4   O44   S    
C8    P11   S    
C3    H63   S    
N7    H94   S    
O19   P3    S    
O4    P4    D    
N4    H88   S    
C67   C71   S    
C1    H61   S    
C58   C62   S    
Ba3   O3    S    
C31   P16   S    
C46   C54   S    
C73   H1    S    
C16   C20   A    
C71   H23   S    
C30   P13   S    
C55   H79   S    
C29   C49   A    
C11   H43   S    
C70   H14   S    
C29   P14   S    
C54   H74   S    
N23   H125  S    
O18   P2    S    
C26   C30   A    
O44   P12   S    
C39   H47   S    
C45   O9    S    
N12   H104  S    
Ba3   P7    S    
C64   N8    S    
C36   C52   A    
N8    H95   S    
C31   C51   A    
C75   H27   S    
C6    C78   A    
C58   N22   S    
Ba3   Ba4   S    
Ba4   O4    S    
O37   P5    D    
C25   H37   S    
N5    H90   S    
O36   P15   S    
C26   H38   S    
C7    P12   S    
C59   N19   S    
C15   C19   A    
Ba3   O16   S    
Ba2   O22   S    
C59   C63   S    
O30   P2    S    
N1    H81   S    
C32   C52   A    
C70   H22   S    
C12   H44   S    
Ba1   O14   S    
C46   H66   S    
C67   O31   S    
C34   C50   A    
Ba1   O1    S    
C1    N13   S    
C66   O30   S    
C73   O33   S    
O47   P11   D    
N10   H99   S    
C76   H28   S    
C65   O29   S    
N21   H121  S    
C67   H7    S    
C19   H51   S    
C38   H46   S    
O11   P11   S    
N18   H115  S    
C47   O11   S    
C34   P2    S    
N13   H106  S    
O20   P4    S    
O17   P1    S    
C45   H65   S    
O2    P2    D    
Ba2   O42   S    
O1    P1    D    
C18   H50   S    
O7    P7    S    
C69   H13   S    
C24   P7    S    
C7    C11   A    
N17   H114  S    
N24   H128  S    
C60   N24   S    
Ba3   O43   S    
N1    H82   S    
C49   H53   S    
C23   C79   A    
C47   C55   S    
N24   H127  S    
Ba4   O15   S    
C1    C73   S    
N11   H101  S    
C54   H78   S    
C2    H62   S    
C28   C32   A    
N20   H119  S    
C20   C24   A    
C53   H33   S    
O35   P16   S    
C60   N20   S    
N15   H110  S    
C58   O5    S    
C17   C21   A    
N4    H87   S    
C73   H25   S    
Ba1   O21   S    
C55   H35   S    
C69   H17   S    
O12   P12   S    
C75   O35   S    
C1    H29   S    
N2    H84   S    
N14   H108  S    
C57   N17   S    
C26   C42   A    
C40   H48   S    
C13   C43   S    
C62   N10   S    
C39   C43   A    
N11   H102  S    
C21   C77   A    
Ba3   O23   S    
C32   P15   S    
C68   O32   S    
C35   C39   A    
N7    H93   S    
C15   C41   S    
O29   P1    S    
N12   H103  S    
O39   P7    D    
C72   H16   S    
C74   O34   S    
C53   H73   S    
C10   H42   S    
C9    C13   A    
C69   H21   S    
C46   O10   S    
C35   P3    S    
C48   H68   S    
O38   P6    D    
C60   O7    S    
C3    N15   S    
C2    N14   S    
C27   H39   S    
C76   H4    S    
C64   N4    S    
N20   H120  S    
O23   P16   S    
C30   C50   A    
Ba4   O24   S    
C59   O8    S    
C50   H54   S    
O22   P13   S    
C61   N5    S    
C46   H70   S    
O32   P4    S    
C64   N12   S    
O41   P9    S    
C14   C44   S    
N21   H122  S    
C74   H26   S    
C56   H36   S    
C27   C31   A    
Ba4   O19   S    
C33   C37   A    
C48   H72   S    
Ba2   O38   S    
C16   C42   S    
Ba1   O18   S    
Ba4   O40   S    
C4    H32   S    
C47   H67   S    
C78   H58   S    
C68   H12   S    
C34   C38   A    
C57   C61   S    
C36   C40   A    
C53   H77   S    
N22   H124  S    
C4    N16   S    
Ba2   P2    S    
C22   C78   A    
C74   H2    S    
C18   C22   A    
C25   C41   A    
N19   H117  S    
Ba2   P6    S    
O42   P10   S    
C37   C41   A    
C48   O12   S    
C7    C79   A    
O16   P7    S    
Ba1   P5    S    
C57   O6    S    
Ba2   O14   S    
C56   H76   S    
Ba3   P3    S    
C9    H41   S    
Ba2   O17   S    
C63   N11   S    
C28   H40   S    
C40   C44   A    
N2    H83   S    
N14   H107  S    
C22   P5    S    
Ba1   P1    S    
C76   O36   S    
