data_mof_unit_40819.cif
_audit_creation_date              2012-10-26T18:40:21-0400
_audit_creation_method            fapswitch 2.2
_symmetry_space_group_name_H-M    P1
_symmetry_Int_Tables_number       1
_space_group_crystal_system       triclinic
_cell_length_a                    8.71906
_cell_length_b                    15.140088
_cell_length_c                    13.835339
_cell_angle_alpha                 90.042554
_cell_angle_beta                  98.072469
_cell_angle_gamma                 90.011796
_cell_volume                      1808.26864088

loop_
_atom_site_label
_atom_site_type_symbol
_atom_type_description
_atom_site_fract_x
_atom_site_fract_y
_atom_site_fract_z
_atom_type_partial_charge
C1    C     C_R   0.500061 0.329831 0.499978 0.549321
C2    C     C_R   0.422050 0.568689 0.884967 0.236926
C3    C     C_R   0.496592 0.499676 0.054068 0.025226
C4    C     C_R   0.495579 0.500754 0.945069 0.027630
C5    C     C_R   0.203563 0.500052 0.475026 0.554040
C6    C     C_R   0.796447 0.500109 0.525007 0.553926
C7    C     C_2   0.037694 0.500108 0.461275 -0.154168
C8    C     C_2   0.962334 0.500294 0.538865 -0.156450
C9    C     C_R   0.547461 0.095311 0.586860 -0.119582
C10   C     C_R   0.547501 0.904760 0.421804 -0.119297
C11   C     C_R   0.546449 0.187117 0.586918 -0.128774
C12   C     C_R   0.500020 0.670169 0.500047 0.547857
C13   C     C_R   0.546422 0.812961 0.421467 -0.128829
C14   C     C_R   0.500165 0.233393 0.499994 0.017035
C15   C     C_R   0.500119 0.766608 0.500137 0.015940
C16   C     C_R   0.453890 0.186904 0.413143 -0.127285
C17   C     C_R   0.453920 0.813023 0.578870 -0.128697
C18   C     C_R   0.452826 0.095098 0.413344 -0.118134
C19   C     C_R   0.452915 0.904837 0.578581 -0.118710
C20   C     C_R   0.500134 0.048555 0.500138 0.032954
C21   C     C_R   0.500187 0.951448 0.500185 0.032373
C22   C     C_3   0.219989 0.371026 0.009632 -0.001014
C23   C     C_R   0.559141 0.570848 0.111956 -0.168537
C24   C     C_3   0.142102 0.284223 0.974452 -0.245903
C25   C     C_3   0.974938 0.299430 0.927631 -0.492093
C26   C     C_3   0.204817 0.616894 0.947371 0.003927
C27   C     C_3   0.084686 0.600389 0.856507 -0.287550
C28   C     C_3   0.924384 0.582278 0.884563 -0.474838
C29   C     C_R   0.568140 0.432534 0.899367 -0.168067
C30   C     C_R   0.560904 0.569463 0.213876 0.011951
C31   C     C_R   0.569685 0.433502 0.797818 0.004332
C32   C     C_R   0.437657 0.430211 0.204069 0.063314
C33   C     C_R   0.428529 0.567022 0.783584 0.060396
C34   C     C_R   0.434071 0.428207 0.101718 0.221832
Cu1   Cu    Cu3+1 0.500000 0.499990 0.596430 0.923892
Cu2   Cu    Cu3+1 0.500000 0.500010 0.403570 0.934291
H1    H     H_    0.583894 0.221830 0.654627 0.116327
H2    H     H_    0.413352 0.939296 0.639088 0.108024
H3    H     H_    0.608437 0.626841 0.078584 0.131647
H4    H     H_    0.625085 0.379114 0.942313 0.133813
H5    H     H_    0.611688 0.624392 0.256974 0.128682
H6    H     H_    0.627610 0.380858 0.764409 0.129353
H7    H     H_    0.388808 0.375447 0.239499 0.133838
H8    H     H_    0.373373 0.619447 0.738355 0.134336
H9    H     H_    0.217587 0.415245 0.945394 0.141188
H10   H     H_    0.152272 0.401399 0.063899 0.115419
H11   H     H_    0.207637 0.253039 0.920045 0.175633
H12   H     H_    0.583830 0.778314 0.360350 0.115907
H13   H     H_    0.143116 0.238482 0.037355 0.169566
H14   H     H_    0.906727 0.329168 0.981420 0.144036
H15   H     H_    0.921221 0.235393 0.902628 0.147443
H16   H     H_    0.971267 0.344110 0.863651 0.145440
H17   H     H_    0.163797 0.673220 0.988392 0.160229
H18   H     H_    0.211371 0.559789 0.997843 0.117254
H19   H     H_    0.078631 0.659108 0.807973 0.171550
H20   H     H_    0.119047 0.542312 0.815395 0.144986
H21   H     H_    0.927387 0.522565 0.931436 0.138494
H22   H     H_    0.840543 0.570753 0.817573 0.175898
H23   H     H_    0.977388 0.499924 0.386939 0.129006
H24   H     H_    0.884128 0.639633 0.924326 0.150548
H25   H     H_    0.022598 0.500546 0.613229 0.121790
H26   H     H_    0.587058 0.060971 0.654388 0.105250
H27   H     H_    0.587105 0.939151 0.361313 0.106552
H28   H     H_    0.416448 0.221443 0.345394 0.121925
H29   H     H_    0.416498 0.778414 0.639967 0.123170
H30   H     H_    0.413215 0.060589 0.345864 0.107070
N1    N     N_R   0.500000 0.500020 0.258690 -0.252067
N2    N     N_R   0.500000 0.499980 0.741310 -0.256792
O1    O     O_R   0.500010 0.371450 0.581430 -0.506806
O2    O     O_3   0.352137 0.640436 0.923205 -0.590858
O3    O     O_R   0.499990 0.628550 0.418570 -0.509574
O4    O     O_R   0.500010 0.371460 0.418560 -0.512895
O5    O     O_R   0.499990 0.628540 0.581440 -0.513366
O6    O     O_R   0.274840 0.499990 0.562640 -0.500325
O7    O     O_R   0.725160 0.500010 0.437360 -0.494057
O8    O     O_R   0.274840 0.500000 0.399770 -0.497426
O9    O     O_R   0.725160 0.500000 0.600230 -0.500440
O10   O     O_3   0.374918 0.354282 0.050626 -0.589002

loop_
_geom_bond_atom_site_label_1
_geom_bond_atom_site_label_2
_ccdc_geom_bond_type
Cu1   O6    S    
C31   H6    S    
C3    C23   A    
C10   H27   S    
Cu2   N1    S    
C7    C8    D    
C28   H21   S    
C26   C27   S    
C19   H2    S    
C11   C14   A    
C27   H19   S    
C5    O6    A    
C11   H1    S    
C25   H14   S    
Cu2   O8    S    
Cu1   Cu2   S    
C30   H5    S    
C14   C16   A    
C4    C29   A    
Cu2   O3    S    
C8    H25   S    
C12   O5    A    
C33   H8    S    
C26   H18   S    
C7    H23   S    
C28   H24   S    
C10   C21   A    
C31   N2    A    
C1    O4    A    
C9    H26   S    
C23   C30   A    
C6    O7    A    
C24   C25   S    
C22   O10   S    
C5    C7    S    
C27   H20   S    
C6    O9    A    
C6    C8    S    
C3    C34   A    
Cu1   O9    S    
C1    O1    A    
C32   C34   A    
C2    C4    A    
C25   H15   S    
Cu2   O7    S    
C9    C20   A    
C12   C15   S    
C9    C11   A    
C32   N1    A    
C2    C33   A    
C22   H10   S    
C12   O3    A    
C13   C15   A    
C26   O2    S    
C22   C24   S    
C3    C4    S    
C26   H17   S    
C24   H13   S    
C15   C17   A    
Cu1   O5    S    
C19   C21   A    
C24   H11   S    
C30   N1    A    
C10   C13   A    
C13   H12   S    
C28   H22   S    
C18   H30   S    
C17   H29   S    
C5    O8    A    
C25   H16   S    
C29   C31   A    
C34   O10   S    
Cu1   N2    S    
C23   H3    S    
C29   H4    S    
C17   C19   A    
C32   H7    S    
C18   C20   A    
C22   H9    S    
C20   C21   S    
Cu1   O1    S    
C16   C18   A    
C27   C28   S    
C1    C14   S    
C16   H28   S    
C2    O2    S    
Cu2   O4    S    
C33   N2    A    
