data_mof_unit_55086.cif
_audit_creation_date              2012-12-10T21:00:47-0500
_audit_creation_method            fapswitch 2.2
_symmetry_space_group_name_H-M    P1
_symmetry_Int_Tables_number       1
_space_group_crystal_system       triclinic
_cell_length_a                    18.158024
_cell_length_b                    18.157458
_cell_length_c                    18.287432
_cell_angle_alpha                 119.827292
_cell_angle_beta                  89.868057
_cell_angle_gamma                 119.980571
_cell_volume                      4280.63710369

loop_
_atom_site_label
_atom_site_type_symbol
_atom_type_description
_atom_site_fract_x
_atom_site_fract_y
_atom_site_fract_z
_atom_type_partial_charge
C1    C     C_R   0.110389 0.219990 0.609975 0.499016
C2    C     C_3   0.449772 0.897544 0.947652 0.063298
C3    C     C_R   0.274878 0.063536 0.810848 -0.099563
C4    C     C_R   0.209957 0.068277 0.850111 -0.108288
C5    C     C_R   0.235976 0.153317 0.936638 -0.122824
C6    C     C_R   0.255162 0.713642 0.096752 0.017984
C7    C     C_R   0.224152 0.684591 0.154737 -0.097267
C8    C     C_R   0.258808 0.643933 0.179867 -0.109620
C9    C     C_R   0.325253 0.633016 0.148186 -0.103929
C10   C     C_R   0.357565 0.663393 0.091812 -0.110026
C11   C     C_R   0.322939 0.703774 0.066224 -0.092273
C12   C     C_R   0.744835 0.286357 0.903251 0.017984
C13   C     C_3   0.471256 0.032212 0.069768 -0.125533
C14   C     C_R   0.775844 0.315412 0.845268 -0.097268
C15   C     C_R   0.741186 0.356068 0.820139 -0.109620
C16   C     C_R   0.674737 0.366979 0.851820 -0.103927
C17   C     C_R   0.642426 0.336598 0.908192 -0.110024
C18   C     C_R   0.677055 0.296220 0.933779 -0.092273
C19   C     C_3   0.528744 0.967788 0.930232 -0.125533
C20   C     C_3   0.459905 0.411620 0.495134 -0.130317
C21   C     C_3   0.540095 0.588379 0.504866 -0.130314
C22   C     C_3   0.562786 0.492404 0.527730 -0.123517
C23   C     C_3   0.437214 0.507595 0.472270 -0.123516
C24   C     C_3   0.550432 0.499383 0.448984 0.069589
C25   C     C_3   0.449567 0.500616 0.551016 0.069589
C26   C     C_3   0.448387 0.418497 0.415459 -0.107599
C27   C     C_R   0.889611 0.780010 0.390025 0.499016
C28   C     C_3   0.551613 0.581502 0.584540 -0.107599
C29   C     C_R   0.104381 0.191160 0.841641 -0.089808
C30   C     C_R   0.895619 0.808842 0.158359 -0.089809
C31   C     C_R   0.392714 0.781177 0.888383 0.489675
C32   C     C_R   0.607286 0.218823 0.111617 0.489674
C33   C     C_R   0.097427 0.143045 0.751582 -0.037694
C34   C     C_R   0.902572 0.856957 0.248418 -0.037696
C35   C     C_R   0.018344 0.096883 0.687163 0.058053
C36   C     C_R   0.981656 0.903116 0.312837 0.058054
C37   C     C_R   0.944546 0.093363 0.713309 -0.098797
C38   C     C_3   0.921627 0.405248 0.449227 -0.138004
C39   C     C_R   0.055453 0.906636 0.286691 -0.098796
C40   C     C_R   0.950610 0.137782 0.803056 -0.124001
C41   C     C_R   0.049389 0.862217 0.196944 -0.124001
C42   C     C_R   0.030801 0.187490 0.867294 -0.105818
C43   C     C_R   0.969199 0.812511 0.132706 -0.105815
C44   C     C_R   0.957412 0.943147 0.535354 -0.151539
C45   C     C_R   0.042588 0.056853 0.464646 -0.151539
C46   C     C_R   0.945666 0.892325 0.444208 0.016856
C47   C     C_R   0.054334 0.107674 0.555792 0.016856
C48   C     C_R   0.988441 0.949907 0.408005 -0.036400
C49   C     C_3   0.078373 0.594752 0.550773 -0.138004
C50   C     C_R   0.011558 0.050093 0.591995 -0.036400
C51   C     C_R   0.598641 0.513218 0.744580 -0.110343
C52   C     C_R   0.401378 0.486820 0.255441 -0.110349
C53   C     C_R   0.558933 0.490214 0.802311 -0.095154
C54   C     C_R   0.441082 0.509812 0.197702 -0.095158
C55   C     C_R   0.111897 0.501446 0.890668 0.512705
C56   C     C_R   0.888103 0.498554 0.109331 0.512705
C57   C     C_R   0.581999 0.569859 0.891401 0.054108
C58   C     C_R   0.418006 0.430158 0.108612 0.054106
C59   C     C_R   0.645720 0.675134 0.922582 0.035206
C60   C     C_3   0.414118 0.964961 0.970441 -0.102685
C61   C     C_R   0.354279 0.324887 0.077439 0.035206
C62   C     C_R   0.684863 0.696272 0.862879 -0.105871
C63   C     C_R   0.315140 0.303760 0.137149 -0.105868
C64   C     C_R   0.661944 0.615985 0.775002 -0.108222
C65   C     C_R   0.338069 0.384056 0.225027 -0.108220
C66   C     C_R   0.590591 0.541273 0.007946 -0.152650
C67   C     C_R   0.409410 0.458731 0.992058 -0.152652
C68   C     C_R   0.551324 0.502540 0.057574 0.009539
C69   C     C_R   0.448676 0.497464 0.942429 0.009539
C70   C     C_R   0.459957 0.461034 0.050133 -0.038399
C71   C     C_3   0.585882 0.035039 0.029559 -0.102685
C72   C     C_R   0.540044 0.538973 0.949873 -0.038398
C73   C     C_R   0.273809 0.851535 0.083696 -0.108501
C74   C     C_R   0.726192 0.148465 0.916305 -0.108501
C75   C     C_R   0.216406 0.753017 0.066850 0.028004
C76   C     C_R   0.783593 0.246982 0.933152 0.028005
C77   C     C_R   0.123232 0.693900 0.021362 0.048025
C78   C     C_R   0.876768 0.306099 0.978638 0.048025
C79   C     C_R   0.392369 0.500249 0.607815 0.501273
C80   C     C_R   0.607631 0.499751 0.392185 0.501273
C81   C     C_R   0.090493 0.733233 0.991685 -0.095011
C82   C     C_3   0.493928 0.036673 0.953793 -0.128419
C83   C     C_R   0.909508 0.266767 0.008315 -0.095011
C84   C     C_R   0.148436 0.831426 0.009305 -0.115704
C85   C     C_R   0.851566 0.168574 0.990696 -0.115705
C86   C     C_R   0.239629 0.891038 0.056349 -0.120463
C87   C     C_R   0.760373 0.108962 0.943653 -0.120463
C88   C     C_R   0.000449 0.587513 0.056257 -0.164633
C89   C     C_R   0.999550 0.412486 0.943742 -0.164633
C90   C     C_R   0.943143 0.496765 0.051465 0.033049
C91   C     C_R   0.056856 0.503234 0.948534 0.033049
C92   C     C_R   0.941741 0.407704 0.993779 -0.028735
C93   C     C_3   0.506072 0.963327 0.046207 -0.128418
C94   C     C_R   0.058258 0.592295 0.006220 -0.028734
C95   C     C_R   0.393596 0.498111 0.887097 0.491949
C96   C     C_R   0.606404 0.501890 0.112903 0.491953
C97   C     C_R   0.108981 0.500012 0.607637 0.522289
C98   C     C_R   0.891019 0.499987 0.392363 0.522289
C99   C     C_3   0.016022 0.430341 0.447889 0.255218
C100  C     C_3   0.983978 0.569659 0.552110 0.255217
C101  C     C_3   0.042468 0.524841 0.447083 -0.136908
C102  C     C_3   0.957532 0.475159 0.552917 -0.136908
C103  C     C_3   0.948650 0.500461 0.449691 0.030598
C104  C     C_3   0.550228 0.102456 0.052348 0.063298
C105  C     C_3   0.051350 0.499539 0.550309 0.030598
C106  C     C_R   0.672589 0.764303 0.015489 0.026310
C107  C     C_R   0.607870 0.771253 0.055300 -0.078848
C108  C     C_R   0.634038 0.856493 0.141704 -0.128099
C109  C     C_R   0.725088 0.936458 0.189171 -0.099567
C110  C     C_R   0.790016 0.931727 0.149919 -0.108290
C111  C     C_R   0.764008 0.846696 0.063392 -0.122821
C112  C     C_R   0.327399 0.235708 0.984531 0.026308
C113  C     C_R   0.392111 0.228748 0.944710 -0.078847
C114  C     C_R   0.365931 0.143500 0.858306 -0.128093
Cl1   Cl    Cl    0.035843 0.335930 0.375620 -0.597803
Cl2   Cl    Cl    0.964157 0.664070 0.624380 -0.597804
H1    H     H_    0.076524 0.544417 0.402704 0.132836
H2    H     H_    0.117357 0.943364 0.335742 0.101009
H3    H     H_    0.893505 0.134833 0.822744 0.120017
H4    H     H_    0.106494 0.865164 0.177256 0.120016
H5    H     H_    0.924149 0.899475 0.563286 0.154107
H6    H     H_    0.075850 0.100525 0.436714 0.154107
H7    H     H_    0.693295 0.633649 0.730318 0.119744
H8    H     H_    0.306721 0.366402 0.269716 0.119745
H9    H     H_    0.580639 0.451156 0.676244 0.102452
H10   H     H_    0.419389 0.548890 0.323778 0.102448
H11   H     H_    0.510573 0.409778 0.777822 0.093770
H12   H     H_    0.923475 0.455583 0.597296 0.132836
H13   H     H_    0.489447 0.590246 0.222186 0.093773
H14   H     H_    0.732955 0.775493 0.884107 0.105715
H15   H     H_    0.267044 0.224542 0.115928 0.105716
H16   H     H_    0.660202 0.570266 0.011898 0.140942
H17   H     H_    0.339798 0.429739 0.988105 0.140941
H18   H     H_    0.283790 0.968033 0.071530 0.107252
H19   H     H_    0.716212 0.031967 0.928472 0.107251
H20   H     H_    0.344900 0.898447 0.119575 0.099237
H21   H     H_    0.655100 0.101552 0.880428 0.099237
H22   H     H_    0.019673 0.687919 0.955531 0.111033
H23   H     H_    0.036298 0.223558 0.936976 0.103839
H24   H     H_    0.980328 0.312082 0.044468 0.111033
H25   H     H_    0.122393 0.861833 0.987371 0.120452
H26   H     H_    0.877610 0.138169 0.012629 0.120451
H27   H     H_    0.002943 0.656512 0.102030 0.138790
H28   H     H_    0.997057 0.343488 0.897970 0.138791
H29   H     H_    0.857147 0.327289 0.406580 0.131765
H30   H     H_    0.142853 0.672711 0.593420 0.131765
H31   H     H_    0.489457 0.067973 0.916321 0.101707
H32   H     H_    0.510543 0.932027 0.083679 0.101709
H33   H     H_    0.343131 0.935246 0.944487 0.134605
H34   H     H_    0.963702 0.776443 0.063024 0.103840
H35   H     H_    0.656869 0.064754 0.055513 0.134605
H36   H     H_    0.449225 0.061051 0.128337 0.102875
H37   H     H_    0.550775 0.938949 0.871664 0.102875
H38   H     H_    0.615311 0.486171 0.549312 0.117384
H39   H     H_    0.384689 0.513828 0.450688 0.117381
H40   H     H_    0.426016 0.339260 0.492316 0.103716
H41   H     H_    0.573984 0.660739 0.507684 0.103714
H42   H     H_    0.407262 0.350959 0.345326 0.125793
H43   H     H_    0.592738 0.649040 0.654674 0.125791
H44   H     H_    0.537114 0.712348 0.019365 0.129960
H45   H     H_    0.167047 0.232222 0.891658 0.109954
H46   H     H_    0.583556 0.860845 0.171569 0.101524
H47   H     H_    0.745285 0.002430 0.256074 0.121488
H48   H     H_    0.860596 0.993971 0.186518 0.139956
H49   H     H_    0.815517 0.844632 0.034260 0.100073
H50   H     H_    0.462870 0.287653 0.980638 0.129959
H51   H     H_    0.416409 0.139140 0.828434 0.101521
H52   H     H_    0.254672 0.997557 0.743946 0.121496
H53   H     H_    0.139374 0.006035 0.813519 0.139953
H54   H     H_    0.184472 0.155389 0.965777 0.100072
H55   H     H_    0.173236 0.693368 0.180446 0.106564
H56   H     H_    0.832954 0.767783 0.108342 0.109947
H57   H     H_    0.234175 0.620951 0.223974 0.111119
H58   H     H_    0.351907 0.601350 0.167526 0.110128
H59   H     H_    0.409209 0.655252 0.067759 0.097965
H60   H     H_    0.347894 0.725787 0.021601 0.102146
H61   H     H_    0.826762 0.306638 0.819560 0.106565
H62   H     H_    0.765818 0.379052 0.776034 0.111118
H63   H     H_    0.648081 0.398644 0.832479 0.110123
H64   H     H_    0.590780 0.344735 0.932243 0.097964
H65   H     H_    0.652101 0.274204 0.978400 0.102148
H66   H     H_    0.154623 0.145341 0.732350 0.112549
H67   H     H_    0.845378 0.854662 0.267651 0.112548
H68   H     H_    0.882641 0.056632 0.664257 0.101009
O1    O     O_3   0.251620 0.500000 0.748430 -0.448321
O2    O     O_R   0.570330 0.268390 0.136490 -0.546528
O3    O     O_R   0.134680 0.268390 0.572240 -0.540535
O4    O     O_R   0.865320 0.731610 0.427760 -0.540535
O5    O     O_R   0.306670 0.731630 0.863510 -0.540440
O6    O     O_R   0.693330 0.268370 0.136490 -0.540440
O7    O     O_R   0.135450 0.439270 0.865360 -0.541700
O8    O     O_R   0.864550 0.560730 0.134640 -0.541699
O9    O     O_R   0.429670 0.560710 0.692610 -0.543376
O10   O     O_R   0.570330 0.439290 0.307390 -0.543375
O11   O     O_R   0.308540 0.439240 0.865360 -0.552813
O12   O     O_3   0.748380 0.500000 0.251570 -0.448321
O13   O     O_R   0.691460 0.560760 0.134640 -0.552812
O14   O     O_R   0.133580 0.439310 0.571150 -0.487682
O15   O     O_R   0.866420 0.560690 0.428850 -0.487682
O16   O     O_R   0.430770 0.560690 0.864590 -0.546276
O17   O     O_R   0.569230 0.439310 0.135410 -0.546276
O18   O     O_R   0.133580 0.560760 0.692610 -0.543711
O19   O     O_R   0.866420 0.439240 0.307390 -0.543711
O20   O     O_R   0.134680 0.560740 0.864590 -0.533598
O21   O     O_R   0.865320 0.439260 0.135410 -0.533598
O22   O     O_R   0.306670 0.439270 0.571150 -0.535417
O23   O     O_R   0.693330 0.560730 0.428850 -0.535417
O24   O     O_R   0.135450 0.268370 0.694460 -0.543586
O25   O     O_R   0.864550 0.731630 0.305540 -0.543586
O26   O     O_R   0.429670 0.731610 0.863510 -0.546528
Zn1   Zn    Zn3+2 0.207400 0.586780 0.791530 0.942546
Zn2   Zn    Zn3+2 0.792600 0.413220 0.208470 0.942546
Zn3   Zn    Zn3+2 0.208510 0.413230 0.792630 0.925846
Zn4   Zn    Zn3+2 0.791490 0.586770 0.207370 0.925848
Zn5   Zn    Zn3+2 0.383150 0.586740 0.791530 0.922340
Zn6   Zn    Zn3+2 0.616850 0.413260 0.208470 0.922341
Zn7   Zn    Zn3+2 0.207400 0.413250 0.618010 0.967311
Zn8   Zn    Zn3+2 0.792600 0.586750 0.381990 0.967311

loop_
_geom_bond_atom_site_label_1
_geom_bond_atom_site_label_2
_ccdc_geom_bond_type
C66   C68   A    
C71   C104  S    
C56   O8    A    
O24   Zn3   S    
O12   Zn2   S    
C23   H39   S    
C29   C42   A    
C73   C75   A    
C62   H14   S    
C19   C71   S    
C100  Cl2   S    
C89   H28   S    
C97   O18   A    
C63   C65   A    
C82   H31   S    
C96   O17   A    
C39   C41   A    
C13   C60   S    
C23   C25   S    
C25   C28   S    
C11   H60   S    
C68   C96   S    
O1    Zn7   S    
C98   O15   A    
C102  C105  S    
C57   C72   S    
C67   H17   S    
C76   C78   A    
C37   C40   A    
C102  H12   S    
C99   Cl1   S    
O12   Zn6   S    
C2    C60   S    
C57   C59   A    
C20   C25   S    
C15   C16   A    
C29   C33   A    
C44   H5    S    
C27   O25   A    
O16   Zn5   S    
C58   C70   S    
C108  C109  A    
C93   H32   S    
C22   H38   S    
C77   C94   S    
C23   C26   S    
C61   C63   A    
C1    O24   A    
O6    Zn2   S    
C110  C111  A    
C83   H24   S    
C62   C64   A    
C53   H11   S    
C60   C82   S    
C78   C83   A    
C24   C80   S    
C71   H35   S    
C56   O21   A    
C52   C54   A    
C16   C17   A    
O23   Zn8   S    
O2    Zn6   S    
C55   C91   S    
C107  C108  A    
O1    Zn1   S    
C1    O3    A    
C111  H49   S    
C63   H15   S    
C74   C87   A    
C89   C91   A    
C19   C82   S    
C9    C10   A    
O18   Zn1   S    
C88   H27   S    
C66   H16   S    
C16   H63   S    
C27   O4    A    
C97   C105  S    
C58   C61   A    
C56   C90   S    
C42   H23   S    
C86   H18   S    
C101  C103  S    
C22   C28   S    
O26   Zn5   S    
C41   C43   A    
C96   O13   A    
O15   Zn8   S    
O8    Zn4   S    
C112  C113  A    
C44   C46   A    
C3    H52   S    
O9    Zn5   S    
C47   C50   A    
C46   C48   A    
C106  C111  A    
C45   C47   A    
O22   Zn7   S    
C81   H22   S    
C99   C105  S    
C74   H21   S    
C66   C72   A    
C59   C106  S    
C4    H53   S    
C30   C34   A    
C85   C87   A    
C51   H9    S    
C29   H45   S    
C98   O19   A    
C114  H51   S    
O5    Zn1   S    
C113  H50   S    
C52   H10   S    
C8    H57   S    
C8    C9    A    
C49   C105  S    
O21   Zn2   S    
C78   C92   S    
C95   O16   A    
C37   H68   S    
C108  H46   S    
C36   C39   A    
C28   H43   S    
O1    Zn5   S    
C13   C93   S    
C2    C31   S    
C67   C69   A    
C55   O7    A    
C69   C72   A    
O17   Zn6   S    
C38   C103  S    
C87   H19   S    
O12   Zn4   S    
C26   H42   S    
C90   C92   A    
C73   H20   S    
C77   C81   A    
C5    H54   S    
C40   H3    S    
C35   C50   S    
C32   C104  S    
C17   C18   A    
C32   O6    A    
C34   H67   S    
C89   C92   A    
C75   C77   A    
C30   H56   S    
C43   H34   S    
C74   C76   A    
C17   H64   S    
C68   C70   A    
C83   C85   A    
C21   C28   S    
C12   C14   A    
C12   C76   S    
C109  H47   S    
C19   H37   S    
C22   C24   S    
O19   Zn2   S    
C15   H62   S    
O14   Zn7   S    
C3    C4    A    
C39   H2    S    
C6    C11   A    
C81   C84   A    
O1    Zn3   S    
C27   C46   S    
C113  C114  A    
O3    Zn7   S    
C45   C48   A    
C44   C50   A    
C10   H59   S    
C54   H13   S    
C59   C62   A    
C95   O11   A    
C20   H40   S    
C35   C37   A    
C2    C19   S    
C25   C79   S    
C38   H29   S    
C21   H41   S    
C97   O14   A    
C2    C93   S    
C1    C47   S    
C51   C64   A    
C24   C26   S    
C13   H36   S    
C20   C22   S    
C38   C99   S    
C69   C95   S    
C3    C114  A    
C100  C102  S    
C85   H26   S    
O12   Zn8   S    
C6    C7    A    
C71   C93   S    
C5    C112  A    
O4    Zn8   S    
C45   H6    S    
C79   O22   A    
C80   O10   A    
C31   O5    A    
O25   Zn4   S    
C18   H65   S    
C32   O2    A    
C67   C70   A    
C101  H1    S    
C21   C23   S    
C88   C90   A    
C38   C102  S    
C107  H44   S    
C109  C110  A    
O7    Zn3   S    
C49   C100  S    
O10   Zn6   S    
C31   O26   A    
C20   C26   S    
C84   H25   S    
C9    H58   S    
C55   O20   A    
O20   Zn1   S    
C40   C42   A    
C33   C35   A    
C53   C57   A    
C49   H30   S    
C36   C48   S    
C34   C36   A    
C60   H33   S    
C100  C103  S    
C41   H4    S    
C30   C43   A    
C73   C86   A    
O11   Zn3   S    
C14   H61   S    
C7    C8    A    
C10   C11   A    
C52   C65   A    
C65   H8    S    
C64   H7    S    
C4    C5    A    
C80   O23   A    
C54   C58   A    
C79   O9    A    
C106  C107  A    
C21   C24   S    
C12   C18   A    
C33   H66   S    
C13   C104  S    
C88   C94   A    
C82   C104  S    
C14   C15   A    
C84   C86   A    
C110  H48   S    
C51   C53   A    
C7    H55   S    
C61   C112  S    
C99   C101  S    
O13   Zn4   S    
C98   C103  S    
C49   C101  S    
C91   C94   A    
C6    C75   S    
