data_mof_unit_49453.cif
_audit_creation_date              2012-12-10T18:22:34-0500
_audit_creation_method            fapswitch 2.2
_symmetry_space_group_name_H-M    P1
_symmetry_Int_Tables_number       1
_space_group_crystal_system       triclinic
_cell_length_a                    23.435093
_cell_length_b                    10.666076
_cell_length_c                    9.447922
_cell_angle_alpha                 87.892747
_cell_angle_beta                  90.344688
_cell_angle_gamma                 91.720982
_cell_volume                      2358.91705317

loop_
_atom_site_label
_atom_site_type_symbol
_atom_type_description
_atom_site_fract_x
_atom_site_fract_y
_atom_site_fract_z
_atom_type_partial_charge
C1    C     C_R   0.499938 0.259506 0.502305 0.786434
C2    C     C_R   0.500087 0.740496 0.497697 0.786746
C3    C     C_R   0.243300 0.626164 0.488383 0.136002
C4    C     C_R   0.756303 0.371884 0.509622 0.137915
C5    C     C_R   0.302907 0.618840 0.494576 -0.260090
C6    C     C_R   0.696728 0.380032 0.504517 -0.261029
C7    C     C_R   0.329095 0.502402 0.496535 -0.069834
C8    C     C_R   0.670891 0.496824 0.503370 -0.069791
C9    C     C_R   0.295563 0.390522 0.491044 0.043524
C10   C     C_R   0.704755 0.608248 0.508689 0.046968
C11   C     C_R   0.236300 0.398570 0.478257 -0.140604
C12   C     C_R   0.764045 0.599398 0.519990 -0.148563
C13   C     C_R   0.209938 0.514306 0.479534 0.306376
C14   C     C_R   0.790043 0.483276 0.517783 0.307150
C15   C     C_3   0.507009 0.031737 0.633606 0.070784
C16   C     C_3   0.493044 0.968269 0.366414 0.070594
C17   C     C_3   0.550134 0.957946 0.550208 -0.236854
C18   C     C_3   0.449917 0.042053 0.449813 -0.236409
C19   C     C_3   0.499999 0.877390 0.493984 -0.070093
C20   C     C_3   0.500051 0.122615 0.506033 -0.069934
C21   C     C_3   0.456953 0.949485 0.579125 -0.211922
C22   C     C_3   0.543101 0.050522 0.420898 -0.212103
C23   C     C_R   0.391347 0.500907 0.499429 0.793675
C24   C     C_R   0.608652 0.499082 0.500566 0.793527
C25   C     C_3   0.498467 0.613398 0.045991 -0.068148
C26   C     C_3   0.501532 0.386599 0.954007 -0.068156
C27   C     C_3   0.454535 0.551243 0.946144 -0.069970
C28   C     C_3   0.545464 0.448753 0.053855 -0.070131
C29   C     C_3   0.543569 0.561682 0.949213 0.206505
C30   C     C_3   0.456429 0.438315 0.050786 0.206466
C31   C     C_R   0.877194 0.518471 0.386904 0.557078
C32   C     C_R   0.122484 0.477154 0.608273 0.554308
C33   C     C_R   0.881775 0.451258 0.629662 0.541683
C34   C     C_R   0.118432 0.543951 0.365354 0.552387
C35   C     C_R   0.941895 0.444870 0.623643 -0.076254
C36   C     C_R   0.058160 0.548103 0.369837 -0.075943
C37   C     C_R   0.969816 0.493092 0.499329 -0.022933
C38   C     C_R   0.030121 0.499999 0.494087 -0.022299
C39   C     C_R   0.937249 0.534642 0.380470 -0.074401
C40   C     C_R   0.062585 0.458378 0.613017 -0.077371
C41   C     C_R   0.974440 0.391893 0.736997 -0.067818
C42   C     C_R   0.025498 0.598025 0.254876 -0.066174
C43   C     C_R   0.034712 0.398405 0.731516 -0.073951
C44   C     C_R   0.965291 0.591441 0.260268 -0.063266
Cu1   Cu    Cu3+1 0.500010 0.499990 0.643150 0.936287
Cu2   Cu    Cu3+1 0.499990 0.500010 0.356850 0.936358
H1    H     H_    0.416274 0.593870 0.896728 0.132229
H2    H     H_    0.583725 0.406124 0.103271 0.132014
H3    H     H_    0.498409 0.708188 0.088933 0.162681
H4    H     H_    0.501589 0.291810 0.911063 0.162656
H5    H     H_    0.329047 0.704264 0.499625 0.141692
H6    H     H_    0.670333 0.294972 0.499507 0.141691
H7    H     H_    0.209842 0.313728 0.473335 0.149415
H8    H     H_    0.790763 0.683887 0.524464 0.143621
H9    H     H_    0.590990 0.922214 0.593000 0.149613
H10   H     H_    0.409060 0.077765 0.407010 0.149571
H11   H     H_    0.422383 0.903689 0.644097 0.158167
H12   H     H_    0.577694 0.096257 0.355945 0.158185
N1    N     N_R   0.851216 0.482034 0.511028 -0.469649
N2    N     N_R   0.148729 0.514502 0.484855 -0.470238
N3    N     N_3   0.500040 0.499970 0.858290 -0.181847
N4    N     N_3   0.499960 0.500030 0.141710 -0.181851
O1    O     O_R   0.500030 0.316850 0.620870 -0.575464
O2    O     O_R   0.499970 0.683150 0.379130 -0.575439
O3    O     O_R   0.500000 0.316860 0.379090 -0.589322
O4    O     O_R   0.500000 0.683140 0.620910 -0.589316
O5    O     O_R   0.417890 0.499960 0.620920 -0.578633
O6    O     O_R   0.582110 0.500040 0.379080 -0.578530
O7    O     O_R   0.417870 0.499970 0.379140 -0.585398
O8    O     O_R   0.582130 0.500030 0.620860 -0.585594
O9    O     O_2   0.844523 0.537806 0.270514 -0.515956
O10   O     O_2   0.154697 0.459729 0.725833 -0.520690
O11   O     O_2   0.853710 0.428875 0.752692 -0.506302
O12   O     O_2   0.146941 0.567357 0.243161 -0.495640
C45   C     C_2   0.946103 0.314410 0.852002 0.952286
O13   O     O_2   0.951260 0.343674 0.975418 -0.501677
O14   O     O_R   0.913102 0.208315 0.817726 -0.756070
H13   H     H_    0.895650 0.163475 0.904259 0.341986
C46   C     C_2   0.053334 0.670315 0.135259 0.947741
O15   O     O_2   0.079799 0.768225 0.157648 -0.583813
O16   O     O_R   0.049049 0.626566 0.997882 -0.678404
H14   H     H_    0.069881 0.683662 0.925861 0.335297
C47   C     C_3   0.595398 0.634457 0.887222 -0.380401
C48   C     C_3   0.628954 0.704628 0.000387 -0.403391
C49   C     C_3   0.679984 0.777390 0.934945 -0.791984
H15   H     H_    0.708861 0.712440 0.883129 0.261389
H16   H     H_    0.665198 0.848540 0.855161 0.254562
H17   H     H_    0.704373 0.826446 0.018474 0.253110
H18   H     H_    0.601093 0.771609 0.052205 0.257788
H19   H     H_    0.644408 0.635777 0.081856 0.226609
H20   H     H_    0.624244 0.566970 0.840071 0.223257
H21   H     H_    0.580890 0.702533 0.803935 0.224055
C50   C     C_3   0.404591 0.365569 0.112781 -0.380218
C51   C     C_3   0.371100 0.295125 0.999705 -0.403894
C52   C     C_3   0.320045 0.222486 0.065199 -0.790813
H22   H     H_    0.334802 0.151530 0.145241 0.254893
H23   H     H_    0.291133 0.287550 0.116713 0.263133
H24   H     H_    0.295702 0.173200 0.981767 0.251135
H25   H     H_    0.355682 0.363753 0.917940 0.226838
H26   H     H_    0.398998 0.228019 0.948216 0.257822
H27   H     H_    0.419086 0.297648 0.196245 0.224094
H28   H     H_    0.375713 0.433104 0.159735 0.223483
C53   C     C_2   0.067927 0.326574 0.840090 0.950598
O17   O     O_2   0.068029 0.356783 0.963658 -0.499246
O18   O     O_R   0.099764 0.225304 0.799196 -0.756481
H29   H     H_    0.121033 0.184256 0.881478 0.337848
C54   C     C_2   0.932570 0.657880 0.146633 0.945157
O19   O     O_2   0.907832 0.753572 0.172954 -0.591632
O20   O     O_R   0.930005 0.610754 0.010630 -0.669179
H30   H     H_    0.906383 0.664028 0.942816 0.339629
C55   C     C_3   0.216626 0.753035 0.495456 -0.382150
C56   C     C_3   0.218175 0.799012 0.647244 -0.374749
C57   C     C_3   0.185906 0.920406 0.657940 -0.774634
H31   H     H_    0.202396 0.992000 0.579065 0.254269
H32   H     H_    0.139647 0.902688 0.638067 0.266716
H33   H     H_    0.191455 0.957255 0.765723 0.252045
H34   H     H_    0.198267 0.726509 0.720444 0.260817
H35   H     H_    0.263198 0.815712 0.681003 0.220581
H36   H     H_    0.240146 0.821514 0.423996 0.203684
H37   H     H_    0.171766 0.749701 0.457488 0.227049
C58   C     C_3   0.782549 0.244661 0.501561 -0.383879
C59   C     C_3   0.781284 0.200235 0.349147 -0.374017
C60   C     C_3   0.813722 0.079221 0.337213 -0.763673
H38   H     H_    0.859967 0.097154 0.357108 0.271222
H39   H     H_    0.797393 0.007002 0.415550 0.249615
H40   H     H_    0.808176 0.043134 0.229078 0.253921
H41   H     H_    0.736316 0.183676 0.314850 0.218646
H42   H     H_    0.801215 0.273488 0.276941 0.266480
H43   H     H_    0.827272 0.246859 0.540529 0.234528
H44   H     H_    0.758601 0.175855 0.571750 0.200718
C61   C     C_3   0.320640 0.261734 0.508238 -0.429655
C62   C     C_3   0.300478 0.198095 0.648301 -0.318706
C63   C     C_3   0.331860 0.077836 0.682313 -0.862475
H45   H     H_    0.327792 0.013302 0.592931 0.254210
H46   H     H_    0.377514 0.100979 0.703378 0.274715
H47   H     H_    0.313389 0.029992 0.778560 0.253066
H48   H     H_    0.307863 0.263237 0.735707 0.236761
H49   H     H_    0.253992 0.175737 0.643152 0.228423
H50   H     H_    0.306745 0.203904 0.418040 0.194575
H51   H     H_    0.367976 0.267075 0.507323 0.189008
C64   C     C_3   0.679963 0.737378 0.492522 -0.431591
C65   C     C_3   0.699516 0.800788 0.351838 -0.315732
C66   C     C_3   0.668129 0.921186 0.318619 -0.863159
H52   H     H_    0.622390 0.898177 0.298555 0.274332
H53   H     H_    0.672572 0.985710 0.407934 0.254044
H54   H     H_    0.686273 0.968967 0.221958 0.253338
H55   H     H_    0.746050 0.822811 0.355611 0.228501
H56   H     H_    0.691612 0.735613 0.264712 0.236962
H57   H     H_    0.632633 0.732633 0.495105 0.188807
H58   H     H_    0.694521 0.795010 0.582300 0.194068
C67   C     C_2   0.516524 0.064782 0.784132 0.842156
O21   O     O_2   0.478184 0.046674 0.870107 -0.617368
O22   O     O_R   0.569616 0.114495 0.825598 -0.768454
H59   H     H_    0.571802 0.129418 0.930859 0.342983
C68   C     C_2   0.483547 0.935228 0.215881 0.842211
O23   O     O_2   0.521916 0.953215 0.129967 -0.617216
O24   O     O_R   0.430439 0.885648 0.174344 -0.768073
H60   H     H_    0.428270 0.870703 0.069086 0.343182

loop_
_geom_bond_atom_site_label_1
_geom_bond_atom_site_label_2
_ccdc_geom_bond_type
C66   H54   S    
C56   H35   S    
C50   C51   S    
C68   O24   S    
C18   C21   S    
C41   C43   A    
C23   O7    A    
C36   C42   A    
C52   H22   S    
C58   H44   S    
C15   C67   S    
O16   H14   S    
C20   C22   S    
C52   H24   S    
C24   O8    A    
C60   H38   S    
C32   O10   S    
C13   N2    S    
O14   H13   S    
Cu2   O6    S    
C47   H21   S    
O24   H60   S    
C48   H19   S    
Cu2   N4    S    
C28   C29   S    
C35   C37   A    
C26   N3    S    
C29   C47   S    
C30   C50   S    
C26   H4    S    
C56   H34   S    
C60   H39   S    
C62   H49   S    
C66   H52   S    
C55   H36   S    
C23   O5    A    
C59   H41   S    
Cu2   O7    S    
C61   H51   S    
C27   N3    S    
C33   C35   A    
C40   C43   A    
C55   C56   S    
C3    C55   S    
C62   C63   S    
Cu1   O5    S    
C63   H47   S    
C1    O3    A    
C54   O19   D    
C17   H9    S    
C18   C20   S    
C3    C13   A    
C18   H10   S    
C57   H33   S    
C9    C61   S    
C2    C19   S    
C42   C46   S    
C33   N1    A    
C27   C30   S    
C34   N2    A    
C54   O20   S    
C67   O22   S    
C42   C44   A    
C1    O1    A    
C56   C57   S    
C2    O2    A    
C64   H58   S    
C7    C9    A    
C49   H16   S    
C25   C29   S    
C15   C20   S    
C29   N3    S    
C68   O23   D    
C64   H57   S    
C65   H56   S    
C48   C49   S    
Cu2   O3    S    
C4    C6    A    
C50   H27   S    
C5    C7    A    
C17   C19   S    
C60   H40   S    
C6    C8    A    
C3    C5    A    
C62   H48   S    
C49   H15   S    
Cu1   O1    S    
Cu2   O2    S    
C55   H37   S    
C10   C64   S    
C45   O13   D    
C21   H11   S    
C37   C38   A    
C14   N1    S    
C41   C45   S    
C9    C11   A    
C47   C48   S    
C51   H26   S    
C67   O21   D    
C16   C68   S    
C53   O18   S    
C16   C18   S    
C45   O14   S    
C58   C59   S    
C10   C12   A    
C34   O12   S    
C33   O11   S    
C12   C14   A    
C26   C30   S    
C30   N4    S    
C63   H45   S    
C48   H18   S    
C32   N2    A    
C61   C62   S    
Cu1   O4    S    
C31   N1    A    
C49   H17   S    
C46   O16   S    
C57   H31   S    
C44   C54   S    
C27   H1    S    
C66   H53   S    
C28   H2    S    
C1    C20   S    
C16   C22   S    
C19   C21   S    
Cu1   O8    S    
C65   H55   S    
C58   H43   S    
C2    O4    A    
C43   C53   S    
C11   H7    S    
C50   H28   S    
C22   H12   S    
C52   H23   S    
C59   H42   S    
C15   C17   S    
C39   C44   A    
C25   C27   S    
C47   H20   S    
O18   H29   S    
C26   C28   S    
C17   C22   S    
C36   C38   A    
C59   C60   S    
C37   C39   A    
O20   H30   S    
C38   C40   A    
C11   C13   A    
C51   H25   S    
C16   C19   S    
C7    C23   S    
Cu1   N3    S    
C8    C24   S    
C31   C39   A    
C4    C58   S    
C34   C36   A    
C25   N4    S    
C32   C40   A    
C4    C14   A    
C51   C52   S    
C35   C41   A    
C25   H3    S    
C61   H50   S    
C24   O6    A    
C46   O15   D    
Cu1   Cu2   S    
C15   C21   S    
C8    C10   A    
C53   O17   D    
C63   H46   S    
C65   C66   S    
C5    H5    S    
C6    H6    S    
O22   H59   S    
C64   C65   S    
C12   H8    S    
C31   O9    S    
C57   H32   S    
C28   N4    S    
