data_mof_unit_31879.cif
_audit_creation_date              2012-12-11T17:01:31-0500
_audit_creation_method            fapswitch 2.2
_symmetry_space_group_name_H-M    P1
_symmetry_Int_Tables_number       1
_space_group_crystal_system       triclinic
_cell_length_a                    14.983655
_cell_length_b                    14.853011
_cell_length_c                    14.85116
_cell_angle_alpha                 109.255623
_cell_angle_beta                  109.204042
_cell_angle_gamma                 109.952995
_cell_volume                      2544.24381278

loop_
_atom_site_label
_atom_site_type_symbol
_atom_type_description
_atom_site_fract_x
_atom_site_fract_y
_atom_site_fract_z
_atom_type_partial_charge
C1    C     C_R   0.003152 0.804706 0.096034 -0.245751
C2    C     C_R   0.223267 0.751246 0.315446 -0.120774
C3    C     C_R   0.905264 0.408823 0.210049 -0.143244
C4    C     C_R   0.792412 0.195853 0.700539 -0.160353
C5    C     C_R   0.300528 0.591607 0.995821 -0.168350
C6    C     C_R   0.934693 0.500942 0.303108 0.079233
C7    C     C_R   0.301049 0.500123 0.932845 0.010599
C8    C     C_R   0.325793 0.776411 0.325252 0.090549
C9    C     C_R   0.053392 0.229513 0.056171 0.056747
C10   C     C_3   0.469998 0.395844 0.830111 -0.396949
C11   C     C_3   0.366094 0.395664 0.826300 -0.406107
C12   C     C_R   0.697900 0.132044 0.696634 0.079103
C13   C     C_3   0.566443 0.500565 0.038335 -0.391725
C14   C     C_3   0.573288 0.603058 0.931637 -0.398885
C15   C     C_3   0.572996 0.499796 0.935995 0.391958
C16   C     C_R   0.022728 0.591947 0.778153 -0.170520
C17   C     C_3   0.397573 0.500062 0.928905 0.394496
C18   C     C_3   0.463954 0.501073 0.034264 -0.393204
C19   C     C_3   0.469458 0.603306 0.927692 -0.401843
C20   C     C_R   0.622827 0.966471 0.519420 0.161062
C21   C     C_R   0.619949 0.015384 0.615855 0.031789
C22   C     C_R   0.530155 0.954579 0.623763 -0.203230
C23   C     C_R   0.949529 0.500820 0.674439 0.062930
C24   C     C_R   0.435238 0.862880 0.528639 -0.205789
C25   C     C_R   0.430411 0.833063 0.426126 0.030260
C26   C     C_R   0.529173 0.876797 0.425539 0.163963
C27   C     C_3   0.557982 0.918059 0.353737 -0.526370
C28   C     C_R   0.685460 0.407469 0.932989 -0.137235
C29   C     C_3   0.660502 0.015495 0.456432 -0.521389
C30   C     C_R   0.943862 0.603843 0.478652 0.162189
C31   C     C_R   0.897891 0.503955 0.383156 0.032586
C32   C     C_R   0.829757 0.405912 0.375849 -0.208057
C33   C     C_R   0.832532 0.406391 0.471176 -0.198890
C34   C     C_R   0.674581 0.499853 0.948731 -0.011181
C35   C     C_R   0.904236 0.504645 0.573263 0.037042
C36   C     C_R   0.947525 0.604317 0.572786 0.148038
C37   C     C_3   0.059007 0.705987 0.644597 -0.489529
C38   C     C_3   0.054361 0.705597 0.541692 -0.540602
C39   C     C_R   0.041171 0.026695 0.147112 0.148707
C40   C     C_R   0.935677 0.407942 0.684613 -0.114618
C41   C     C_R   0.099894 0.987152 0.106610 0.060943
C42   C     C_R   0.171438 0.052321 0.082634 -0.163880
C43   C     C_R   0.169339 0.144783 0.081358 -0.229492
C44   C     C_R   0.096940 0.173579 0.105530 0.055302
C45   C     C_R   0.995031 0.591831 0.299304 -0.159696
C46   C     C_R   0.040068 0.119724 0.146977 0.129433
C47   C     C_3   0.061350 0.168975 0.262443 -0.487608
C48   C     C_3   0.062108 0.067942 0.262540 -0.506122
C49   C     C_R   0.777397 0.592321 0.025349 -0.128110
C50   C     C_R   0.699026 0.195507 0.789754 -0.135992
C51   C     C_R   0.095700 0.806863 0.006860 0.497432
C52   C     C_R   0.066516 0.870789 0.068856 -0.054934
C53   C     C_3   0.262139 0.839202 0.022040 0.227564
C54   C     C_3   0.348937 0.901276 0.999937 -0.946092
C55   C     C_R   0.208863 0.408457 0.904111 -0.150888
C56   C     C_R   0.313178 0.745885 0.221382 -0.191234
C57   C     C_R   0.975423 0.253650 0.068418 -0.133230
C58   C     C_R   0.068842 0.253565 0.977630 -0.123172
H1    H     H_    0.979324 0.832124 0.156498 0.129636
H2    H     H_    0.473261 0.394787 0.756012 0.158143
H3    H     H_    0.317370 0.393409 0.749768 0.157250
H4    H     H_    0.827782 0.167185 0.652852 0.102058
H5    H     H_    0.315564 0.319040 0.823729 0.147879
H6    H     H_    0.565234 0.426581 0.042290 0.156866
H7    H     H_    0.413605 0.427513 0.036495 0.155721
H8    H     H_    0.645194 0.680712 0.005287 0.146553
H9    H     H_    0.577302 0.603086 0.858151 0.158681
H10   H     H_    0.422313 0.603858 0.852457 0.157720
H11   H     H_    0.495307 0.680723 0.000050 0.147273
H12   H     H_    0.178299 0.323124 0.848107 0.085783
H13   H     H_    0.639531 0.574755 0.115199 0.155156
H14   H     H_    0.487832 0.575797 0.108724 0.156109
H15   H     H_    0.527291 0.984480 0.699134 0.125920
H16   H     H_    0.046303 0.676209 0.801022 0.167498
H17   H     H_    0.362804 0.825576 0.534195 0.127093
H18   H     H_    0.574848 0.863151 0.298554 0.186673
H19   H     H_    0.501518 0.942817 0.313120 0.199385
H20   H     H_    0.736200 0.016157 0.460618 0.187711
H21   H     H_    0.661791 0.094836 0.473495 0.199287
H22   H     H_    0.785473 0.327228 0.301104 0.125344
H23   H     H_    0.373866 0.748363 0.197418 0.115367
H24   H     H_    0.790339 0.328093 0.466327 0.125943
H25   H     H_    0.058188 0.778004 0.698548 0.207924
H26   H     H_    0.124413 0.690965 0.686533 0.201882
H27   H     H_    0.050073 0.776966 0.536077 0.190831
H28   H     H_    0.621973 0.321770 0.884674 0.092983
H29   H     H_    0.117011 0.690522 0.526075 0.200988
H30   H     H_    0.224215 0.030015 0.058150 0.189508
H31   H     H_    0.217189 0.187353 0.052418 0.127202
H32   H     H_    0.142206 0.246103 0.320510 0.199822
H33   H     H_    0.991008 0.175279 0.267134 0.185030
H34   H     H_    0.943665 0.244130 0.122271 0.102858
H35   H     H_    0.143331 0.085755 0.320936 0.198813
H36   H     H_    0.992053 0.015565 0.267098 0.182640
H37   H     H_    0.883518 0.322443 0.620553 0.090201
H38   H     H_    0.799122 0.677865 0.062820 0.093035
H39   H     H_    0.646611 0.166787 0.821442 0.084007
H40   H     H_    0.014084 0.675414 0.346295 0.102059
H41   H     H_    0.243164 0.752536 0.986146 0.121514
H42   H     H_    0.296796 0.877902 0.112841 0.098375
H43   H     H_    0.371904 0.989586 0.035842 0.253908
H44   H     H_    0.422911 0.895745 0.037757 0.211885
H45   H     H_    0.123062 0.243471 0.947360 0.093472
H46   H     H_    0.317211 0.864575 0.909932 0.262916
H47   H     H_    0.202578 0.763028 0.379934 0.090989
H48   H     H_    0.844525 0.324501 0.178021 0.084583
H49   H     H_    0.356670 0.676944 0.026002 0.081412
H50   H     H_    0.464839 0.318694 0.827808 0.147423
N1    N     N_R   0.995640 0.706130 0.053910 -0.057163
N2    N     N_R   0.054010 0.556790 0.847890 -0.046681
N3    N     N_R   0.789940 0.443190 0.997130 -0.036152
N4    N     N_R   0.997630 0.443170 0.791110 -0.037993
N5    N     N_R   0.846320 0.556810 0.053910 -0.032727
N6    N     N_R   0.791080 0.293860 0.847890 -0.037062
N7    N     N_R   0.052880 0.706130 0.997130 -0.102112
N8    N     N_R   0.002370 0.556830 0.208890 -0.035381
N9    N     N_R   0.153680 0.443190 0.946090 -0.030207
N10   N     N_R   0.208920 0.706140 0.152110 -0.059227
N11   N     N_R   0.947120 0.293870 0.002870 -0.041019
N12   N     N_R   0.004360 0.293870 0.946090 -0.040691
N13   N     N_R   0.151690 0.706140 0.208890 -0.039357
N14   N     N_R   0.945990 0.443210 0.152110 -0.037431
N15   N     N_R   0.210060 0.556810 0.002870 -0.035514
N16   N     N_R   0.848310 0.293860 0.791110 -0.037748
Ni1   Ni    Ni4+2 0.999010 0.630300 0.130220 0.199793
Ni2   Ni    Ni4+2 0.000990 0.369700 0.869780 0.209243
Ni3   Ni    Ni4+2 0.130280 0.630280 0.000000 0.203064
Ni4   Ni    Ni4+2 0.869720 0.369720 0.000000 0.209014
O1    O     O_3   0.167905 0.844572 0.971522 -0.672839

loop_
_geom_bond_atom_site_label_1
_geom_bond_atom_site_label_2
_ccdc_geom_bond_type
C49   N5    A    
C6    C45   A    
C27   C29   S    
C41   C42   A    
C54   H43   S    
C10   H50   S    
C35   C36   A    
C7    C55   A    
C3    C6    A    
C8    C56   A    
C51   O1    S    
C16   N2    A    
C56   H23   S    
C39   C41   A    
C53   C54   S    
C53   H41   S    
C18   H7    S    
C30   C38   S    
C26   C27   S    
C43   H31   S    
C48   H36   S    
C13   C18   S    
C16   H16   S    
C50   H39   S    
C54   H46   S    
C36   C37   S    
C57   H34   S    
C11   H5    S    
C45   H40   S    
C1    H1    S    
C5    H49   S    
C30   C31   A    
N12   Ni2   S    
N5    Ni1   S    
C23   C40   A    
C4    H4    S    
N7    Ni3   S    
C4    N16   A    
C9    C58   A    
C1    N1    A    
C29   H20   S    
C47   C48   S    
C7    C17   S    
C14   H9    S    
C37   H26   S    
C4    C12   A    
C33   H24   S    
C15   C34   S    
N4    Ni2   S    
C3    N14   A    
N2    Ni3   S    
C57   N11   A    
N6    N16   A    
N11   Ni4   S    
C6    C31   S    
C28   C34   A    
C53   H42   S    
C21   C22   A    
C8    C25   S    
C47   H33   S    
C44   C46   A    
C20   C29   S    
C28   N3    A    
C18   H14   S    
C48   H35   S    
C38   H27   S    
C51   C52   A    
C24   C25   A    
C40   N4    A    
C5    C7    A    
C17   C19   S    
C13   H13   S    
C11   H3    S    
C25   C26   A    
C12   C21   S    
C51   N7    A    
C50   N6    A    
N10   N13   A    
C10   H2    S    
C43   C44   A    
N13   Ni1   S    
C37   C38   S    
C32   H22   S    
N6    Ni4   S    
N15   Ni3   S    
C31   C32   A    
C29   H21   S    
C58   N12   A    
C17   C18   S    
C14   H8    S    
C19   H10   S    
N3    N5    A    
C9    C44   S    
N8    N14   A    
C39   C46   A    
N1    Ni1   S    
C16   C23   A    
C23   C35   S    
N8    Ni1   S    
C13   C15   S    
C28   H28   S    
C47   H32   S    
C22   C24   A    
C19   H11   S    
C42   H30   S    
C42   C43   A    
C40   H37   S    
C27   H18   S    
N16   Ni2   S    
C55   N9    A    
C2    N13   A    
C46   C47   S    
C11   C17   S    
C34   C49   A    
C41   C52   S    
C56   N10   A    
C14   C19   S    
C54   H44   S    
C2    C8    A    
C27   H19   S    
C12   C50   A    
N11   N12   A    
C24   H17   S    
C5    N15   A    
C2    H47   S    
C30   C36   A    
C38   H29   S    
C10   C15   S    
C32   C33   A    
C3    H48   S    
N9    N15   A    
C45   N8    A    
C13   H6    S    
C20   C26   A    
C33   C35   A    
C9    C57   A    
C49   H38   S    
N14   Ni4   S    
C1    C52   A    
N2    N4    A    
C55   H12   S    
C10   C11   S    
N1    N7    A    
C53   O1    S    
C20   C21   A    
N10   Ni3   S    
N3    Ni4   S    
C14   C15   S    
C37   H25   S    
N9    Ni2   S    
C58   H45   S    
C22   H15   S    
C39   C48   S    
