data_mof_unit_20017.cif
_audit_creation_date              2012-12-11T14:17:31-0500
_audit_creation_method            fapswitch 2.2
_symmetry_space_group_name_H-M    P1
_symmetry_Int_Tables_number       1
_space_group_crystal_system       triclinic
_cell_length_a                    6.944884
_cell_length_b                    13.638294
_cell_length_c                    20.444615
_cell_angle_alpha                 102.122676
_cell_angle_beta                  90.156479
_cell_angle_gamma                 90.745818
_cell_volume                      1893.0675232

loop_
_atom_site_label
_atom_site_type_symbol
_atom_type_description
_atom_site_fract_x
_atom_site_fract_y
_atom_site_fract_z
_atom_type_partial_charge
O1    O     O_R   0.506860 0.599390 0.449240 -0.546421
O2    O     O_R   0.180220 0.594600 0.586780 -0.556208
O3    O     O_R   0.004500 0.400610 0.550760 -0.541674
C1    C     C_R   0.349552 0.613087 0.614229 0.756086
O4    O     O_R   0.177490 0.611290 0.451970 -0.537104
O5    O     O_R   0.001750 0.417420 0.414990 -0.542002
C2    C     C_R   0.346844 0.637762 0.435064 0.734459
O6    O     O_R   0.509610 0.582580 0.585010 -0.524869
O7    O     O_3   0.337420 0.436370 0.488020 -0.379508
V1    V     V_3+5 0.064680 0.511800 0.502220 1.439212
O8    O     O_R   0.671710 0.405400 0.413220 -0.549417
C3    C     C_R   0.839505 0.384091 0.386505 0.734288
O9    O     O_R   0.674440 0.388710 0.548030 -0.540776
C4    C     C_R   0.842631 0.361644 0.564294 0.702315
V2    V     V_3+5 0.564010 0.488200 0.497780 1.434606
O10   O     O_3   0.841140 0.563630 0.511980 -0.368731
C5    C     C_R   0.845489 0.108937 0.608503 -0.110368
H1    H     H_    0.835657 0.161718 0.516913 0.106714
H2    H     H_    0.842781 0.031543 0.581610 0.161252
C6    C     C_R   0.848755 0.283440 0.603121 -0.029556
C7    C     C_R   0.853722 0.316164 0.926441 -0.023713
C8    C     C_R   0.838838 0.388745 0.888153 -0.202308
C9    C     C_R   0.836213 0.363036 0.819004 -0.126680
C10   C     C_R   0.850812 0.262324 0.784032 0.036566
C11   C     C_R   0.861097 0.185288 0.821753 0.001838
C12   C     C_R   0.852441 0.236832 0.712581 0.015879
C13   C     C_R   0.852095 0.134434 0.679110 0.107516
C14   C     C_R   0.859893 0.058568 0.715831 0.137625
C15   C     C_R   0.868508 0.083029 0.786350 0.096458
C16   C     C_R   0.855300 0.310367 0.672789 -0.183149
C17   C     C_R   0.842071 0.182903 0.571019 -0.210101
C18   C     C_R   0.862867 0.213634 0.893699 -0.102225
H3    H     H_    0.864036 0.389575 0.693809 0.100195
H4    H     H_    0.819269 0.425060 0.794665 0.117111
H5    H     H_    0.828420 0.467339 0.912128 0.109969
C19   C     C_2   0.004855 0.288962 0.285216 -0.132812
C20   C     C_2   0.841571 0.315828 0.319695 -0.307697
H6    H     H_    0.142045 0.317585 0.307413 0.134056
H7    H     H_    0.702817 0.287810 0.299144 0.126236
C21   C     C_2   0.013734 0.220979 0.217635 -0.122960
C22   C     C_2   0.858935 0.182895 0.180438 -0.265465
H8    H     H_    0.156708 0.202384 0.197837 0.131124
H9    H     H_    0.714739 0.200707 0.198734 0.119477
C23   C     C_2   0.210748 0.777232 0.786401 -0.167475
C24   C     C_2   0.362753 0.829858 0.816467 -0.317035
H10   H     H_    0.075252 0.779106 0.813023 0.142833
H11   H     H_    0.493657 0.834337 0.788817 0.130510
C25   C     C_2   0.214098 0.721793 0.715397 -0.176044
C26   C     C_2   0.365314 0.669164 0.684347 0.066083
H12   H     H_    0.079320 0.720826 0.688156 0.125701
C27   C     C_R   0.393897 0.889448 0.387514 -0.193810
H13   H     H_    0.414066 0.013901 0.304148 0.120763
H14   H     H_    0.412064 0.967860 0.411494 0.110821
C28   C     C_R   0.358263 0.715821 0.395687 -0.045865
C29   C     C_R   0.332254 0.685477 0.072106 -0.176926
C30   C     C_R   0.318769 0.609770 0.107981 -0.118377
C31   C     C_R   0.327626 0.632493 0.177652 -0.150204
C32   C     C_R   0.350491 0.732843 0.213618 0.085840
C33   C     C_R   0.364522 0.810172 0.176361 0.065738
C34   C     C_R   0.359855 0.759055 0.285133 0.075932
C35   C     C_R   0.383275 0.861464 0.317456 0.108292
C36   C     C_R   0.396345 0.935637 0.279783 -0.190126
C37   C     C_R   0.387110 0.910630 0.210458 -0.199100
C38   C     C_R   0.347058 0.687296 0.325881 -0.274231
C39   C     C_R   0.382448 0.817144 0.427019 0.195877
C40   C     C_R   0.355185 0.785369 0.105489 -0.071720
H15   H     H_    0.328968 0.608291 0.305159 0.106591
H16   H     H_    0.324511 0.666137 0.017959 0.102567
H17   H     H_    0.315982 0.569568 0.201630 0.114131
H18   H     H_    0.300973 0.532582 0.081555 0.129006
H19   H     H_    0.398053 0.971130 0.183758 0.113310
O11   O     O_R   0.203230 0.917310 0.915020 -0.536881
O12   O     O_R   0.535500 0.888690 0.048040 -0.545374
O13   O     O_R   0.711080 0.082610 0.085000 -0.545969
C41   C     C_R   0.366246 0.862512 0.065222 0.676951
O14   O     O_R   0.532630 0.905370 0.913230 -0.547476
O15   O     O_R   0.708190 0.099410 0.949230 -0.536545
C42   C     C_R   0.364097 0.886656 0.886070 0.739617
O16   O     O_R   0.206120 0.900510 0.050790 -0.544260
O17   O     O_3   0.375360 0.063570 0.011990 -0.371783
V3    V     V_3+5 0.648170 0.988200 0.997780 1.447346
O18   O     O_R   0.038240 0.111390 0.951940 -0.531398
C43   C     C_R   0.869996 0.137705 0.934982 0.885753
O19   O     O_R   0.041120 0.094710 0.086750 -0.539586
C44   C     C_R   0.872798 0.115373 0.113651 0.800697
V4    V     V_3+5 0.148810 0.011930 0.002180 1.467836
O20   O     O_3   0.871750 0.936430 0.988010 -0.377946
N1    N     N_3   0.540319 0.655617 0.719142 -0.677706
H20   H     H_    0.511153 0.645813 0.767518 0.247948
H21   H     H_    0.633722 0.716421 0.719728 0.222624
N2    N     N_3   0.393656 0.845901 0.498750 -0.678073
H22   H     H_    0.522809 0.818457 0.513698 0.223520
H23   H     H_    0.401473 0.923987 0.514100 0.231904
N3    N     N_3   0.861409 0.955438 0.680704 -0.693238
H24   H     H_    0.742585 0.917647 0.695382 0.226767
H25   H     H_    0.987852 0.922018 0.692418 0.239564
C45   C     C_2   0.856685 0.353038 0.000533 0.304399
H26   H     H_    0.839215 0.432488 0.021320 0.063778
O21   O     O_2   0.880017 0.297344 0.039322 -0.548283
N4    N     N_3   0.886899 0.002833 0.821393 -0.670910
H27   H     H_    0.014221 0.964802 0.806685 0.234937
H28   H     H_    0.769766 0.953410 0.809755 0.219466

loop_
_geom_bond_atom_site_label_1
_geom_bond_atom_site_label_2
_ccdc_geom_bond_type
C29   C30   A    
O12   C41   A    
N1    H21   S    
C27   C35   A    
C1    O6    A    
C29   H16   S    
C28   C39   A    
C6    C16   A    
C8    H5    S    
C12   C13   A    
C19   C20   D    
O14   C42   A    
C33   C40   A    
O5    C3    A    
O15   C43   A    
C32   C34   A    
V2    O10   S    
C30   C31   A    
C14   N3    S    
C27   C39   A    
C3    C20   S    
O11   C42   A    
O8    V2    S    
O17   V4    S    
C9    C10   A    
C24   C42   S    
O1    V2    S    
O7    V1    S    
C15   N4    S    
C11   C18   A    
C21   H8    S    
O9    C4    A    
C22   H9    S    
C26   N1    S    
N3    H24   S    
O12   V3    S    
C45   O21   D    
C23   H10   S    
C45   H26   S    
C24   H11   S    
C11   C15   A    
C7    C18   A    
C5    C13   A    
C38   H15   S    
C4    C6    S    
C19   C21   S    
C10   C11   A    
N2    H22   S    
O4    C2    A    
V4    O20   S    
C32   C33   A    
O18   V4    S    
C34   C35   A    
C27   H14   S    
O2    C1    A    
C36   C37   A    
N2    H23   S    
C7    C45   S    
O15   V3    S    
C9    H4    S    
N4    H28   S    
O19   C44   A    
N3    H25   S    
V3    O20   S    
O3    C4    A    
C21   C22   D    
C37   H19   S    
C12   C16   A    
O6    V2    S    
C30   H18   S    
O9    V2    S    
C5    C17   A    
O13   V3    S    
O2    V1    S    
C29   C40   A    
C23   C24   D    
C39   N2    S    
C18   C43   S    
C14   C15   A    
C16   H3    S    
O1    C2    A    
C10   C12   A    
O17   V3    S    
O14   V3    S    
O5    V1    S    
O11   V4    S    
O8    C3    A    
C22   C44   S    
C33   C37   A    
C1    C26   S    
C34   C38   A    
C19   H6    S    
O7    V2    S    
O4    V1    S    
C20   H7    S    
O3    V1    S    
V1    O10   S    
C31   C32   A    
C28   C38   A    
C25   C26   D    
C40   C41   S    
C25   H12   S    
N4    H27   S    
C5    H2    S    
O13   C44   A    
C35   C36   A    
N1    H20   S    
O18   C43   A    
C13   C14   A    
C8    C9    A    
O19   V4    S    
H13   C36   S    
H1    C17   S    
C2    C28   S    
C31   H17   S    
C7    C8    A    
C41   O16   A    
O16   V4    S    
C23   C25   S    
C6    C17   A    
