data_mof_unit_46473.cif
_audit_creation_date              2012-12-10T17:24:47-0500
_audit_creation_method            fapswitch 2.2
_symmetry_space_group_name_H-M    P1
_symmetry_Int_Tables_number       1
_space_group_crystal_system       triclinic
_cell_length_a                    23.561814
_cell_length_b                    10.803325
_cell_length_c                    9.608827
_cell_angle_alpha                 90.448585
_cell_angle_beta                  88.962015
_cell_angle_gamma                 95.408941
_cell_volume                      2434.55134781

loop_
_atom_site_label
_atom_site_type_symbol
_atom_type_description
_atom_site_fract_x
_atom_site_fract_y
_atom_site_fract_z
_atom_type_partial_charge
C1    C     C_R   0.497151 0.261954 0.499349 0.835002
C2    C     C_R   0.964529 0.278972 0.461775 0.453413
C3    C     C_R   0.024162 0.285224 0.457883 -0.246135
C4    C     C_R   0.057281 0.399562 0.469575 -0.082418
C5    C     C_R   0.030350 0.509601 0.486050 -0.015657
C6    C     C_R   0.063506 0.624660 0.498706 -0.005137
C7    C     C_R   0.036327 0.734256 0.514484 -0.150251
C8    C     C_R   0.976996 0.729777 0.518006 -0.167525
C9    C     C_R   0.117028 0.406402 0.466438 0.574357
C10   C     C_R   0.123205 0.626799 0.497742 0.550101
C11   C     C_R   0.245261 0.585601 0.392536 -0.118428
C12   C     C_R   0.391099 0.503002 0.500967 0.842713
C13   C     C_R   0.304411 0.583667 0.397871 0.184442
C14   C     C_R   0.328849 0.513322 0.501575 -0.185533
C15   C     C_R   0.292312 0.451348 0.602648 0.201216
C16   C     C_R   0.233580 0.456387 0.596707 -0.106118
C17   C     C_R   0.209680 0.520945 0.490734 0.228645
C18   C     C_R   0.761835 0.463244 0.372627 0.303363
C19   C     C_R   0.701852 0.454882 0.372453 0.257512
C20   C     C_R   0.671391 0.486107 0.494881 -0.161811
C21   C     C_R   0.701744 0.511761 0.617799 -0.190542
C22   C     C_R   0.760835 0.515670 0.618555 -0.126802
C23   C     C_R   0.496587 0.736183 0.500459 0.860745
C24   C     C_R   0.791139 0.493409 0.496283 0.220019
C25   C     C_R   0.416449 0.112509 0.681861 -0.141446
C26   C     C_R   0.379618 0.041384 0.771460 -0.115031
C27   C     C_R   0.379269 0.912892 0.771665 -0.112717
C28   C     C_R   0.415774 0.854825 0.682367 -0.125309
C29   C     C_R   0.454783 0.925338 0.593322 0.096182
C30   C     C_R   0.455116 0.056355 0.592544 0.024686
C31   C     C_R   0.491731 0.126446 0.496816 -0.203660
C32   C     C_R   0.522386 0.065639 0.393852 0.434097
C33   C     C_R   0.524437 0.938285 0.401754 -0.250388
C34   C     C_R   0.608780 0.493687 0.498282 0.905768
C35   C     C_R   0.491921 0.868607 0.500843 -0.122749
C36   C     C_R   0.582830 0.648365 0.149611 -0.218543
C37   C     C_R   0.635108 0.687583 0.092150 0.163515
C38   C     C_R   0.642764 0.679704 0.949259 0.389018
C39   C     C_R   0.595143 0.642194 0.865790 0.156349
C40   C     C_R   0.543786 0.573399 0.925784 0.091298
C41   C     C_R   0.541288 0.574394 0.075462 0.052208
C42   C     C_R   0.460629 0.426559 0.076477 0.556058
C43   C     C_R   0.461005 0.427714 0.926830 -0.166834
C44   C     C_R   0.883841 0.609535 0.508753 0.575522
C45   C     C_R   0.877162 0.387928 0.489897 0.614791
C46   C     C_R   0.936984 0.389004 0.481415 -0.123014
C47   C     C_R   0.970224 0.504621 0.491052 -0.070589
C48   C     C_R   0.943532 0.615566 0.506456 0.004384
Cu1   Cu    Cu3+1 0.500000 0.499990 0.640660 0.989959
Cu2   Cu    Cu3+1 0.500000 0.500010 0.359340 1.043162
H1    H     H_    0.679717 0.528581 0.714385 0.232290
H2    H     H_    0.783255 0.536393 0.714604 0.194421
H3    H     H_    0.412491 0.210854 0.680138 0.180970
H4    H     H_    0.350108 0.085779 0.838458 0.169508
H5    H     H_    0.349709 0.857716 0.839137 0.167459
H6    H     H_    0.411552 0.754498 0.681759 0.159956
H7    H     H_    0.552004 0.893535 0.329445 0.172726
H8    H     H_    0.044274 0.199503 0.446210 0.199498
H9    H     H_    0.578765 0.670259 0.256447 0.237737
H10   H     H_    0.431111 0.366629 0.869337 0.161447
H11   H     H_    0.060780 0.823837 0.524493 0.193783
H12   H     H_    0.957485 0.816070 0.530725 0.187481
H13   H     H_    0.226807 0.637258 0.311420 0.189629
H14   H     H_    0.205949 0.407590 0.673754 0.187582
N1    N     N_R   0.852149 0.497137 0.499277 -0.453234
N2    N     N_R   0.148723 0.518523 0.482656 -0.453101
N3    N     N_R   0.500540 0.501210 0.147910 -0.194442
N4    N     N_R   0.500560 0.501290 0.852040 -0.183192
O1    O     O_R   0.500000 0.319640 0.618810 -0.603582
O2    O     O_2   0.843908 0.279213 0.488267 -0.471231
O3    O     O_2   0.143340 0.301706 0.447278 -0.526212
O4    O     O_2   0.155420 0.735787 0.514325 -0.521607
O5    O     O_R   0.500000 0.319660 0.381240 -0.504419
O6    O     O_R   0.417880 0.499950 0.618810 -0.569250
O7    O     O_R   0.417880 0.499980 0.381240 -0.512001
O8    O     O_R   0.500000 0.680340 0.618760 -0.546328
O9    O     O_R   0.500000 0.680360 0.381190 -0.601294
O10   O     O_R   0.582120 0.500020 0.618760 -0.562527
O11   O     O_R   0.582120 0.500050 0.381190 -0.558601
O12   O     O_2   0.857580 0.715057 0.519186 -0.536560
O13   O     O_3   0.933662 0.163877 0.452520 -0.538483
C49   C     C_3   0.929987 0.128716 0.310831 0.059016
H15   H     H_    0.972649 0.110421 0.268003 0.133253
H16   H     H_    0.912413 0.201972 0.247642 0.175489
C50   C     C_3   0.890176 0.010050 0.297633 -0.610341
H17   H     H_    0.847110 0.025485 0.339299 0.284087
H18   H     H_    0.886628 0.982029 0.186460 0.193653
H19   H     H_    0.907049 0.933946 0.356540 0.247215
Br1   Br    Br    0.663981 0.389557 0.207577 -0.418362
O14   O     O_3   0.553319 0.131629 0.289947 -0.537828
C51   C     C_3   0.526173 0.104965 0.161328 0.093059
H20   H     H_    0.481008 0.127786 0.166244 0.169114
H21   H     H_    0.527176 0.005320 0.131835 0.134352
C52   C     C_3   0.556958 0.182299 0.046572 -0.662030
H22   H     H_    0.556662 0.282667 0.071090 0.261870
H23   H     H_    0.601734 0.158926 0.035875 0.266149
H24   H     H_    0.535151 0.162697 0.946151 0.187606
O15   O     O_3   0.424546 0.343457 0.154734 -0.573163
C53   C     C_3   0.370139 0.318281 0.096387 0.022936
H25   H     H_    0.372151 0.250617 0.009358 0.155758
H26   H     H_    0.352901 0.404965 0.060480 0.204698
C54   C     C_3   0.329285 0.258339 0.206067 -0.673559
H27   H     H_    0.325218 0.322906 0.295137 0.248974
H28   H     H_    0.286561 0.235605 0.160497 0.224958
H29   H     H_    0.345277 0.171431 0.244120 0.241742
Br2   Br    Br    0.694475 0.748448 0.216689 -0.481007
O16   O     O_3   0.696716 0.704677 0.888382 -0.555301
C55   C     C_3   0.715312 0.833378 0.891494 0.120253
H30   H     H_    0.743069 0.854709 0.982067 0.202765
H31   H     H_    0.679645 0.894370 0.896415 0.158300
C56   C     C_3   0.751543 0.865972 0.761659 -0.652683
H32   H     H_    0.726159 0.846392 0.666505 0.285806
H33   H     H_    0.767157 0.966209 0.763756 0.212101
H34   H     H_    0.788799 0.810142 0.757713 0.263148
Br3   Br    Br    0.604457 0.748698 0.705487 -0.520092
Br4   Br    Br    0.348943 0.684491 0.263877 -0.519994
Br5   Br    Br    0.317920 0.351783 0.748035 -0.628695
Br6   Br    Br    0.804658 0.436887 0.203626 -0.413563

loop_
_geom_bond_atom_site_label_1
_geom_bond_atom_site_label_2
_ccdc_geom_bond_type
Cu1   N4    S    
C12   O6    A    
C55   H30   S    
C56   H32   S    
C23   O8    A    
C36   H9    S    
Cu2   O11   S    
O13   C49   S    
C28   H6    S    
C7    C8    A    
C41   N3    A    
C50   H17   S    
C2    C46   A    
C5    C47   A    
C17   N2    S    
C29   C30   A    
C18   C24   A    
C28   C29   A    
C25   H3    S    
C11   H13   S    
C42   O15   S    
C30   C31   A    
C27   H5    S    
C15   C16   A    
O15   C53   S    
C1    C31   S    
Cu1   O10   S    
C54   H29   S    
C18   C19   A    
C38   O16   S    
C9    N2    A    
C7    H11   S    
C32   O14   S    
C47   C48   A    
C16   C17   A    
O16   C55   S    
Cu2   N3    S    
C18   Br6   S    
C20   C34   S    
C10   N2    A    
Cu1   O1    S    
C21   C22   A    
C36   C41   A    
C52   H22   S    
C26   H4    S    
C50   H18   S    
C38   C39   A    
C44   O12   S    
Cu2   O5    S    
C51   H20   S    
C43   N4    A    
C52   H24   S    
C25   C26   A    
C45   C46   A    
C1    O1    A    
C15   Br5   S    
C54   H28   S    
C8    C48   A    
C37   C38   A    
C19   Br1   S    
C34   O11   A    
C51   H21   S    
C53   H25   S    
C26   C27   A    
Cu1   O8    S    
C56   H33   S    
C23   O9    A    
C52   H23   S    
C43   H10   S    
C24   N1    S    
C40   C41   A    
C53   H26   S    
C12   C14   S    
Cu1   Cu2   S    
C49   H16   S    
C45   N1    A    
C42   N3    A    
C22   C24   A    
C42   C43   A    
C3    C4    A    
Cu2   O9    S    
C21   H1    S    
C22   H2    S    
C50   H19   S    
C25   C30   A    
C46   C47   A    
C11   C17   A    
C33   H7    S    
C45   O2    S    
C14   C15   A    
C31   C32   A    
C9    O3    S    
C4    C5    A    
C6    C10   A    
C6    C7    A    
C49   C50   S    
C29   C35   A    
C39   Br3   S    
C55   C56   S    
C1    O5    A    
C32   C33   A    
C19   C20   A    
C2    C3    A    
C37   Br2   S    
Cu2   O7    S    
C34   O10   A    
C51   C52   S    
C11   C13   A    
O14   C51   S    
C5    C6    A    
C44   N1    A    
C33   C35   A    
C55   H31   S    
C56   H34   S    
C54   H27   S    
C23   C35   S    
C13   Br4   S    
C39   C40   A    
C3    H8    S    
C53   C54   S    
C20   C21   A    
C36   C37   A    
C49   H15   S    
C40   N4    A    
C12   O7    A    
C27   C28   A    
Cu1   O6    S    
C2    O13   S    
C16   H14   S    
C4    C9    A    
C13   C14   A    
C44   C48   A    
C8    H12   S    
C10   O4    S    
