data_mof_unit_15085.cif
_audit_creation_date              2012-12-11T15:39:28-0500
_audit_creation_method            fapswitch 2.2
_symmetry_space_group_name_H-M    P1
_symmetry_Int_Tables_number       1
_space_group_crystal_system       triclinic
_cell_length_a                    17.323151
_cell_length_b                    24.317193
_cell_length_c                    14.922508
_cell_angle_alpha                 89.935019
_cell_angle_beta                  125.439542
_cell_angle_gamma                 90.142866
_cell_volume                      5121.45446898

loop_
_atom_site_label
_atom_site_type_symbol
_atom_type_description
_atom_site_fract_x
_atom_site_fract_y
_atom_site_fract_z
_atom_type_partial_charge
C1    C     C_R   0.354420 0.347625 0.907974 0.668279
C2    C     C_R   0.437204 0.499598 0.633479 0.034252
C3    C     C_R   0.181532 0.855797 0.997645 -0.129616
C4    C     C_R   0.960685 0.998792 0.287463 0.034185
C5    C     C_R   0.930731 0.999613 0.631053 0.044412
C6    C     C_R   0.174420 0.500907 0.722725 0.047120
C7    C     C_R   0.803542 0.500568 0.366560 0.046583
C8    C     C_R   0.701059 0.001199 0.631643 0.051222
C9    C     C_R   0.327313 0.001385 0.305548 0.051703
C10   C     C_R   0.022471 0.552378 0.621229 0.167742
C11   C     C_R   0.929091 0.552020 0.531357 0.166804
C12   C     C_R   0.574090 0.053494 0.471272 0.167744
C13   C     C_R   0.647977 0.348152 0.090912 0.700773
C14   C     C_R   0.477857 0.053108 0.392441 0.165819
C15   C     C_R   0.071741 0.502823 0.665477 0.034689
C16   C     C_R   0.882910 0.502230 0.482658 0.033181
C17   C     C_R   0.621978 0.003678 0.516615 0.031644
C18   C     C_R   0.428582 0.003174 0.357697 0.040015
C19   C     C_R   0.018435 0.453953 0.635573 -0.192671
C20   C     C_R   0.923875 0.453583 0.543532 -0.192982
C21   C     C_R   0.578095 0.954926 0.458044 -0.194805
C22   C     C_R   0.480414 0.954628 0.378158 -0.197910
C23   C     C_3   0.941729 0.602063 0.482604 -0.520911
C24   C     C_R   0.850701 0.848437 0.908114 0.704276
C25   C     C_3   0.043961 0.602375 0.580233 -0.517701
C26   C     C_3   0.463022 0.103985 0.436872 -0.524436
C27   C     C_3   0.568112 0.104568 0.523525 -0.520998
C28   C     C_R   0.285530 0.764624 0.895925 -0.177084
C29   C     C_R   0.841711 0.686792 0.101255 -0.178445
C30   C     C_R   0.661486 0.191556 0.894719 -0.181771
C31   C     C_R   0.340234 0.188136 0.097593 -0.179321
C32   C     C_R   0.610729 0.234853 0.895813 -0.148092
C33   C     C_R   0.392650 0.231116 0.097488 -0.156674
C34   C     C_R   0.232617 0.806904 0.895634 -0.157448
C35   C     C_R   0.182643 0.867276 0.089527 0.680317
C36   C     C_R   0.888783 0.732598 0.100362 -0.151083
C37   C     C_R   0.639135 0.258200 0.996561 0.175713
C38   C     C_R   0.361816 0.256853 0.997861 0.177445
C39   C     C_R   0.253545 0.826412 0.995682 0.166404
C40   C     C_R   0.857726 0.757707 0.000023 0.174777
C41   C     C_R   0.444278 0.652504 0.090609 -0.133694
C42   C     C_R   0.598552 0.624149 0.908412 -0.121684
C43   C     C_R   0.905159 0.131464 0.089126 -0.124341
C44   C     C_R   0.095605 0.126328 0.906751 -0.126578
C45   C     C_R   0.702960 0.229556 0.094378 -0.139893
C46   C     C_R   0.384420 0.684392 0.998661 0.062204
C47   C     C_R   0.292616 0.230952 0.898456 -0.145814
C48   C     C_R   0.339661 0.812234 0.094234 -0.113788
C49   C     C_R   0.793040 0.729607 0.901529 -0.139351
C50   C     C_R   0.391919 0.769149 0.094770 -0.191471
C51   C     C_R   0.745896 0.683843 0.902529 -0.205882
C52   C     C_R   0.753613 0.186066 0.093225 -0.205661
C53   C     C_R   0.240080 0.188247 0.898621 -0.208909
C54   C     C_R   0.358485 0.741462 0.996288 0.141958
C55   C     C_R   0.762757 0.666364 0.001825 0.151796
C56   C     C_R   0.740239 0.171533 0.994409 0.153944
C57   C     C_R   0.688709 0.636881 0.000886 0.044630
C58   C     C_R   0.257079 0.171274 0.998124 0.155657
C59   C     C_R   0.394285 0.549235 0.465183 -0.165446
C60   C     C_R   0.394531 0.549230 0.372633 -0.161058
C61   C     C_R   0.888941 0.048536 0.463265 -0.167750
C62   C     C_R   0.897748 0.048230 0.376931 -0.163833
C63   C     C_R   0.406005 0.499524 0.334236 0.139779
C64   C     C_R   0.404201 0.499466 0.518461 0.140179
C65   C     C_R   0.915649 0.998469 0.344867 0.144569
C66   C     C_R   0.897353 0.999010 0.516281 0.138887
C67   C     C_R   0.395328 0.449697 0.373328 -0.165906
C68   C     C_R   0.814735 0.142794 0.996478 0.047016
C69   C     C_R   0.395061 0.449647 0.465876 -0.164594
C70   C     C_R   0.902118 0.948661 0.381171 -0.166340
C71   C     C_R   0.892578 0.948937 0.466810 -0.169514
C72   C     C_R   0.479939 0.453772 0.248060 -0.113780
C73   C     C_R   0.453545 0.453947 0.697670 -0.101181
C74   C     C_R   0.985099 0.953175 0.253640 -0.113480
C75   C     C_R   0.948709 0.954142 0.695642 -0.131336
C76   C     C_R   0.232726 0.546361 0.753142 -0.138337
C77   C     C_R   0.753840 0.545839 0.303621 -0.153339
C78   C     C_R   0.749568 0.046101 0.695549 -0.156271
C79   C     C_R   0.182961 0.142917 0.998173 0.045197
C80   C     C_R   0.268871 0.046407 0.271193 -0.126440
C81   C     C_R   0.479912 0.545895 0.248100 -0.125701
C82   C     C_R   0.451633 0.545445 0.696383 -0.143877
C83   C     C_R   0.993519 0.044852 0.264164 -0.127280
C84   C     C_R   0.948714 0.045440 0.695144 -0.138005
C85   C     C_R   0.230549 0.454385 0.748621 -0.112004
C86   C     C_R   0.756432 0.454502 0.303122 -0.091828
C87   C     C_R   0.745329 0.954852 0.695260 -0.090721
C88   C     C_R   0.270643 0.954990 0.271078 -0.150641
C89   C     C_R   0.353712 0.652121 0.908030 -0.144205
C90   C     C_R   0.448849 0.499726 0.273944 0.033340
C91   C     C_R   0.690297 0.624019 0.092605 -0.127769
C92   C     C_R   0.811186 0.126146 0.905747 -0.128570
C93   C     C_R   0.184157 0.131567 0.089963 -0.127078
C94   C     C_R   0.444748 0.347097 0.090237 -0.244216
C95   C     C_R   0.556668 0.348317 0.908144 -0.214555
C96   C     C_R   0.943000 0.847665 0.090547 -0.245240
C97   C     C_R   0.095059 0.873485 0.906524 -0.209978
C98   C     C_R   0.385729 0.314617 0.998305 -0.124505
C99   C     C_R   0.616693 0.315776 0.999298 -0.142713
C100  C     C_R   0.881190 0.815597 0.998869 -0.130136
F1    F     F_    0.317082 0.330367 0.804112 -0.755679
F2    F     F_    0.691776 0.330873 0.196000 -0.760749
F3    F     F_    0.806508 0.831700 0.802643 -0.758383
F4    F     F_    0.234133 0.840025 0.186545 -0.748762
H1    H     H_    0.933041 0.593768 0.403914 0.201835
H2    H     H_    0.861278 0.671722 0.179993 0.110387
H3    H     H_    0.644621 0.178392 0.816098 0.111534
H4    H     H_    0.360130 0.172247 0.175974 0.106430
H5    H     H_    0.557028 0.253223 0.817773 0.118066
H6    H     H_    0.450274 0.247379 0.175942 0.117433
H7    H     H_    0.170528 0.819836 0.817217 0.113529
H8    H     H_    0.942612 0.750828 0.178621 0.115193
H9    H     H_    0.721200 0.242996 0.173182 0.195994
H10   H     H_    0.270776 0.246437 0.819454 0.198337
H11   H     H_    0.362682 0.830750 0.171868 0.163302
H12   H     H_    0.062536 0.638645 0.634571 0.193214
H13   H     H_    0.771615 0.744773 0.822454 0.197947
H14   H     H_    0.452340 0.754631 0.173096 0.115708
H15   H     H_    0.690000 0.666198 0.824529 0.120112
H16   H     H_    0.808796 0.167723 0.170792 0.114588
H17   H     H_    0.180779 0.172936 0.820238 0.119744
H18   H     H_    0.395325 0.588513 0.499607 0.112465
H19   H     H_    0.395853 0.588459 0.339445 0.115729
H20   H     H_    0.885847 0.087847 0.494741 0.109494
H21   H     H_    0.899671 0.087273 0.343517 0.105861
H22   H     H_    0.397283 0.410489 0.340699 0.109766
H23   H     H_    0.438498 0.139248 0.379010 0.187137
H24   H     H_    0.396634 0.410388 0.500856 0.111443
H25   H     H_    0.908508 0.909362 0.352341 0.109146
H26   H     H_    0.892475 0.909769 0.500950 0.109388
H27   H     H_    0.490315 0.666425 0.174812 0.087886
H28   H     H_    0.571539 0.629349 0.823179 0.096652
H29   H     H_    0.935426 0.145798 0.171239 0.089205
H30   H     H_    0.068441 0.130148 0.821235 0.096529
H31   H     H_    0.469566 0.411029 0.257788 0.097133
H32   H     H_    0.437691 0.411532 0.671569 0.097732
H33   H     H_    0.973565 0.910387 0.261475 0.096103
H34   H     H_    0.585394 0.097957 0.607074 0.201487
H35   H     H_    0.929811 0.911997 0.668699 0.097327
H36   H     H_    0.214531 0.588887 0.750204 0.112306
H37   H     H_    0.759949 0.587393 0.332523 0.105060
H38   H     H_    0.746561 0.087528 0.667579 0.104865
H39   H     H_    0.288642 0.088327 0.294130 0.097874
H40   H     H_    0.469562 0.588558 0.258032 0.098373
H41   H     H_    0.432946 0.587434 0.668334 0.090985
H42   H     H_    0.998186 0.085990 0.293002 0.088309
H43   H     H_    0.930166 0.087487 0.667409 0.086180
H44   H     H_    0.208535 0.411929 0.737113 0.151347
H45   H     H_    0.901417 0.637926 0.481323 0.191862
H46   H     H_    0.767697 0.412415 0.331128 0.158953
H47   H     H_    0.733915 0.912826 0.666889 0.157896
H48   H     H_    0.294567 0.913549 0.295617 0.186623
H49   H     H_    0.317482 0.665471 0.823738 0.087085
H50   H     H_    0.748144 0.628785 0.178088 0.093657
H51   H     H_    0.753247 0.129607 0.819995 0.093376
H52   H     H_    0.235153 0.146267 0.171875 0.085436
H53   H     H_    0.491414 0.333311 0.174401 0.152506
H54   H     H_    0.510175 0.335359 0.823405 0.154458
H55   H     H_    0.990176 0.833750 0.174528 0.142765
H56   H     H_    0.092848 0.594131 0.556276 0.202884
H57   H     H_    0.067794 0.870008 0.820968 0.134162
H58   H     H_    0.051896 0.415061 0.673221 0.133742
H59   H     H_    0.887969 0.414420 0.513695 0.135845
H60   H     H_    0.614970 0.915993 0.483896 0.135005
H61   H     H_    0.445569 0.915614 0.343147 0.140532
H62   H     H_    0.422396 0.096552 0.472292 0.202571
H63   H     H_    0.604180 0.140257 0.515885 0.192038
H64   H     H_    0.261443 0.746623 0.817611 0.110023
N1    N     N_R   0.394180 0.396910 0.943210 -0.099251
N2    N     N_R   0.474350 0.471570 0.793850 -0.036867
N3    N     N_R   0.025650 0.971570 0.206150 -0.037029
N4    N     N_R   0.974350 0.971570 0.793850 -0.036058
N5    N     N_R   0.319480 0.528420 0.793810 -0.044769
N6    N     N_R   0.680520 0.528420 0.206190 -0.044425
N7    N     N_R   0.819480 0.028420 0.793810 -0.043157
N8    N     N_R   0.180520 0.028420 0.206190 -0.043526
N9    N     N_R   0.525640 0.528390 0.206120 -0.043267
N10   N     N_R   0.474360 0.528390 0.793880 -0.042526
N11   N     N_R   0.025640 0.028390 0.206120 -0.041218
N12   N     N_R   0.605820 0.396910 0.056790 -0.101579
N13   N     N_R   0.974360 0.028390 0.793880 -0.040150
N14   N     N_R   0.319490 0.471590 0.793840 -0.036263
N15   N     N_R   0.680510 0.471590 0.206160 -0.043533
N16   N     N_R   0.819490 0.971590 0.793840 -0.042673
N17   N     N_R   0.180510 0.971590 0.206160 -0.046730
N18   N     N_R   0.394130 0.603080 0.943110 -0.039830
N19   N     N_R   0.605870 0.603080 0.056890 -0.040928
N20   N     N_R   0.894130 0.103080 0.943110 -0.041347
N21   N     N_R   0.105870 0.103080 0.056890 -0.041254
N22   N     N_R   0.450990 0.396900 0.056840 -0.073144
N23   N     N_R   0.894180 0.896910 0.943210 -0.099649
N24   N     N_R   0.549010 0.396900 0.943160 -0.074902
N25   N     N_R   0.950990 0.896900 0.056840 -0.072899
N26   N     N_R   0.049010 0.896900 0.943160 -0.069582
N27   N     N_R   0.105820 0.896910 0.056790 -0.098552
N28   N     N_R   0.450950 0.603070 0.056740 -0.040066
N29   N     N_R   0.549050 0.603070 0.943260 -0.041422
N30   N     N_R   0.950950 0.103070 0.056740 -0.040812
N31   N     N_R   0.049050 0.103070 0.943260 -0.042336
N32   N     N_R   0.525650 0.471570 0.206150 -0.037208
Ni1   Ni    Ni4+2 0.434860 0.434850 0.869700 0.256717
Ni2   Ni    Ni4+2 0.565140 0.434850 0.130300 0.246172
Ni3   Ni    Ni4+2 0.934860 0.934850 0.869700 0.250036
Ni4   Ni    Ni4+2 0.065140 0.934850 0.130300 0.242191
Ni5   Ni    Ni4+2 0.565130 0.565140 0.130240 0.204673
Ni6   Ni    Ni4+2 0.434870 0.565140 0.869760 0.206302
Ni7   Ni    Ni4+2 0.065130 0.065140 0.130240 0.212423
Ni8   Ni    Ni4+2 0.934870 0.065140 0.869760 0.203842

loop_
_geom_bond_atom_site_label_1
_geom_bond_atom_site_label_2
_ccdc_geom_bond_type
C47   H10   S    
C13   C99   A    
C85   N14   A    
C30   H3    S    
C60   H19   S    
N14   Ni1   S    
C89   N18   A    
C14   C18   A    
C19   C20   A    
C85   H44   S    
C38   C98   S    
N23   N25   A    
N8    N17   A    
C46   C89   A    
C58   C79   S    
C15   C19   A    
C29   C36   A    
C26   C27   S    
C77   N6    A    
C6    C85   A    
C7    C77   A    
N2    N10   A    
C61   H20   S    
N1    N22   A    
N8    Ni7   S    
N18   N28   A    
C76   N5    A    
C79   C93   A    
C41   N28   A    
N12   Ni2   S    
C10   C15   A    
C86   H46   S    
C9    C88   A    
C4    C65   S    
C95   C99   A    
C7    C86   A    
C24   C100  A    
C94   C98   A    
C40   C49   A    
C23   H1    S    
C96   C100  A    
N28   Ni5   S    
C50   H14   S    
C31   H4    S    
C11   C23   S    
N3    Ni4   S    
C43   H29   S    
C65   C70   A    
N2    Ni1   S    
C6    C15   S    
C22   H61   S    
N4    N13   A    
C81   H40   S    
N20   Ni8   S    
C69   H24   S    
C43   C68   A    
C49   C51   A    
N9    N32   A    
C12   C17   A    
C36   H8    S    
N6    Ni5   S    
C51   H15   S    
C41   C46   A    
C31   C33   A    
N5    Ni6   S    
N20   N30   A    
C43   N30   A    
C4    C74   A    
C93   H52   S    
C35   N27   A    
C47   C53   A    
N21   N31   A    
C59   H18   S    
C48   C50   A    
N26   N27   A    
C23   H45   S    
C28   C34   A    
C59   C60   A    
C21   H60   S    
C87   H47   S    
C21   C22   A    
C8    C78   A    
C34   H7    S    
C88   H48   S    
N3    N11   A    
N29   Ni6   S    
N23   Ni3   S    
N7    Ni8   S    
C61   C66   A    
C42   C57   A    
C2    C64   S    
C63   C67   A    
C42   N29   A    
C44   H30   S    
C74   H33   S    
N11   Ni7   S    
C27   H34   S    
C32   H5    S    
N18   Ni6   S    
C12   C27   S    
C34   C39   A    
C36   C40   A    
N13   Ni8   S    
C80   N8    A    
C91   H50   S    
C35   F4    S    
N12   N24   A    
C25   H12   S    
C87   N16   A    
C41   H27   S    
C5    C84   A    
C28   C54   A    
N22   Ni2   S    
C72   H31   S    
N27   Ni4   S    
C29   C55   A    
C45   C52   A    
C32   C37   A    
C20   H59   S    
C30   C56   A    
N19   Ni5   S    
C70   H25   S    
C17   C21   A    
C88   N17   A    
C67   C69   A    
C9    C80   A    
C97   N26   A    
C5    C75   A    
N4    Ni3   S    
C94   N22   A    
C45   H9    S    
C72   N32   A    
C83   H42   S    
C72   C90   A    
C11   C16   A    
C3    C97   A    
C89   H49   S    
C66   C71   A    
C73   H32   S    
C3    C35   A    
C16   C20   A    
C80   H39   S    
C46   C54   S    
C25   H56   S    
C74   N3    A    
C50   C54   A    
C64   C69   A    
C14   C26   S    
N25   Ni4   S    
C38   C47   A    
C70   C71   A    
C2    C73   A    
C95   N24   A    
C48   H11   S    
C81   C90   A    
C52   H16   S    
C10   C25   S    
C96   N25   A    
N19   N29   A    
N5    N14   A    
C94   H53   S    
C97   H57   S    
C55   C57   S    
C78   N7    A    
C49   H13   S    
C29   H2    S    
C67   H22   S    
C76   H36   S    
C37   C45   A    
C60   C63   A    
C1    F1    S    
N1    Ni1   S    
C37   C99   S    
C82   H41   S    
C31   C58   A    
C84   H43   S    
C91   N19   A    
C26   H62   S    
C57   C91   A    
C62   C65   A    
N30   Ni7   S    
C18   C22   A    
N15   Ni2   S    
C44   C79   A    
C7    C16   S    
C8    C17   S    
C12   C14   A    
C5    C66   S    
C1    C98   A    
C40   C100  S    
C62   H21   S    
C42   H28   S    
C53   C58   A    
C92   N20   A    
C6    C76   A    
C93   N21   A    
C13   N12   A    
C33   C38   A    
C83   N11   A    
C24   F3    S    
C56   C68   S    
C8    C87   A    
C78   H38   S    
C73   N2    A    
C81   N9    A    
C53   H17   S    
C95   H54   S    
C71   H26   S    
C30   C32   A    
C86   N15   A    
C4    C83   A    
N21   Ni7   S    
N26   Ni3   S    
N10   Ni6   S    
C63   C90   S    
C1    N1    A    
N31   Ni8   S    
C68   C92   A    
N9    Ni5   S    
C24   N23   A    
C51   C55   A    
C26   H23   S    
C23   C25   S    
N24   Ni1   S    
C61   C62   A    
C77   H37   S    
C2    C82   A    
C10   C11   A    
C28   H64   S    
C3    C39   S    
C59   C64   A    
C9    C18   S    
C96   H55   S    
C44   N31   A    
N32   Ni2   S    
C92   H51   S    
N17   Ni4   S    
C75   N4    A    
N16   Ni3   S    
N7    N16   A    
C75   H35   S    
C33   H6    S    
C13   F2    S    
N6    N15   A    
C82   N10   A    
C19   H58   S    
C52   C56   A    
C27   H63   S    
C39   C48   A    
C84   N13   A    
