data_mof_unit_51609.cif
_audit_creation_date              2012-12-11T14:13:25-0500
_audit_creation_method            fapswitch 2.2
_symmetry_space_group_name_H-M    P1
_symmetry_Int_Tables_number       1
_space_group_crystal_system       triclinic
_cell_length_a                    11.658261
_cell_length_b                    18.522496
_cell_length_c                    10.157824
_cell_angle_alpha                 90.012384
_cell_angle_beta                  110.152822
_cell_angle_gamma                 89.356743
_cell_volume                      2059.04464719

loop_
_atom_site_label
_atom_site_type_symbol
_atom_type_description
_atom_site_fract_x
_atom_site_fract_y
_atom_site_fract_z
_atom_type_partial_charge
C1    C     C_R   0.123197 0.637800 0.155485 0.562783
C2    C     C_2   0.590115 0.076867 0.083304 0.240155
C3    C     C_2   0.636265 0.441456 0.011207 0.232029
C4    C     C_2   0.414689 0.577859 0.906068 0.244999
C5    C     C_2   0.456900 0.973650 0.038454 -0.133036
C6    C     C_2   0.483706 0.047020 0.009556 -0.122902
C7    C     C_2   0.562891 0.483538 0.908764 -0.132112
C8    C     C_2   0.531511 0.557233 0.943021 -0.097073
C9    C     C_2   0.020480 0.925410 0.122464 -0.109311
C10   C     C_2   0.948507 0.067580 0.865577 -0.080831
C11   C     C_2   0.993072 0.419623 0.880328 -0.113808
C12   C     C_R   0.926293 0.352913 0.858402 0.534856
C13   C     C_2   0.087262 0.562203 0.138474 -0.097390
C14   C     C_2   0.978492 0.956130 0.996280 0.205639
C15   C     C_2   0.996346 0.034295 0.987792 0.223937
C16   C     C_2   0.040196 0.449808 0.007492 0.199522
C17   C     C_2   0.054803 0.528746 0.013723 0.193526
C18   C     C_R   0.468564 0.645760 0.439482 0.525096
C19   C     C_R   0.526602 0.350657 0.553443 0.515595
C20   C     C_R   0.531067 0.147910 0.557493 0.531768
C21   C     C_R   0.467442 0.853802 0.439495 0.525657
C22   C     C_R   0.377617 0.644750 0.962935 0.540086
C23   C     C_R   0.919952 0.144006 0.856218 0.551551
C24   C     C_R   0.647508 0.362594 0.992508 0.561325
C25   C     C_R   0.623807 0.145111 0.035775 0.552141
C26   C     C_R   0.373164 0.856566 0.967797 0.545494
C27   C     C_R   0.490473 0.419416 0.476754 -0.056139
C28   C     C_R   0.489065 0.570872 0.493536 -0.042210
C29   C     C_R   0.488325 0.927096 0.498281 -0.032222
C30   C     C_R   0.506448 0.077585 0.489337 -0.035146
C31   C     C_R   0.279859 0.417463 0.479667 -0.084414
C32   C     C_R   0.703712 0.567526 0.501222 -0.103197
C33   C     C_R   0.709529 0.916233 0.538753 -0.094812
C34   C     C_R   0.074483 0.853854 0.141796 0.549559
C35   C     C_R   0.286604 0.091270 0.445258 -0.096245
C36   C     C_R   0.178688 0.452191 0.494148 -0.118073
C37   C     C_R   0.801479 0.530126 0.482586 -0.137507
C38   C     C_R   0.817616 0.945902 0.535647 -0.119907
C39   C     C_R   0.174144 0.061606 0.430326 -0.117474
C40   C     C_R   0.182637 0.525498 0.520198 -0.082227
C41   C     C_R   0.788176 0.458964 0.439014 -0.045023
C42   C     C_R   0.819268 0.017851 0.499861 -0.099922
C43   C     C_R   0.167765 0.988858 0.456902 -0.132210
C44   C     C_R   0.287033 0.564041 0.529824 -0.009702
C45   C     C_R   0.385417 0.455778 0.484138 0.004049
C46   C     C_R   0.677853 0.424833 0.416868 -0.006308
C47   C     C_R   0.715778 0.061013 0.477627 -0.000796
C48   C     C_R   0.272026 0.945185 0.491362 -0.019946
C49   C     C_R   0.387305 0.531216 0.502165 0.004022
C50   C     C_R   0.584448 0.458947 0.454510 0.003261
C51   C     C_R   0.607637 0.033195 0.492266 0.015711
C52   C     C_R   0.384839 0.972050 0.488612 0.021552
C53   C     C_3   0.755536 0.998752 0.152760 0.006097
C54   C     C_3   0.739481 0.918818 0.178660 -0.387222
C55   C     C_3   0.209745 0.973825 0.780388 0.010220
C56   C     C_R   0.592254 0.533028 0.483760 0.013893
C57   C     C_3   0.182972 0.054040 0.746160 -0.391571
C58   C     C_3   0.266707 0.491909 0.876750 0.014723
C59   C     C_3   0.313030 0.414209 0.891815 -0.391926
C60   C     C_3   0.811612 0.501660 0.134307 0.003320
C61   C     C_3   0.826537 0.579430 0.188683 -0.394140
C62   C     C_3   0.192100 0.066325 0.112502 -0.009016
C63   C     C_3   0.244513 0.140815 0.108249 -0.378770
C64   C     C_3   0.828529 0.877354 0.872860 -0.005132
C65   C     C_3   0.830388 0.801897 0.815169 -0.369615
C66   C     C_3   0.939181 0.597712 0.823995 0.005176
C67   C     C_R   0.601855 0.958594 0.511847 -0.001210
C68   C     C_3   0.957980 0.655619 0.726499 -0.331533
C69   C     C_3   0.142946 0.357405 0.155261 0.008780
C70   C     C_3   0.115691 0.297921 0.243944 -0.342205
C71   C     C_R   0.392879 0.047097 0.473862 0.002210
C72   C     C_2   0.392877 0.930648 0.934323 0.239578
Cr1   Cr    Cr6+3 0.187610 0.750000 0.979860 1.009925
Cr2   Cr    Cr6+3 0.812390 0.250000 0.020140 1.022130
Cr3   Cr    Cr6+3 0.245810 0.750000 0.341640 0.981203
Cr4   Cr    Cr6+3 0.754190 0.250000 0.658360 0.985275
Cr5   Cr    Cr6+3 0.485760 0.750000 0.219910 0.983952
Cr6   Cr    Cr6+3 0.514240 0.250000 0.780090 0.976522
H1    H     H_    0.098830 0.421771 0.489985 0.098239
H2    H     H_    0.716339 0.623018 0.533126 0.127172
H3    H     H_    0.710367 0.859458 0.561833 0.130133
H4    H     H_    0.288537 0.148658 0.427289 0.121794
H5    H     H_    0.290067 0.618218 0.569791 0.160424
H6    H     H_    0.667621 0.370538 0.375152 0.140935
H7    H     H_    0.719839 0.114897 0.439013 0.165811
H8    H     H_    0.262477 0.891761 0.527853 0.169756
H9    H     H_    0.421750 0.074030 0.917508 0.158954
H10   H     H_    0.494976 0.953366 0.145353 0.155515
H11   H     H_    0.600537 0.590342 0.014865 0.130084
H12   H     H_    0.886184 0.556949 0.496168 0.092625
H13   H     H_    0.512657 0.460340 0.807304 0.148005
H14   H     H_    0.907446 0.036313 0.771602 0.118525
H15   H     H_    0.037167 0.958405 0.213829 0.102669
H16   H     H_    0.092980 0.532280 0.232134 0.111703
H17   H     H_    0.986508 0.449237 0.785878 0.092483
H18   H     H_    0.849220 0.014752 0.218515 0.160484
H19   H     H_    0.748382 0.006782 0.041151 0.118226
H20   H     H_    0.673942 0.894216 0.083092 0.127974
H21   H     H_    0.828129 0.889437 0.207680 0.089565
H22   H     H_    0.703146 0.911574 0.264893 0.204170
H23   H     H_    0.898360 0.912294 0.554919 0.115300
H24   H     H_    0.178370 0.957903 0.867619 0.150647
H25   H     H_    0.152153 0.940952 0.691922 0.151723
H26   H     H_    0.246675 0.076310 0.697810 0.198752
H27   H     H_    0.087406 0.062191 0.675073 0.106902
H28   H     H_    0.196590 0.086415 0.840700 0.111441
H29   H     H_    0.171596 0.490008 0.804079 0.200082
H30   H     H_    0.269371 0.512190 0.981021 0.152524
H31   H     H_    0.395236 0.408636 0.987226 0.159260
H32   H     H_    0.242511 0.377923 0.904259 0.075445
H33   H     H_    0.332543 0.397046 0.796930 0.197781
H34   H     H_    0.093201 0.095605 0.404564 0.132690
H35   H     H_    0.819938 0.501379 0.027988 0.114968
H36   H     H_    0.888122 0.468466 0.203968 0.196816
H37   H     H_    0.915821 0.585796 0.274047 0.121644
H38   H     H_    0.822473 0.617592 0.102843 0.102746
H39   H     H_    0.753653 0.595014 0.230605 0.192112
H40   H     H_    0.209111 0.032448 0.032361 0.100431
H41   H     H_    0.245159 0.037304 0.208705 0.157888
H42   H     H_    0.240442 0.173221 0.197134 0.141141
H43   H     H_    0.341365 0.136018 0.115440 0.102359
H44   H     H_    0.191278 0.169514 0.009925 0.142155
H45   H     H_    0.106985 0.552094 0.539464 0.102856
H46   H     H_    0.746411 0.907728 0.807006 0.140553
H47   H     H_    0.818286 0.870224 0.976393 0.105470
H48   H     H_    0.888776 0.765713 0.899175 0.157557
H49   H     H_    0.736529 0.779765 0.776254 0.083030
H50   H     H_    0.867864 0.803282 0.728623 0.148842
H51   H     H_    0.898176 0.623558 0.896707 0.124739
H52   H     H_    0.874567 0.556640 0.762593 0.118390
H53   H     H_    0.002230 0.632127 0.655598 0.140243
H54   H     H_    0.870470 0.681588 0.664544 0.048724
H55   H     H_    0.018701 0.698570 0.786847 0.194875
H56   H     H_    0.862379 0.430580 0.419662 0.111559
H57   H     H_    0.233269 0.381462 0.211681 0.125868
H58   H     H_    0.149162 0.331582 0.058979 0.112858
H59   H     H_    0.051547 0.258257 0.176230 0.183781
H60   H     H_    0.201325 0.269311 0.305361 0.056074
H61   H     H_    0.073836 0.320805 0.318014 0.150144
H62   H     H_    0.900251 0.040298 0.487633 0.096154
H63   H     H_    0.081795 0.966421 0.454817 0.085976
H64   H     H_    0.274713 0.360056 0.463774 0.130070
O1    O     O_R   0.267710 0.668200 0.902110 -0.482156
O2    O     O_R   0.883280 0.330790 0.732340 -0.532576
O3    O     O_R   0.883280 0.169210 0.732340 -0.543283
O4    O     O_R   0.116720 0.830790 0.267660 -0.541437
O5    O     O_R   0.366710 0.675440 0.427590 -0.527045
O6    O     O_R   0.633290 0.324560 0.572410 -0.508477
O7    O     O_R   0.633290 0.175440 0.572410 -0.520615
O8    O     O_R   0.366710 0.824560 0.427590 -0.515499
O9    O     O_R   0.534870 0.669390 0.371760 -0.513967
O10   O     O_R   0.465130 0.330610 0.628240 -0.540017
O11   O     O_R   0.465130 0.169390 0.628240 -0.517142
O12   O     O_R   0.732290 0.331800 0.097890 -0.491564
O13   O     O_R   0.534870 0.830610 0.371760 -0.530436
O14   O     O_R   0.453080 0.674480 0.075160 -0.527697
O15   O     O_R   0.546920 0.325520 0.924840 -0.536053
O16   O     O_R   0.546920 0.174480 0.924840 -0.531091
O17   O     O_R   0.453080 0.825520 0.075160 -0.535745
O18   O     O_3   0.306390 0.750000 0.180470 -0.266869
O19   O     O_3   0.693610 0.250000 0.819530 -0.273473
O20   O     O_3   0.672598 0.040668 0.195731 -0.584484
O21   O     O_3   0.334183 0.958005 0.800701 -0.580499
O22   O     O_3   0.328058 0.536061 0.810191 -0.581510
O23   O     O_R   0.732290 0.168200 0.097890 -0.496033
O24   O     O_3   0.701384 0.472241 0.139139 -0.565197
O25   O     O_3   0.068247 0.072352 0.103992 -0.572386
O26   O     O_3   0.934738 0.914949 0.875056 -0.575671
O27   O     O_3   0.054094 0.565355 0.894246 -0.574790
O28   O     O_3   0.051350 0.411738 0.129329 -0.584473
O29   O     O_R   0.267710 0.831800 0.902110 -0.520111
O30   O     O_R   0.099480 0.674460 0.038850 -0.473472
O31   O     O_R   0.900520 0.325540 0.961150 -0.475373
O32   O     O_R   0.900520 0.174460 0.961150 -0.467251
O33   O     O_R   0.099480 0.825540 0.038850 -0.462226
O34   O     O_R   0.116720 0.669210 0.267660 -0.544232

loop_
_geom_bond_atom_site_label_1
_geom_bond_atom_site_label_2
_ccdc_geom_bond_type
C44   C49   A    
Cr3   O18   S    
C66   C68   S    
C30   C51   A    
C1    O34   A    
C26   C72   S    
C66   O27   S    
C60   H36   S    
C4    C8    D    
C44   H5    S    
C58   O22   S    
C2    O20   S    
C30   C71   A    
C28   C56   A    
Cr6   O10   S    
C7    C8    S    
C23   O32   A    
C20   C30   S    
C53   C54   S    
C23   O3    A    
C55   H24   S    
C37   H12   S    
C47   H7    S    
C68   H55   S    
C38   C42   A    
C5    C72   D    
C3    C7    D    
C10   C15   D    
Cr5   O14   S    
C5    C6    S    
C17   O27   S    
C53   O20   S    
Cr3   O8    S    
C55   H25   S    
C59   H32   S    
C20   O7    A    
Cr2   O12   S    
C58   H29   S    
C11   C16   D    
C68   H54   S    
C34   O33   A    
C59   H31   S    
C29   C67   A    
C5    H10   S    
Cr6   O16   S    
C16   C17   S    
C22   O1    A    
C61   H37   S    
C59   H33   S    
C41   C46   A    
C4    O22   S    
Cr1   O29   S    
C19   C27   S    
C43   C48   A    
C57   H27   S    
C27   C50   A    
C42   C47   A    
C66   H51   S    
C27   C45   A    
C62   O25   S    
C10   H14   S    
C70   H61   S    
C69   H57   S    
C53   H18   S    
Cr5   O9    S    
Cr4   O19   S    
C2    C6    D    
C41   H56   S    
C63   H43   S    
C35   H4    S    
C24   O12   A    
C40   C44   A    
Cr3   O4    S    
C20   O11   A    
C42   H62   S    
C65   H50   S    
Cr6   O19   S    
C36   C40   A    
C18   C28   S    
Cr2   O31   S    
C18   O5    A    
C24   O15   A    
C39   C43   A    
C25   O23   A    
C58   C59   S    
C64   H46   S    
C21   C29   S    
C50   C56   A    
C6    H9    S    
C12   O2    A    
C60   C61   S    
Cr1   O33   S    
C68   H53   S    
C35   C39   A    
C9    C14   D    
C62   C63   S    
C32   H2    S    
C4    C22   S    
C28   C49   A    
Cr6   O15   S    
Cr1   O18   S    
C45   C49   A    
C60   H35   S    
C15   O25   S    
C61   H38   S    
C19   O10   A    
C21   O13   A    
C26   O17   A    
C51   C67   A    
C32   C37   A    
Cr1   O30   S    
C62   H41   S    
Cr5   O17   S    
C46   H6    S    
Cr4   O2    S    
C39   H34   S    
Cr4   O3    S    
C70   H60   S    
C69   H58   S    
C55   C57   S    
C9    C34   S    
C22   O14   A    
C48   H8    S    
C54   H21   S    
C43   H63   S    
C1    C13   S    
C14   O26   S    
C18   O9    A    
C9    H15   S    
C7    H13   S    
C63   H44   S    
C33   C67   A    
Cr1   O1    S    
C11   H17   S    
C57   H26   S    
Cr3   O34   S    
C31   C36   A    
C65   H49   S    
C19   O6    A    
C3    C24   S    
C36   H1    S    
C26   O29   A    
Cr2   O19   S    
C47   C51   A    
C11   C12   S    
Cr6   O11   S    
Cr2   O32   S    
C10   C23   S    
C38   H23   S    
C46   C50   A    
C1    O30   A    
C33   C38   A    
C13   C17   D    
C13   H16   S    
Cr3   O5    S    
C65   H48   S    
C31   H64   S    
C55   O21   S    
C64   O26   S    
C61   H39   S    
C64   C65   S    
C63   H42   S    
C34   O4    A    
C21   O8    A    
Cr4   O7    S    
C40   H45   S    
C54   H22   S    
C72   O21   S    
C53   H19   S    
C57   H28   S    
C2    C25   S    
C58   H30   S    
C69   O28   S    
C37   C41   A    
C69   C70   S    
C60   O24   S    
C62   H40   S    
Cr5   O18   S    
C35   C71   A    
C16   O28   S    
C48   C52   A    
Cr4   O6    S    
C70   H59   S    
C64   H47   S    
C31   C45   A    
C25   O16   A    
C52   C71   A    
C14   C15   S    
C54   H20   S    
C8    H11   S    
C33   H3    S    
C32   C56   A    
Cr2   O23   S    
Cr5   O13   S    
C3    O24   S    
C12   O31   A    
C66   H52   S    
C29   C52   A    
