data_mof_unit_65795.cif
_audit_creation_date              2012-10-26T18:20:32-0400
_audit_creation_method            fapswitch 2.2
_symmetry_space_group_name_H-M    P1
_symmetry_Int_Tables_number       1
_space_group_crystal_system       triclinic
_cell_length_a                    18.375542
_cell_length_b                    18.367494
_cell_length_c                    30.319142
_cell_angle_alpha                 90.000025
_cell_angle_beta                  90.00002
_cell_angle_gamma                 90.013206
_cell_volume                      10233.0939157

loop_
_atom_site_label
_atom_site_type_symbol
_atom_type_description
_atom_site_fract_x
_atom_site_fract_y
_atom_site_fract_z
_atom_type_partial_charge
C1    C     C_R   0.139903 0.500006 0.000013 0.548943
C2    C     C_1   0.500019 0.217455 0.000010 -0.043336
C3    C     C_R   0.067887 0.613724 0.772322 -0.141070
C4    C     C_R   0.433886 0.885335 0.226600 -0.111592
C5    C     C_R   0.905013 0.592022 0.227147 -0.124789
C6    C     C_R   0.566113 0.114665 0.226601 -0.111592
C7    C     C_R   0.094987 0.407978 0.227147 -0.124789
C8    C     C_1   0.782534 0.499987 0.000019 -0.044064
C9    C     C_1   0.499981 0.782544 0.000010 -0.043336
C10   C     C_1   0.717468 0.000016 0.500009 -0.037815
C11   C     C_1   0.000016 0.717453 0.499999 -0.049646
C12   C     C_1   0.282532 0.999984 0.500009 -0.037815
C13   C     C_1   0.999984 0.282546 0.499999 -0.049646
C14   C     C_R   1.000000 0.500000 0.085623 0.532690
C15   C     C_R   0.500000 1.000000 0.085485 0.532497
C16   C     C_R   0.000000 0.500000 0.914203 0.607943
C17   C     C_R   0.500006 0.139892 0.999995 0.550700
C18   C     C_R   0.500000 1.000000 0.914341 0.617629
C19   C     C_R   0.500000 0.000000 0.585665 0.613841
C20   C     C_R   0.000000 0.500000 0.585485 0.535843
C21   C     C_R   0.500000 0.000000 0.414203 0.604508
C22   C     C_R   1.000000 0.500000 0.414383 0.536314
C23   C     C_1   0.282775 0.500009 0.000011 -0.042573
C24   C     C_1   0.500016 0.282774 0.000009 -0.042451
C25   C     C_1   0.717225 0.499991 0.000011 -0.042573
C26   C     C_1   0.499984 0.717225 0.000009 -0.042451
C27   C     C_1   0.782778 0.000012 0.500004 -0.042108
C28   C     C_R   0.860097 0.499994 0.000013 0.548944
C29   C     C_1   0.000013 0.782772 0.500002 -0.042932
C30   C     C_1   0.217222 0.999988 0.500005 -0.042108
C31   C     C_1   0.999987 0.217228 0.500002 -0.042932
C32   C     C_R   0.500006 0.360350 0.000002 0.556548
C33   C     C_R   0.639651 0.499999 0.000002 0.556523
C34   C     C_R   0.499994 0.639650 0.000002 0.556548
C35   C     C_R   0.360349 0.500001 0.000002 0.556523
C36   C     C_R   0.000004 0.860349 0.500000 0.556835
C37   C     C_R   0.139650 0.999997 0.500001 0.556220
C38   C     C_R   0.999996 0.139650 0.500000 0.556835
C39   C     C_R   0.499994 0.860108 0.999995 0.550700
C40   C     C_R   0.860350 0.000003 0.500001 0.556220
C41   C     C_R   0.040628 0.446584 0.342866 0.074296
C42   C     C_R   0.535958 0.056132 0.342562 0.054660
C43   C     C_R   0.959371 0.553416 0.342866 0.074295
C44   C     C_R   0.464042 0.943868 0.342562 0.054660
C45   C     C_R   0.029633 0.560223 0.656575 0.071705
C46   C     C_R   0.547226 0.953068 0.656872 0.051284
C47   C     C_R   0.970367 0.439777 0.656575 0.071702
C48   C     C_R   0.452774 0.046932 0.656872 0.051284
C49   C     C_R   0.546890 0.952732 0.843134 0.050782
C50   C     C_R   0.639903 0.000006 0.500008 0.560587
C51   C     C_R   0.035944 0.556142 0.842561 0.054019
C52   C     C_R   0.453110 0.047268 0.843134 0.050782
C53   C     C_R   0.964056 0.443858 0.842561 0.054019
C54   C     C_R   0.529645 0.060217 0.156576 0.072539
C55   C     C_R   0.053375 0.459331 0.157141 0.074999
C56   C     C_R   0.470355 0.939783 0.156576 0.072539
C57   C     C_R   0.946624 0.540669 0.157141 0.074999
C58   C     C_R   1.000000 0.500000 0.366111 0.030791
C59   C     C_R   0.500000 0.000000 0.365637 0.069320
C60   C     C_R   1.000000 0.500000 0.633506 0.034005
C61   C     C_R   0.000006 0.639891 0.499991 0.539020
C62   C     C_R   0.500000 1.000000 0.633999 0.074804
C63   C     C_R   0.500000 0.000000 0.866007 0.073631
C64   C     C_R   0.000000 0.500000 0.865637 0.067923
C65   C     C_R   0.500000 1.000000 0.133506 0.035519
C66   C     C_R   1.000000 0.500000 0.133895 0.032018
C67   C     C_R   0.955263 0.549368 0.296561 0.036740
C68   C     C_R   0.465276 0.942939 0.296092 0.015557
C69   C     C_R   0.044737 0.450632 0.296561 0.036740
C70   C     C_R   0.534723 0.057061 0.296092 0.015557
C71   C     C_R   0.967844 0.441575 0.702925 0.039786
C72   C     C_R   0.360097 0.999994 0.500008 0.560587
C73   C     C_R   0.452767 0.047262 0.703375 0.015359
C74   C     C_R   0.032156 0.558426 0.702925 0.039783
C75   C     C_R   0.547234 0.952738 0.703375 0.015359
C76   C     C_R   0.452779 0.047275 0.796631 0.015220
C77   C     C_R   0.965291 0.442930 0.796091 0.015175
C78   C     C_R   0.547221 0.952725 0.796631 0.015220
C79   C     C_R   0.034710 0.557070 0.796091 0.015176
C80   C     C_R   0.467831 0.941582 0.202926 0.040162
C81   C     C_R   0.950674 0.544778 0.203446 0.036836
C82   C     C_R   0.532168 0.058418 0.202926 0.040162
C83   C     C_R   0.999994 0.360109 0.499991 0.539021
C84   C     C_R   0.049326 0.455222 0.203446 0.036836
C85   C     C_R   1.000000 0.500000 0.273349 0.008218
C86   C     C_R   0.500000 0.000000 0.272854 0.021880
C87   C     C_R   0.000000 0.500000 0.726152 0.009722
C88   C     C_R   0.500000 0.000000 0.726644 0.024979
C89   C     C_R   0.500000 0.000000 0.773362 0.024984
C90   C     C_R   0.000000 0.500000 0.772853 0.021394
C91   C     C_R   0.500000 0.000000 0.226153 0.010166
C92   C     C_R   1.000000 0.500000 0.226658 0.008187
C93   C     C_R   0.908060 0.595070 0.272860 -0.124970
C94   C     C_1   0.217466 0.500013 0.000019 -0.044064
C95   C     C_R   0.432085 0.886293 0.272323 -0.139802
C96   C     C_R   0.091939 0.404930 0.272860 -0.124971
C97   C     C_R   0.567914 0.113707 0.272323 -0.139803
C98   C     C_R   0.933913 0.385321 0.726599 -0.112951
C99   C     C_R   0.406358 0.093668 0.727120 -0.129381
C100  C     C_R   0.066088 0.614680 0.726600 -0.112953
C101  C     C_R   0.593642 0.906333 0.727120 -0.129381
C102  C     C_R   0.406414 0.093724 0.772886 -0.129556
C103  C     C_R   0.932113 0.386277 0.772322 -0.141072
C104  C     C_R   0.593586 0.906277 0.772886 -0.129556
Cu1   Cu    Cu3+1 0.000000 0.572490 0.000000 0.981069
Cu2   Cu    Cu3+1 0.500000 0.500000 0.955520 0.963519
Cu3   Cu    Cu3+1 0.000000 1.000000 0.544480 0.957949
Cu4   Cu    Cu3+1 0.000000 0.000000 0.455520 0.965150
Cu5   Cu    Cu3+1 0.427510 0.000000 0.000000 0.977865
Cu6   Cu    Cu3+1 1.000000 0.427510 0.000000 0.981069
Cu7   Cu    Cu3+1 0.572490 0.000000 0.000000 0.977864
Cu8   Cu    Cu3+1 0.500000 0.072490 0.500000 0.992922
Cu9   Cu    Cu3+1 0.927510 0.500000 0.500000 0.965566
Cu10  Cu    Cu3+1 0.500000 0.927510 0.500000 0.992922
Cu11  Cu    Cu3+1 0.072490 0.500000 0.500000 0.965569
Cu12  Cu    Cu3+1 0.500000 0.500000 0.044480 0.959488
H1    H     H_    0.871975 0.632733 0.289467 0.149346
H2    H     H_    0.904806 0.341623 0.788650 0.113122
H3    H     H_    0.630517 0.869303 0.789301 0.113420
H4    H     H_    0.095193 0.658379 0.788651 0.113121
H5    H     H_    0.407627 0.840247 0.209991 0.151822
H6    H     H_    0.867382 0.628140 0.210540 0.149443
H7    H     H_    0.592372 0.159754 0.209991 0.151822
H8    H     H_    0.132618 0.371859 0.210540 0.149443
H9    H     H_    0.055258 0.338526 0.352153 0.218537
H10   H     H_    0.063427 0.383841 0.398515 0.250441
H11   H     H_    0.552621 0.161785 0.360004 0.234481
H12   H     H_    0.404767 0.841646 0.288651 0.114019
H13   H     H_    0.629695 0.109973 0.357171 0.229301
H14   H     H_    0.944742 0.661474 0.352153 0.218537
H15   H     H_    0.936573 0.616159 0.398515 0.250441
H16   H     H_    0.447378 0.838215 0.360004 0.234481
H17   H     H_    0.370304 0.890027 0.357171 0.229300
H18   H     H_    0.020453 0.667244 0.642024 0.220751
H19   H     H_    0.053974 0.620395 0.599814 0.253261
H20   H     H_    0.585553 0.853107 0.639854 0.235663
H21   H     H_    0.649647 0.920399 0.640941 0.227565
H22   H     H_    0.979554 0.332758 0.642021 0.220754
H23   H     H_    0.128025 0.367266 0.289467 0.149346
H24   H     H_    0.946019 0.379607 0.599815 0.253265
H25   H     H_    0.414447 0.146893 0.639854 0.235663
H26   H     H_    0.350353 0.079601 0.640941 0.227565
H27   H     H_    0.646789 0.914342 0.860154 0.234856
H28   H     H_    0.579497 0.850251 0.859065 0.228294
H29   H     H_    0.052577 0.661801 0.860002 0.233508
H30   H     H_    0.129666 0.610011 0.857170 0.229135
H31   H     H_    0.353211 0.085658 0.860154 0.234856
H32   H     H_    0.420503 0.149749 0.859066 0.228294
H33   H     H_    0.947422 0.338200 0.860002 0.233509
H34   H     H_    0.595232 0.158355 0.288651 0.114019
H35   H     H_    0.870333 0.389991 0.857170 0.229135
H36   H     H_    0.520472 0.167237 0.142022 0.221324
H37   H     H_    0.554004 0.120384 0.099816 0.252414
H38   H     H_    0.161381 0.444645 0.147859 0.217822
H39   H     H_    0.116092 0.436511 0.101494 0.249650
H40   H     H_    0.479526 0.832763 0.142022 0.221323
H41   H     H_    0.445997 0.879615 0.099816 0.252414
H42   H     H_    0.838619 0.555355 0.147859 0.217822
H43   H     H_    0.883908 0.563489 0.101494 0.249650
H44   H     H_    0.907663 0.340226 0.709990 0.151187
H45   H     H_    0.369416 0.130631 0.710705 0.113513
H46   H     H_    0.092336 0.659775 0.709990 0.151181
H47   H     H_    0.630585 0.869370 0.710705 0.113512
H48   H     H_    0.369483 0.130698 0.789301 0.113420
N1    N     N_3   0.076446 0.386835 0.365148 -0.619638
N2    N     N_3   0.075072 0.610774 0.866874 -0.608567
N3    N     N_3   0.407664 0.096214 0.867828 -0.615374
N4    N     N_3   0.924927 0.389227 0.866873 -0.608568
N5    N     N_3   0.555722 0.124533 0.134039 -0.630512
N6    N     N_3   0.113085 0.423475 0.134860 -0.619335
N7    N     N_3   0.444277 0.875468 0.134038 -0.630510
N8    N     N_3   0.886915 0.576525 0.134860 -0.619335
N9    N     N_3   0.575102 0.110751 0.366875 -0.608622
N10   N     N_3   0.923554 0.613165 0.365148 -0.619638
N11   N     N_3   0.424898 0.889249 0.366875 -0.608622
N12   N     N_3   0.055702 0.624541 0.634036 -0.630976
N13   N     N_3   0.596129 0.907579 0.632179 -0.615850
N14   N     N_3   0.944299 0.375458 0.634037 -0.630984
N15   N     N_3   0.403871 0.092421 0.632179 -0.615850
N16   N     N_3   0.592336 0.903786 0.867828 -0.615374
O1    O     O_R   0.105780 0.561220 0.000020 -0.498075
O2    O     O_R   0.938780 0.605780 0.500020 -0.505488
O3    O     O_R   0.394220 0.938780 0.500020 -0.504529
O4    O     O_R   0.061220 0.394220 0.500020 -0.505488
O5    O     O_R   0.605780 0.938780 0.499980 -0.503609
O6    O     O_R   0.938780 0.394220 0.499980 -0.504960
O7    O     O_R   0.394220 0.061220 0.499980 -0.503609
O8    O     O_R   0.061220 0.605780 0.499980 -0.504959
O9    O     O_R   0.999940 0.561230 0.064880 -0.505273
O10   O     O_R   0.438770 0.999940 0.064880 -0.509307
O11   O     O_R   0.000060 0.438770 0.064880 -0.505273
O12   O     O_R   0.438780 0.105780 0.000020 -0.497441
O13   O     O_R   0.561230 0.000060 0.064880 -0.509308
O14   O     O_R   0.999940 0.438770 0.935120 -0.482308
O15   O     O_R   0.438770 0.000060 0.935120 -0.486486
O16   O     O_R   0.000060 0.561230 0.935120 -0.482308
O17   O     O_R   0.561230 0.999940 0.935120 -0.486486
O18   O     O_R   0.499940 0.061230 0.564880 -0.490160
O19   O     O_R   0.938770 0.499940 0.564880 -0.505912
O20   O     O_R   0.500060 0.938770 0.564880 -0.490160
O21   O     O_R   0.061230 0.500060 0.564880 -0.505907
O22   O     O_R   0.499940 0.938770 0.435120 -0.485862
O23   O     O_R   0.894220 0.438780 0.000020 -0.498075
O24   O     O_R   0.938770 0.500060 0.435120 -0.501654
O25   O     O_R   0.500060 0.061230 0.435120 -0.485862
O26   O     O_R   0.061230 0.499940 0.435120 -0.501654
O27   O     O_R   0.499980 0.394200 0.037580 -0.504416
O28   O     O_R   0.605800 0.499980 0.037580 -0.504498
O29   O     O_R   0.500020 0.605800 0.037580 -0.504417
O30   O     O_R   0.394200 0.500020 0.037580 -0.504498
O31   O     O_R   0.499980 0.605800 0.962420 -0.503226
O32   O     O_R   0.605800 0.500020 0.962420 -0.502975
O33   O     O_R   0.500020 0.394200 0.962420 -0.503227
O34   O     O_R   0.561220 0.894220 0.000020 -0.497441
O35   O     O_R   0.394200 0.499980 0.962420 -0.502974
O36   O     O_R   0.999980 0.894200 0.537580 -0.504564
O37   O     O_R   0.105800 0.999980 0.537580 -0.504150
O38   O     O_R   0.000020 0.105800 0.537580 -0.504564
O39   O     O_R   0.894200 0.000020 0.537580 -0.504150
O40   O     O_R   0.999980 0.105800 0.462420 -0.503584
O41   O     O_R   0.105800 0.000020 0.462420 -0.502805
O42   O     O_R   0.000020 0.894200 0.462420 -0.503584
O43   O     O_R   0.894200 0.999980 0.462420 -0.502804
O44   O     O_R   0.105780 0.438780 0.999980 -0.511658
O45   O     O_R   0.438780 0.894220 0.999980 -0.511394
O46   O     O_R   0.894220 0.561220 0.999980 -0.511658
O47   O     O_R   0.561220 0.105780 0.999980 -0.511395
O48   O     O_R   0.605780 0.061220 0.500020 -0.504530

loop_
_geom_bond_atom_site_label_1
_geom_bond_atom_site_label_2
_ccdc_geom_bond_type
C10   C27   T    
H11   N9    S    
Cu1   O16   S    
Cu1   Cu6   S    
C33   O28   A    
C49   C63   A    
C68   C86   A    
C38   O38   A    
C50   O48   A    
C54   N5    S    
Cu7   O34   S    
C37   O37   A    
C57   C66   A    
C69   C96   A    
C3    C79   A    
C75   C101  A    
Cu8   O7    S    
Cu8   Cu10  S    
Cu11  O4    S    
Cu11  O26   S    
C45   C60   A    
C54   C65   A    
H14   N10   S    
Cu2   O35   S    
C29   C36   S    
C22   O26   A    
C61   O2    A    
C36   O36   A    
Cu10  O5    S    
H18   N12   S    
C46   C62   A    
C1    O44   A    
C6    C82   A    
C28   O23   A    
C35   O30   A    
C20   O21   A    
C21   C59   S    
C47   N14   S    
C86   C91   A    
Cu5   Cu7   S    
C52   N3    S    
C53   C64   A    
C18   C63   S    
C20   O19   A    
Cu9   O6    S    
Cu5   O12   S    
C56   C65   A    
Cu3   O38   S    
Cu6   O11   S    
C42   C70   A    
C5    C81   A    
C49   C78   A    
H38   N6    S    
Cu9   O24   S    
C21   O25   A    
C79   C90   A    
Cu12  O30   S    
C43   C58   A    
C47   C60   A    
C99   H45   S    
C81   C92   A    
C95   H12   S    
C26   C34   S    
C9    C39   S    
Cu3   O36   S    
H28   N16   S    
C1    C94   S    
C41   N1    S    
C98   C103  A    
Cu6   O14   S    
H24   N14   S    
C97   H34   S    
C44   N11   S    
C83   O6    A    
C15   C65   S    
C74   C87   A    
C20   C60   S    
C27   C40   S    
C55   N6    S    
C70   C97   A    
C76   C89   A    
C104  H3    S    
H10   N1    S    
C7    C84   A    
H30   N2    S    
Cu6   O44   S    
C78   C89   A    
Cu10  O20   S    
C2    C17   S    
C8    C25   T    
C14   O9    A    
C46   N13   S    
H13   N9    S    
H33   N4    S    
C93   H1    S    
C6    H7    S    
C96   H23   S    
C3    C100  A    
Cu8   O18   S    
C46   C75   A    
C85   C92   A    
C9    C26   T    
H29   N2    S    
C17   O12   A    
C76   C102  A    
C71   C98   A    
C77   C90   A    
C67   C85   A    
C68   C95   A    
H43   N8    S    
C40   O43   A    
C78   C104  A    
C19   C62   S    
C6    C97   A    
Cu1   O9    S    
C101  H47   S    
C34   O31   A    
C45   N12   S    
C28   O46   A    
Cu4   O43   S    
Cu5   O45   S    
C74   C100  A    
C52   C76   A    
Cu1   O46   S    
H20   N13   S    
C42   N9    S    
C61   O8    A    
C82   C91   A    
C30   C37   S    
Cu2   Cu12  S    
Cu6   O23   S    
H16   N11   S    
C15   O13   A    
H9    N1    S    
C24   C32   S    
C73   C88   A    
Cu12  O29   S    
C7    C96   A    
C34   O29   A    
C38   O40   A    
C4    C95   A    
Cu4   O42   S    
C53   N4    S    
C48   C62   A    
Cu9   O2    S    
H26   N15   S    
Cu3   O37   S    
Cu5   O10   S    
Cu3   Cu4   S    
Cu2   O32   S    
C18   O17   A    
Cu10  O22   S    
C14   C66   S    
C41   C58   A    
H27   N16   S    
C32   O27   A    
Cu11  O8    S    
H17   N11   S    
C47   C71   A    
Cu12  O28   S    
H31   N3    S    
Cu7   O13   S    
C71   C87   A    
C32   O33   A    
C43   C67   A    
C15   O10   A    
C98   H44   S    
C101  C104  A    
C23   C35   S    
C56   N7    S    
C2    C24   T    
C53   C77   A    
C8    C28   S    
Cu3   O39   S    
C44   C68   A    
C103  H2    S    
C14   O11   A    
C70   C86   A    
C36   O42   A    
Cu8   O25   S    
C54   C82   A    
C55   C66   A    
C69   C85   A    
C41   C69   A    
C73   C99   A    
Cu2   O33   S    
C19   O20   A    
C19   O18   A    
C1    O1    A    
Cu4   O41   S    
H40   N7    S    
C39   O34   A    
C12   C30   T    
C18   O15   A    
H25   N15   S    
Cu9   O19   S    
C21   O22   A    
C13   C31   T    
C51   C64   A    
C72   O3    A    
C48   C73   A    
C11   C61   S    
C52   C63   A    
C42   C59   A    
C22   C58   S    
C49   N16   S    
C5    C93   A    
C23   C94   T    
C4    C80   A    
C7    H8    S    
C84   C92   A    
C13   C83   S    
H15   N10   S    
C56   C80   A    
C31   C38   S    
C22   O24   A    
Cu7   O47   S    
H19   N12   S    
C57   N8    S    
C80   C91   A    
C37   O41   A    
C43   N10   S    
C40   O39   A    
H41   N7    S    
H36   N5    S    
C17   O47   A    
H39   N6    S    
H42   N8    S    
C44   C59   A    
H22   N14   S    
Cu2   O31   S    
Cu11  O21   S    
C67   C93   A    
C16   O16   A    
C33   O32   A    
C4    H5    S    
Cu5   O15   S    
C57   C81   A    
C12   C72   S    
C51   C79   A    
C39   O45   A    
Cu12  O27   S    
C16   O14   A    
C3    H4    S    
C72   O7    A    
Cu4   O40   S    
C75   C88   A    
C99   C102  A    
H21   N13   S    
C88   C89   A    
C11   C29   T    
C102  H48   S    
Cu10  O3    S    
C87   C90   A    
H37   N5    S    
C77   C103  A    
Cu8   O48   S    
H32   N3    S    
C45   C74   A    
C51   N2    S    
C100  H46   S    
C16   C64   S    
Cu1   O1    S    
C55   C84   A    
C50   O5    A    
C35   O35   A    
C83   O4    A    
C5    H6    S    
C48   N15   S    
Cu7   O17   S    
H35   N4    S    
C25   C33   S    
Cu9   Cu11  S    
C10   C50   S    
