data_mof_unit_57924.cif
_audit_creation_date              2012-12-10T19:16:18-0500
_audit_creation_method            fapswitch 2.2
_symmetry_space_group_name_H-M    P1
_symmetry_Int_Tables_number       1
_space_group_crystal_system       triclinic
_cell_length_a                    10.640263
_cell_length_b                    9.715313
_cell_length_c                    27.639141
_cell_angle_alpha                 91.29717
_cell_angle_beta                  89.643085
_cell_angle_gamma                 90.871971
_cell_volume                      2856.04185894

loop_
_atom_site_label
_atom_site_type_symbol
_atom_type_description
_atom_site_fract_x
_atom_site_fract_y
_atom_site_fract_z
_atom_type_partial_charge
C1    C     C_R   0.257555 0.499236 0.500825 0.911316
C2    C     C_R   0.413959 0.395431 0.277589 -0.210241
C3    C     C_R   0.482097 0.495238 0.252558 0.241461
C4    C     C_R   0.487168 0.485321 0.100972 -0.103780
C5    C     C_R   0.373719 0.515693 0.125746 -0.185185
C6    C     C_R   0.262764 0.531031 0.098504 0.262290
C7    C     C_R   0.593059 0.444941 0.126977 -0.044404
C8    C     C_R   0.489575 0.495246 0.353228 -0.144963
C9    C     C_R   0.504779 0.507536 0.646952 -0.094094
C10   C     C_R   0.402183 0.572649 0.975289 -0.069729
C11   C     C_R   0.616450 0.481047 0.974913 0.096451
C12   C     C_R   0.497176 0.498468 0.405981 0.976482
C13   C     C_R   0.511011 0.531302 0.949889 0.041394
C14   C     C_R   0.314570 0.655146 0.951169 0.280883
C15   C     C_R   0.312160 0.655198 0.900365 0.259021
C16   C     C_R   0.410265 0.590767 0.873820 -0.160387
C17   C     C_R   0.515481 0.542860 0.899091 -0.102217
C18   C     C_R   0.625323 0.505623 0.873613 -0.008911
C19   C     C_R   0.624431 0.502915 0.823155 0.589424
C20   C     C_R   0.411523 0.577411 0.822947 0.581971
C21   C     C_R   0.507266 0.392915 0.724420 0.598744
C22   C     C_R   0.504916 0.386184 0.673538 -0.347314
C23   C     C_R   0.742201 0.500965 0.502265 0.852636
C24   C     C_R   0.510438 0.635999 0.671122 -0.218341
C25   C     C_R   0.516644 0.643331 0.721114 -0.179759
C26   C     C_R   0.515745 0.522830 0.747665 0.216396
C27   C     C_R   0.389170 0.538980 0.024528 -0.080530
C28   C     C_R   0.495025 0.494799 0.050143 -0.005725
C29   C     C_R   0.607097 0.456601 0.025258 0.017944
C30   C     C_R   0.270332 0.533073 0.047949 0.472917
C31   C     C_R   0.697417 0.393038 0.102214 -0.099367
C32   C     C_R   0.730675 0.469430 0.949185 -0.133521
C33   C     C_R   0.734155 0.475874 0.899108 -0.102992
C34   C     C_R   0.500910 0.501710 0.594090 0.881336
C35   C     C_R   0.701039 0.388562 0.051934 0.230341
C36   C     C_3   0.073443 0.645330 0.515089 -0.432240
C37   C     C_3   0.070245 0.399046 0.540267 -0.436560
C38   C     C_3   0.930882 0.644661 0.519097 -0.412073
C39   C     C_3   0.926124 0.392940 0.538389 -0.387871
C40   C     C_3   0.068923 0.453279 0.449959 0.479115
C41   C     C_3   0.120817 0.498294 0.501065 0.057761
C42   C     C_3   0.878285 0.501529 0.502702 0.092801
C43   C     C_3   0.924735 0.465076 0.450852 -0.416171
C44   C     C_3   0.388700 0.077936 0.473571 -0.285050
C45   C     C_3   0.391440 0.915801 0.471697 -0.261902
C46   C     C_3   0.617666 0.080887 0.477042 0.452940
C47   C     C_3   0.617639 0.916252 0.476226 0.435877
C48   C     C_3   0.492058 0.084286 0.548962 -0.390871
C49   C     C_3   0.491850 0.921852 0.548859 -0.397170
C50   C     C_R   0.376097 0.523202 0.176716 0.592696
C51   C     C_R   0.588980 0.448842 0.177415 0.542480
C52   C     C_R   0.551676 0.596447 0.277477 -0.082592
C53   C     C_R   0.554470 0.597162 0.327596 -0.285666
C54   C     C_R   0.417761 0.392310 0.328557 0.516916
H1    H     H_    0.603934 0.674071 0.257896 0.162207
H2    H     H_    0.773107 0.346610 0.121860 0.228234
H3    H     H_    0.819394 0.460095 0.967217 0.194710
H4    H     H_    0.510889 0.731195 0.651467 0.164124
H5    H     H_    0.822733 0.458810 0.880544 0.203787
H6    H     H_    0.521442 0.742956 0.739470 0.166927
H7    H     H_    0.103289 0.721358 0.487623 0.210715
H8    H     H_    0.107642 0.293442 0.535101 0.206266
H9    H     H_    0.114049 0.680848 0.550359 0.181250
H10   H     H_    0.100834 0.436281 0.576795 0.176912
H11   H     H_    0.902146 0.667517 0.557218 0.182147
H12   H     H_    0.886666 0.412420 0.575272 0.169102
H13   H     H_    0.359014 0.321509 0.256534 0.148578
H14   H     H_    0.894754 0.728679 0.496862 0.179618
H15   H     H_    0.895399 0.287542 0.526455 0.200309
H16   H     H_    0.894239 0.544627 0.425518 0.168908
H17   H     H_    0.879305 0.367224 0.437863 0.222863
H18   H     H_    0.379256 0.121566 0.437256 0.211325
H19   H     H_    0.393806 0.877657 0.433508 0.201321
H20   H     H_    0.301457 0.110203 0.492814 0.194704
H21   H     H_    0.302054 0.875295 0.487207 0.171380
H22   H     H_    0.572192 0.124884 0.570969 0.164511
H23   H     H_    0.571928 0.886169 0.570755 0.160178
H24   H     H_    0.405783 0.122391 0.567533 0.189842
H25   H     H_    0.404987 0.883376 0.567015 0.191980
H26   H     H_    0.694245 0.108172 0.503030 0.037269
H27   H     H_    0.696931 0.883036 0.499476 0.021507
H28   H     H_    0.504111 0.287261 0.654758 0.160599
H29   H     H_    0.609259 0.676020 0.346411 0.199378
N1    N     N_R   0.482881 0.491029 0.200961 -0.353985
N2    N     N_R   0.517186 0.533593 0.799205 -0.347135
N3    N     N_3   0.499750 0.138610 0.498940 -0.085328
N4    N     N_3   0.499750 0.861390 0.498940 -0.075872
O1    O     O_R   0.314910 0.616040 0.499990 -0.632647
O2    O     O_R   0.314910 0.383960 0.499990 -0.601564
O3    O     O_R   0.500140 0.616020 0.428740 -0.566254
O4    O     O_R   0.500140 0.383980 0.428740 -0.556004
O5    O     O_R   0.685320 0.616040 0.499970 -0.630495
O6    O     O_R   0.685320 0.383960 0.499970 -0.600248
O7    O     O_R   0.500090 0.616050 0.571230 -0.638955
O8    O     O_R   0.500090 0.383950 0.571230 -0.640366
O9    O     O_2   0.274849 0.565363 0.202191 -0.474798
O10   O     O_2   0.308013 0.603510 0.797070 -0.500759
O11   O     O_2   0.690031 0.410715 0.202921 -0.528952
O12   O     O_2   0.728951 0.468164 0.798079 -0.524772
Zn1   Zn    Zn3+2 0.500150 0.654960 0.499980 0.955599
Zn2   Zn    Zn3+2 0.500150 0.345040 0.499980 0.977853
O13   O     O_3   0.347608 0.299284 0.356016 -0.574139
C55   C     C_3   0.316046 0.175916 0.330610 -0.239956
H30   H     H_    0.398164 0.132289 0.310739 0.119317
H31   H     H_    0.235733 0.192225 0.306005 0.210535
H32   H     H_    0.284911 0.098197 0.357069 0.202476
Br1   Br    Br    0.815225 0.254202 0.025151 -0.487949
Br2   Br    Br    0.138764 0.567492 0.398455 -0.481658
Br3   Br    Br    0.110690 0.263112 0.432020 -0.528201
O14   O     O_3   0.659523 0.152306 0.435130 -0.598074
C56   C     C_3   0.605817 0.111616 0.390297 -0.133244
H33   H     H_    0.576446 0.204176 0.371239 0.181415
H34   H     H_    0.524891 0.039686 0.392061 0.150485
H35   H     H_    0.679319 0.065188 0.366877 0.171196
O15   O     O_3   0.631475 0.858162 0.428979 -0.607315
C57   C     C_3   0.759323 0.844286 0.415893 -0.314128
H36   H     H_    0.792585 0.743499 0.427325 0.183732
H37   H     H_    0.820786 0.928905 0.430638 0.173750
H38   H     H_    0.767668 0.844912 0.375901 0.186335
Br4   Br    Br    0.095985 0.535299 0.126590 -0.303916
O16   O     O_3   0.510009 0.276122 0.752502 -0.592888
C58   C     C_3   0.416241 0.179568 0.738089 -0.268748
H39   H     H_    0.448886 0.116251 0.706633 0.151114
H40   H     H_    0.325184 0.229200 0.730032 0.163659
H41   H     H_    0.398789 0.108466 0.768332 0.218534
Br5   Br    Br    0.180795 0.757343 0.869720 -0.331107
Br6   Br    Br    0.223670 0.797543 0.986471 -0.334688
O17   O     O_3   0.160010 0.524600 0.021625 -0.559046
C59   C     C_3   0.144264 0.388625 0.003445 -0.159091
H42   H     H_    0.056864 0.382987 0.981827 0.216836
H43   H     H_    0.222753 0.357895 0.978913 0.142481
H44   H     H_    0.134180 0.314581 0.033422 0.194342

loop_
_geom_bond_atom_site_label_1
_geom_bond_atom_site_label_2
_ccdc_geom_bond_type
C10   C27   A    
C21   C26   A    
C48   H22   S    
C12   O4    A    
C56   H33   S    
O17   C59   S    
C37   H8    S    
C50   N1    A    
C52   C53   A    
C47   O15   S    
C23   C42   S    
C22   H28   S    
C12   O3    A    
C28   C29   A    
C45   N4    S    
C38   C42   S    
C5    C6    A    
C9    C22   A    
C15   C16   A    
C57   H36   S    
C45   H19   S    
C18   C19   A    
C48   H24   S    
O3    Zn1   S    
C49   N4    S    
O14   C56   S    
C40   C43   S    
C20   O10   S    
C57   H37   S    
C16   C17   A    
C15   Br5   S    
C1    O2    A    
C25   H6    S    
C31   H2    S    
C56   H35   S    
C36   H9    S    
C52   H1    S    
C8    C12   S    
C40   Br2   S    
C59   H44   S    
C1    O1    A    
C33   H5    S    
C21   C22   A    
C27   C30   A    
C37   C41   S    
C36   C41   S    
C32   H3    S    
O4    Zn2   S    
C4    C7    A    
C44   N3    S    
C6    Br4   S    
C4    C28   A    
C39   C42   S    
C30   O17   S    
C7    C31   A    
C24   C25   A    
C55   H31   S    
C2    H13   S    
C10   C14   A    
O6    Zn2   S    
C19   O12   S    
C3    N1    S    
C25   C26   A    
C14   Br6   S    
C49   H25   S    
C47   N4    S    
C38   H11   S    
O7    Zn1   S    
C16   C20   A    
C20   N2    A    
C17   C18   A    
C39   H15   S    
C56   H34   S    
C34   O8    A    
C44   H20   S    
O16   C58   S    
O1    Zn1   S    
C1    C41   S    
C48   C49   S    
C6    C30   A    
C38   H14   S    
C11   C32   A    
C43   H16   S    
C46   O14   S    
C2    C54   A    
C9    C34   S    
C39   H12   S    
C31   C35   A    
C5    C50   A    
C42   C43   S    
C8    C54   A    
C36   H7    S    
C27   C28   A    
C37   H10   S    
C44   C45   S    
O5    Zn1   S    
N4    Zn1   S    
C46   C47   S    
C40   C41   S    
C43   H17   S    
O2    Zn2   S    
C23   O5    A    
C54   O13   S    
C34   O7    A    
C4    C5    A    
C19   N2    A    
C10   C13   A    
C8    C53   A    
C3    C52   A    
C9    C24   A    
C40   Br3   S    
C29   C35   A    
C57   H38   S    
C13   C17   A    
C45   H21   S    
C32   C33   A    
C58   H41   S    
C36   C38   S    
C2    C3    A    
C59   H42   S    
C7    C51   A    
C37   C39   S    
C46   H26   S    
C11   C13   A    
C50   O9    S    
O15   C57   S    
C51   O11   S    
C26   N2    S    
C53   H29   S    
C49   H23   S    
C44   H18   S    
C55   H32   S    
C48   N3    S    
C47   H27   S    
C21   O16   S    
O13   C55   S    
C18   C33   A    
C35   Br1   S    
C23   O6    A    
C11   C29   A    
C24   H4    S    
C55   H30   S    
C14   C15   A    
C46   N3    S    
C58   H39   S    
N3    Zn2   S    
C58   H40   S    
C51   N1    A    
O8    Zn2   S    
C59   H43   S    
