data_mof_unit_61335.cif
_audit_creation_date              2012-12-10T20:16:03-0500
_audit_creation_method            fapswitch 2.2
_symmetry_space_group_name_H-M    P1
_symmetry_Int_Tables_number       1
_space_group_crystal_system       triclinic
_cell_length_a                    35.564021
_cell_length_b                    35.564099
_cell_length_c                    30.19516
_cell_angle_alpha                 89.99719
_cell_angle_beta                  90.001043
_cell_angle_gamma                 89.99734
_cell_volume                      38190.9096463

loop_
_atom_site_label
_atom_site_type_symbol
_atom_type_description
_atom_site_fract_x
_atom_site_fract_y
_atom_site_fract_z
_atom_type_partial_charge
C1    C     C_R   0.000002 0.426593 0.499989 0.892913
C2    C     C_R   0.114698 0.000014 0.500004 -0.399869
C3    C     C_R   0.500000 0.999999 0.586685 0.959325
C4    C     C_R   0.500000 1.000000 0.913315 0.959235
C5    C     C_R   1.000000 0.500001 0.913315 0.959253
C6    C     C_R   0.500000 1.000000 0.086685 0.959223
C7    C     C_R   0.000000 0.499999 0.086685 0.959228
C8    C     C_R   0.024752 0.476037 0.157056 -0.008294
C9    C     C_R   0.476046 0.975244 0.157055 -0.008266
C10   C     C_R   0.975243 0.523955 0.157053 -0.008273
C11   C     C_R   0.523955 0.024757 0.157053 -0.008265
C12   C     C_R   0.024756 0.523957 0.842945 -0.008205
C13   C     C_R   0.999995 0.885298 0.500002 -0.400928
C14   C     C_R   0.476043 0.024756 0.842944 -0.008253
C15   C     C_R   0.975240 0.476050 0.842947 -0.008169
C16   C     C_R   0.523954 0.975240 0.842948 -0.008223
C17   C     C_R   0.524755 0.976041 0.657056 -0.008241
C18   C     C_R   0.976044 0.475245 0.657055 -0.008085
C19   C     C_R   0.475240 0.023953 0.657052 -0.008251
C20   C     C_R   0.023956 0.524756 0.657053 -0.008306
C21   C     C_R   0.524755 0.023957 0.342945 -0.008279
C22   C     C_R   0.976046 0.524758 0.342944 -0.008342
C23   C     C_R   0.475241 0.976049 0.342947 -0.008278
C24   C     C_R   0.885299 0.999998 0.499999 -0.401048
C25   C     C_R   0.023949 0.475235 0.342949 -0.007461
C26   C     C_R   0.999998 0.499997 0.134492 -0.072967
C27   C     C_R   0.500001 1.000000 0.134492 -0.072918
C28   C     C_R   0.999998 0.500003 0.865508 -0.072840
C29   C     C_R   0.499999 0.999999 0.865508 -0.072853
C30   C     C_R   0.499998 0.999997 0.634492 -0.072891
C31   C     C_R   0.000001 0.500000 0.634492 -0.072936
C32   C     C_R   0.499998 0.000002 0.365508 -0.072957
C33   C     C_R   0.999999 0.499997 0.365509 -0.073143
C34   C     C_R   0.975392 0.524316 0.203465 0.078092
C35   C     C_R   0.500001 0.614701 0.999997 -0.401187
C36   C     C_R   0.524316 0.024608 0.203466 0.078132
C37   C     C_R   0.024601 0.475674 0.203469 0.078350
C38   C     C_R   0.475683 0.975394 0.203467 0.078129
C39   C     C_R   0.975389 0.475688 0.796535 0.078082
C40   C     C_R   0.524315 0.975389 0.796536 0.078164
C41   C     C_R   0.024606 0.524319 0.796533 0.078193
C42   C     C_R   0.475680 0.024606 0.796532 0.078022
C43   C     C_R   0.475389 0.024314 0.703464 0.078017
C44   C     C_R   0.024317 0.524608 0.703466 0.078220
C45   C     C_R   0.524605 0.975678 0.703468 0.078167
C46   C     C_R   0.614701 0.500001 0.000001 -0.401184
C47   C     C_R   0.975681 0.475396 0.703468 0.078083
C48   C     C_R   0.475391 0.975687 0.296534 0.078129
C49   C     C_R   0.024310 0.475383 0.296536 0.078464
C50   C     C_R   0.524606 0.024319 0.296533 0.078124
C51   C     C_R   0.975683 0.524607 0.296532 0.078035
C52   C     C_R   0.999996 0.499995 0.226696 0.037247
C53   C     C_R   0.499999 0.000002 0.226695 0.037241
C54   C     C_R   0.999998 0.500003 0.773305 0.037310
C55   C     C_R   0.499997 0.999997 0.773305 0.037292
C56   C     C_R   0.499997 0.999996 0.726695 0.037287
C57   C     C_R   0.500000 0.385299 0.000003 -0.401195
C58   C     C_R   0.999999 0.500002 0.726695 0.037313
C59   C     C_R   0.499998 0.000002 0.273305 0.037234
C60   C     C_R   0.999996 0.499995 0.273306 0.037016
C61   C     C_R   0.951405 0.548352 0.227095 -0.191959
C62   C     C_R   0.548348 0.048597 0.227097 -0.191975
C63   C     C_R   0.048586 0.451636 0.227103 -0.192392
C64   C     C_R   0.451650 0.951407 0.227100 -0.191967
C65   C     C_R   0.951400 0.451657 0.772904 -0.191538
C66   C     C_R   0.548347 0.951398 0.772906 -0.191896
C67   C     C_R   0.048596 0.548349 0.772900 -0.191888
C68   C     C_R   0.385299 0.499999 0.999999 -0.401202
C69   C     C_R   0.451647 0.048595 0.772897 -0.191594
C70   C     C_R   0.451399 0.048347 0.727094 -0.191623
C71   C     C_R   0.048349 0.548596 0.727097 -0.191959
C72   C     C_R   0.548594 0.951645 0.727102 -0.191907
C73   C     C_R   0.951648 0.451409 0.727101 -0.191400
C74   C     C_R   0.451402 0.951655 0.272903 -0.191992
C75   C     C_R   0.048339 0.451389 0.272906 -0.192692
C76   C     C_R   0.548595 0.048350 0.272900 -0.191999
C77   C     C_R   0.951653 0.548600 0.272898 -0.191925
C78   C     C_R   0.013069 0.173911 0.537467 0.316585
C79   C     C_R   0.999894 0.193227 0.499892 -0.289309
C80   C     C_R   0.173893 0.986715 0.537474 0.344424
C81   C     C_R   0.986787 0.826120 0.537551 0.343466
C82   C     C_R   0.826117 0.013226 0.537525 0.343466
C83   C     C_R   0.013193 0.826112 0.462469 0.343472
C84   C     C_R   0.173864 0.013336 0.462493 0.343459
C85   C     C_R   0.986711 0.173848 0.462367 0.341026
C86   C     C_R   0.826119 0.986767 0.462470 0.343512
C87   C     C_R   0.513228 0.673882 0.037524 0.343520
C88   C     C_R   0.673883 0.486778 0.037535 0.343525
C89   C     C_R   0.486774 0.326117 0.037535 0.343587
C90   C     C_R   0.193226 0.000018 0.499969 -0.299518
C91   C     C_R   0.326117 0.513222 0.037530 0.343613
C92   C     C_R   0.513222 0.326118 0.962473 0.343481
C93   C     C_R   0.673882 0.513228 0.962472 0.343500
C94   C     C_R   0.486779 0.673884 0.962462 0.343501
C95   C     C_R   0.326118 0.486774 0.962469 0.343450
C96   C     C_R   0.018786 0.134798 0.534276 0.235957
C97   C     C_R   0.134773 0.981048 0.534246 0.306719
C98   C     C_R   0.981106 0.865236 0.534312 0.304965
C99   C     C_R   0.865233 0.018906 0.534290 0.304844
C100  C     C_R   0.018877 0.865228 0.465692 0.305201
C101  C     C_R   0.999992 0.806769 0.500014 -0.298669
C102  C     C_R   0.134748 0.019001 0.465763 0.305495
C103  C     C_R   0.981042 0.134733 0.465641 0.307657
C104  C     C_R   0.865235 0.981090 0.465707 0.305117
C105  C     C_R   0.518906 0.634765 0.034292 0.305104
C106  C     C_R   0.634767 0.481097 0.034299 0.305107
C107  C     C_R   0.481096 0.365234 0.034300 0.305160
C108  C     C_R   0.365233 0.518902 0.034294 0.305105
C109  C     C_R   0.518903 0.365233 0.965708 0.305088
C110  C     C_R   0.634765 0.518906 0.965705 0.305096
C111  C     C_R   0.481098 0.634768 0.965699 0.305096
C112  C     C_R   0.426596 0.000001 0.499997 0.892442
C113  C     C_R   0.806771 0.999996 0.499997 -0.298633
C114  C     C_R   0.365234 0.481096 0.965703 0.305079
C115  C     C_R   0.500004 0.693230 0.999992 -0.298688
C116  C     C_R   0.693230 0.500004 0.000004 -0.298684
C117  C     C_R   0.499997 0.306770 0.000004 -0.298684
C118  C     C_R   0.306770 0.499997 1.000000 -0.298696
C119  C     C_1   0.999925 0.233379 0.499837 0.260555
C120  C     C_1   0.233376 0.000012 0.499946 0.262180
C121  C     C_1   0.999993 0.766620 0.500022 0.262587
C122  C     C_1   0.766621 0.999995 0.499996 0.262562
C123  C     C_1   0.500005 0.733379 0.999990 0.262594
C124  C     C_R   0.999999 0.573403 0.500001 0.892753
C125  C     C_1   0.733379 0.500005 0.000005 0.262596
C126  C     C_1   0.499995 0.266621 0.000005 0.262619
C127  C     C_1   0.266621 0.499995 1.000000 0.262614
C128  C     C_1   0.999959 0.266940 0.499761 0.048732
C129  C     C_1   0.266937 0.000008 0.499937 0.007178
C130  C     C_1   0.999993 0.733060 0.500025 0.007224
C131  C     C_1   0.733061 0.999995 0.499996 0.007229
C132  C     C_1   0.500005 0.766939 0.999990 0.007228
C133  C     C_1   0.766939 0.500005 0.000005 0.007229
C134  C     C_1   0.499995 0.233061 0.000005 0.007230
C135  C     C_R   0.573403 0.999999 0.500000 0.892441
C136  C     C_1   0.233061 0.499995 0.000000 0.007216
C137  C     C_R   0.034398 0.326369 0.500368 0.131209
C138  C     C_R   0.326575 0.965652 0.501196 0.105985
C139  C     C_R   0.965643 0.673423 0.501262 0.106073
C140  C     C_R   0.673423 0.034349 0.501241 0.106053
C141  C     C_R   0.034348 0.673423 0.498776 0.106080
C142  C     C_R   0.326576 0.034358 0.498705 0.106387
C143  C     C_R   0.965642 0.326605 0.498893 0.085103
C144  C     C_R   0.673424 0.965643 0.498753 0.106063
C145  C     C_R   0.534357 0.826576 0.001239 0.106061
C146  C     C_R   0.500001 0.926596 1.000000 0.892387
C147  C     C_R   0.826577 0.465651 0.001247 0.106049
C148  C     C_R   0.465643 0.173424 0.001247 0.106045
C149  C     C_R   0.173423 0.534349 0.001244 0.106051
C150  C     C_R   0.534349 0.173423 0.998760 0.106061
C151  C     C_R   0.826576 0.534357 0.998761 0.106061
C152  C     C_R   0.465651 0.826577 0.998746 0.106048
C153  C     C_R   0.173424 0.465643 0.998756 0.106014
C154  C     C_R   0.034142 0.365683 0.500577 -0.221873
C155  C     C_R   0.365698 0.965887 0.501160 -0.155518
C156  C     C_R   0.965880 0.634301 0.501199 -0.155618
C157  C     C_R   0.926596 0.500001 0.000000 0.892369
C158  C     C_R   0.634300 0.034114 0.501187 -0.155587
C159  C     C_R   0.034114 0.634301 0.498824 -0.155697
C160  C     C_R   0.365698 0.034120 0.498780 -0.155655
C161  C     C_R   0.965894 0.365710 0.499048 -0.153203
C162  C     C_R   0.634302 0.965881 0.498810 -0.155595
C163  C     C_R   0.534119 0.865698 0.001187 -0.155571
C164  C     C_R   0.865699 0.465886 0.001190 -0.155529
C165  C     C_R   0.465880 0.134302 0.001190 -0.155468
C166  C     C_R   0.134300 0.534114 0.001189 -0.155598
C167  C     C_R   0.534114 0.134300 0.998813 -0.155549
C168  C     C_R   0.499999 0.073404 0.000000 0.892379
C169  C     C_R   0.865698 0.534120 0.998814 -0.155575
C170  C     C_R   0.465886 0.865699 0.998804 -0.155506
C171  C     C_R   0.134302 0.465880 0.998811 -0.155476
C172  C     C_R   0.000012 0.385442 0.499891 -0.113107
C173  C     C_R   0.385454 0.000002 0.499981 -0.139397
C174  C     C_R   0.999997 0.614545 0.500007 -0.139442
C175  C     C_R   0.614545 0.999998 0.499999 -0.139415
C176  C     C_R   0.500002 0.885454 0.999997 -0.139443
C177  C     C_R   0.885454 0.500002 0.000001 -0.139439
C178  C     C_R   0.499998 0.114545 0.000001 -0.139469
C179  C     C_R   0.073403 0.499999 0.000000 0.892396
C180  C     C_R   0.114546 0.499998 0.000000 -0.139461
C181  C     C_R   0.999986 0.306975 0.499621 0.070959
C182  C     C_R   0.306970 0.000006 0.499941 0.046304
C183  C     C_R   0.999995 0.693027 0.500023 0.046247
C184  C     C_R   0.693028 0.999996 0.499996 0.046218
C185  C     C_R   0.500005 0.806972 0.999991 0.046185
C186  C     C_R   0.806972 0.500004 0.000005 0.046188
C187  C     C_R   0.499996 0.193028 0.000004 0.046161
C188  C     C_R   0.193028 0.499995 0.000000 0.046155
C189  C     C_R   0.073202 0.000000 0.500001 1.063220
C190  C     C_R   0.999938 0.114699 0.499974 -0.378004
C191  C     C_R   0.999999 0.926796 0.500000 1.062024
C192  C     C_R   0.926797 0.999999 0.500000 1.062209
C193  C     C_R   0.999987 0.073203 0.499996 1.058852
C194  C     C_R   0.573203 0.500000 0.000000 1.062442
C195  C     C_R   0.500000 0.426797 0.000001 1.062447
C196  C     C_R   0.426797 0.500000 1.000000 1.062445
C197  C     C_R   0.500000 0.573203 0.999999 1.062444
C198  C     C_R   1.000000 0.499999 0.413315 0.959296
C199  C     C_R   0.500000 0.000001 0.413315 0.959278
C200  C     C_R   0.000000 0.500000 0.586685 0.959825
H1    H     H_    0.932236 0.567354 0.210591 0.151838
H2    H     H_    0.067349 0.567766 0.710593 0.151813
H3    H     H_    0.290179 0.929819 0.530653 0.236234
H4    H     H_    0.928310 0.709907 0.474660 0.217798
H5    H     H_    0.929807 0.709808 0.530736 0.236055
H6    H     H_    0.709900 0.071681 0.474633 0.217775
H7    H     H_    0.709812 0.070181 0.530709 0.236124
H8    H     H_    0.071679 0.709897 0.525390 0.217789
H9    H     H_    0.070181 0.709817 0.469314 0.236036
H10   H     H_    0.290089 0.071691 0.525294 0.218082
H11   H     H_    0.290195 0.070194 0.469218 0.235681
H12   H     H_    0.928549 0.290129 0.525969 0.217769
H13   H     H_    0.567766 0.932645 0.710601 0.151848
H14   H     H_    0.929499 0.290261 0.469876 0.233649
H15   H     H_    0.709905 0.928310 0.525359 0.217787
H16   H     H_    0.709813 0.929810 0.469284 0.236087
H17   H     H_    0.571691 0.790099 0.974633 0.217785
H18   H     H_    0.570191 0.790183 0.030708 0.236090
H19   H     H_    0.790098 0.428322 0.974641 0.217831
H20   H     H_    0.790190 0.429817 0.030717 0.236078
H21   H     H_    0.428310 0.209905 0.974641 0.217926
H22   H     H_    0.429809 0.209812 0.030716 0.236044
H23   H     H_    0.209900 0.571681 0.974638 0.217807
H24   H     H_    0.932648 0.432239 0.710598 0.152004
H25   H     H_    0.209812 0.570180 0.030714 0.236065
H26   H     H_    0.571680 0.209899 0.025368 0.217770
H27   H     H_    0.570182 0.209813 0.969292 0.236119
H28   H     H_    0.790097 0.571688 0.025369 0.217774
H29   H     H_    0.790184 0.570193 0.969294 0.236093
H30   H     H_    0.428319 0.790096 0.025347 0.217778
H31   H     H_    0.429820 0.790191 0.969272 0.236118
H32   H     H_    0.209904 0.428309 0.025362 0.217673
H33   H     H_    0.209814 0.429810 0.969287 0.236220
H34   H     H_    0.432230 0.932657 0.289407 0.151827
H35   H     H_    0.067335 0.432214 0.289411 0.150903
H36   H     H_    0.567766 0.067349 0.289402 0.151829
H37   H     H_    0.932656 0.567774 0.289400 0.151832
H38   H     H_    0.060589 0.380783 0.501208 0.167874
H39   H     H_    0.380570 0.939309 0.502123 0.182291
H40   H     H_    0.939303 0.619429 0.502151 0.182287
H41   H     H_    0.567347 0.067767 0.210593 0.151839
H42   H     H_    0.619428 0.060691 0.502142 0.182286
H43   H     H_    0.060691 0.619428 0.497866 0.182188
H44   H     H_    0.380571 0.060697 0.497831 0.182201
H45   H     H_    0.939313 0.380592 0.498485 0.181819
H46   H     H_    0.619430 0.939304 0.497855 0.182287
H47   H     H_    0.560696 0.880570 0.002145 0.182310
H48   H     H_    0.880572 0.439308 0.002144 0.182350
H49   H     H_    0.439304 0.119429 0.002144 0.182387
H50   H     H_    0.119428 0.560691 0.002144 0.182314
H51   H     H_    0.560692 0.119428 0.997858 0.182322
H52   H     H_    0.067756 0.432634 0.210602 0.151495
H53   H     H_    0.880570 0.560696 0.997859 0.182310
H54   H     H_    0.439308 0.880572 0.997848 0.182357
H55   H     H_    0.119429 0.439304 0.997856 0.182393
H56   H     H_    0.045296 0.424786 0.139381 0.202809
H57   H     H_    0.077981 0.459952 0.141110 0.192535
H58   H     H_    0.424798 0.954695 0.139377 0.202955
H59   H     H_    0.459970 0.922014 0.141109 0.192674
H60   H     H_    0.954699 0.575206 0.139373 0.202939
H61   H     H_    0.922015 0.540040 0.141100 0.192661
H62   H     H_    0.575203 0.045304 0.139376 0.202956
H63   H     H_    0.432651 0.932236 0.210598 0.151842
H64   H     H_    0.540031 0.077986 0.141099 0.192641
H65   H     H_    0.045306 0.575203 0.860621 0.202945
H66   H     H_    0.077986 0.540030 0.858896 0.192731
H67   H     H_    0.424795 0.045307 0.860620 0.203259
H68   H     H_    0.459965 0.077987 0.858890 0.192745
H69   H     H_    0.954689 0.424803 0.860627 0.203259
H70   H     H_    0.922010 0.459977 0.858897 0.192652
H71   H     H_    0.575202 0.954689 0.860627 0.202962
H72   H     H_    0.540031 0.922010 0.858903 0.192695
H73   H     H_    0.545305 0.924792 0.639382 0.202939
H74   H     H_    0.932228 0.432660 0.789407 0.151972
H75   H     H_    0.577985 0.959962 0.641108 0.192685
H76   H     H_    0.924796 0.454699 0.639377 0.202846
H77   H     H_    0.959967 0.422016 0.641109 0.193515
H78   H     H_    0.454690 0.075201 0.639371 0.202964
H79   H     H_    0.422010 0.040031 0.641099 0.192948
H80   H     H_    0.075204 0.545302 0.639376 0.202754
H81   H     H_    0.040033 0.577985 0.641099 0.192696
H82   H     H_    0.545304 0.075204 0.360620 0.202857
H83   H     H_    0.577985 0.040032 0.358896 0.192685
H84   H     H_    0.924801 0.545316 0.360621 0.202907
H85   H     H_    0.567347 0.932226 0.789410 0.151854
H86   H     H_    0.959976 0.577991 0.358890 0.192668
H87   H     H_    0.454691 0.924802 0.360627 0.202924
H88   H     H_    0.422011 0.959975 0.358897 0.192612
H89   H     H_    0.075194 0.454676 0.360629 0.201634
H90   H     H_    0.040018 0.422002 0.358905 0.190856
H91   H     H_    0.028298 0.186945 0.657382 0.394470
H92   H     H_    0.186705 0.970938 0.657273 0.390276
H93   H     H_    0.971311 0.813376 0.657413 0.389833
H94   H     H_    0.813358 0.028774 0.657372 0.389874
H95   H     H_    0.028642 0.813341 0.342606 0.389723
H96   H     H_    0.067767 0.567348 0.789402 0.151843
H97   H     H_    0.186571 0.029187 0.342694 0.389594
H98   H     H_    0.971237 0.186510 0.342489 0.389894
H99   H     H_    0.813364 0.971220 0.342623 0.389742
H100  H     H_    0.528760 0.686637 0.157374 0.389702
H101  H     H_    0.686641 0.471243 0.157386 0.389701
H102  H     H_    0.471245 0.313358 0.157386 0.389606
H103  H     H_    0.313361 0.528753 0.157380 0.389576
H104  H     H_    0.528755 0.313363 0.842624 0.389739
H105  H     H_    0.686639 0.528761 0.842621 0.389726
H106  H     H_    0.471246 0.686642 0.842611 0.389721
H107  H     H_    0.432647 0.067767 0.789399 0.152106
H108  H     H_    0.313359 0.471245 0.842619 0.389723
H109  H     H_    0.098873 0.150551 0.560299 0.366513
H110  H     H_    0.128589 0.899508 0.609078 0.391999
H111  H     H_    0.899688 0.871411 0.609323 0.391925
H112  H     H_    0.871402 0.100358 0.609248 0.392131
H113  H     H_    0.100260 0.871381 0.390626 0.391816
H114  H     H_    0.128512 0.100669 0.391128 0.390815
H115  H     H_    0.899625 0.128491 0.390639 0.391910
H116  H     H_    0.871417 0.899638 0.390750 0.391868
H117  H     H_    0.600348 0.628586 0.109271 0.391840
H118  H     H_    0.432227 0.067347 0.710590 0.152090
H119  H     H_    0.628599 0.399654 0.109279 0.391832
H120  H     H_    0.399657 0.371411 0.109279 0.391733
H121  H     H_    0.371401 0.600344 0.109268 0.391814
H122  H     H_    0.600345 0.371402 0.890732 0.391865
H123  H     H_    0.628586 0.600348 0.890723 0.391849
H124  H     H_    0.399657 0.628600 0.890719 0.391845
H125  H     H_    0.371412 0.399656 0.890727 0.391910
H126  H     H_    0.092027 0.324490 0.504185 0.194051
H127  H     H_    0.072274 0.292537 0.470664 0.206286
H128  H     H_    0.290103 0.928323 0.474577 0.217636
N1    N     N_3   0.050440 0.453062 0.132117 -0.440631
N2    N     N_3   0.953073 0.449556 0.632115 -0.440412
N3    N     N_3   0.449550 0.046924 0.632109 -0.440545
N4    N     N_3   0.046927 0.550444 0.632111 -0.440695
N5    N     N_3   0.550445 0.046927 0.367886 -0.440617
N6    N     N_3   0.953079 0.550452 0.367884 -0.440563
N7    N     N_3   0.449551 0.953079 0.367889 -0.440633
N8    N     N_3   0.046917 0.449541 0.367893 -0.442336
N9    N     N_3   0.069320 0.305978 0.501263 -0.405694
N10   N     N_3   0.307339 0.930254 0.502539 -0.433518
N11   N     N_3   0.930242 0.692659 0.502614 -0.433545
N12   N     N_3   0.453076 0.949554 0.132115 -0.440585
N13   N     N_3   0.692658 0.069748 0.502589 -0.433524
N14   N     N_3   0.069747 0.692659 0.497431 -0.433680
N15   N     N_3   0.307340 0.069758 0.497346 -0.434052
N16   N     N_3   0.930220 0.307392 0.498006 -0.433441
N17   N     N_3   0.692661 0.930243 0.497404 -0.433542
N18   N     N_3   0.569757 0.807339 0.002590 -0.433511
N19   N     N_3   0.807342 0.430252 0.002596 -0.433441
N20   N     N_3   0.430243 0.192661 0.002596 -0.433330
N21   N     N_3   0.192658 0.569748 0.002594 -0.433512
N22   N     N_3   0.569748 0.192658 0.997411 -0.433481
N23   N     N_3   0.949555 0.546930 0.132110 -0.440588
N24   N     N_3   0.807339 0.569757 0.997413 -0.433513
N25   N     N_3   0.430252 0.807342 0.997393 -0.433437
N26   N     N_3   0.192661 0.430243 0.997406 -0.433343
N27   N     N_3   0.546926 0.050446 0.132111 -0.440598
N28   N     N_3   0.050446 0.546926 0.867886 -0.440577
N29   N     N_3   0.453072 0.050447 0.867883 -0.440498
N30   N     N_3   0.949549 0.453081 0.867889 -0.440538
N31   N     N_3   0.546925 0.949550 0.867892 -0.440590
N32   N     N_3   0.550445 0.953069 0.632117 -0.440612
O1    O     O_R   0.968680 0.444530 0.500050 -0.624890
O2    O     O_R   0.944530 0.531320 0.000050 -0.623064
O3    O     O_2   0.095718 0.967498 0.608904 -0.206044
O4    O     O_2   0.081267 0.927525 0.545250 -0.295198
O5    O     O_3   0.142761 0.914645 0.587178 -0.460059
O6    O     O_2   0.967652 0.904329 0.608969 -0.210903
O7    O     O_2   0.927561 0.918712 0.545388 -0.293993
O8    O     O_3   0.914801 0.857235 0.587404 -0.459013
O9    O     O_2   0.904317 0.032387 0.608946 -0.211081
O10   O     O_2   0.918710 0.072449 0.545344 -0.293498
O11   O     O_3   0.857229 0.085236 0.587337 -0.458791
O12   O     O_2   0.032296 0.904300 0.391010 -0.211412
O13   O     O_R   0.531320 0.055470 0.000050 -0.623059
O14   O     O_2   0.072413 0.918704 0.454556 -0.294050
O15   O     O_3   0.085162 0.857214 0.412568 -0.459031
O16   O     O_2   0.095625 0.032671 0.391180 -0.209225
O17   O     O_2   0.081256 0.072560 0.454936 -0.304782
O18   O     O_3   0.142712 0.085468 0.412944 -0.464529
O19   O     O_2   0.967605 0.095591 0.391016 -0.212203
O20   O     O_2   0.927522 0.081235 0.454608 -0.294238
O21   O     O_3   0.914738 0.142685 0.412541 -0.458562
O22   O     O_2   0.904324 0.967608 0.391054 -0.211332
O23   O     O_2   0.918718 0.927549 0.454658 -0.294016
O24   O     O_R   0.055470 0.468680 0.000050 -0.622990
O25   O     O_3   0.857240 0.914759 0.412660 -0.459001
O26   O     O_2   0.532378 0.595678 0.108952 -0.211471
O27   O     O_2   0.572446 0.581282 0.045360 -0.293965
O28   O     O_3   0.585230 0.642761 0.087354 -0.458997
O29   O     O_2   0.595683 0.467623 0.108957 -0.211473
O30   O     O_2   0.581291 0.427556 0.045365 -0.293958
O31   O     O_3   0.642772 0.414773 0.087362 -0.458995
O32   O     O_2   0.467626 0.404319 0.108957 -0.211549
O33   O     O_2   0.427556 0.418717 0.045364 -0.293973
O34   O     O_3   0.414774 0.357236 0.087363 -0.459060
O35   O     O_R   0.468680 0.055470 0.999950 -0.623006
O36   O     O_2   0.404318 0.532376 0.108952 -0.211539
O37   O     O_2   0.418709 0.572444 0.045357 -0.293949
O38   O     O_3   0.357228 0.585225 0.087352 -0.459000
O39   O     O_2   0.532377 0.404319 0.891049 -0.211426
O40   O     O_2   0.572445 0.418710 0.954643 -0.293952
O41   O     O_3   0.585227 0.357229 0.912650 -0.458977
O42   O     O_2   0.595679 0.532378 0.891045 -0.211430
O43   O     O_2   0.581282 0.572446 0.954636 -0.293967
O44   O     O_3   0.642761 0.585230 0.912641 -0.458996
O45   O     O_2   0.467625 0.595684 0.891042 -0.211448
O46   O     O_R   0.944530 0.468680 0.999950 -0.623030
O47   O     O_2   0.427556 0.581291 0.954635 -0.293956
O48   O     O_3   0.414775 0.642773 0.912636 -0.458985
O49   O     O_2   0.404320 0.467626 0.891046 -0.211456
O50   O     O_2   0.418717 0.427556 0.954640 -0.293948
O51   O     O_3   0.357237 0.414774 0.912643 -0.458877
O52   O     O_R   0.531320 0.944530 0.999950 -0.623066
O53   O     O_R   0.055470 0.531320 0.999950 -0.623071
O54   O     O_R   0.968670 0.499990 0.433970 -0.609152
O55   O     O_R   0.499990 0.031330 0.433970 -0.609308
O56   O     O_R   0.031330 0.500010 0.433970 -0.609821
O57   O     O_R   0.444530 0.031320 0.500050 -0.623101
O58   O     O_R   0.500010 0.968670 0.433970 -0.609234
O59   O     O_R   0.968670 0.500010 0.566030 -0.609135
O60   O     O_R   0.499990 0.968670 0.566030 -0.609217
O61   O     O_R   0.031330 0.499990 0.566030 -0.609397
O62   O     O_R   0.500010 0.031330 0.566030 -0.609244
O63   O     O_R   0.468670 0.999990 0.933970 -0.609138
O64   O     O_R   0.999990 0.531330 0.933970 -0.609266
O65   O     O_R   0.531330 0.000010 0.933970 -0.609244
O66   O     O_R   0.000010 0.468670 0.933970 -0.609083
O67   O     O_R   0.468670 0.000010 0.066030 -0.609231
O68   O     O_R   0.031320 0.555470 0.500050 -0.623131
O69   O     O_R   0.999990 0.468670 0.066030 -0.609251
O70   O     O_R   0.531330 0.999990 0.066030 -0.609240
O71   O     O_R   0.000010 0.531330 0.066030 -0.609249
O72   O     O_R   0.055290 0.999950 0.462720 -0.563024
O73   O     O_R   0.999950 0.944710 0.462720 -0.563306
O74   O     O_R   0.944710 0.000050 0.462720 -0.563135
O75   O     O_R   0.000050 0.055290 0.462720 -0.564077
O76   O     O_R   0.055290 0.000050 0.537280 -0.561424
O77   O     O_R   0.999950 0.055290 0.537280 -0.563642
O78   O     O_R   0.944710 0.999950 0.537280 -0.563498
O79   O     O_R   0.555470 0.968680 0.500050 -0.623063
O80   O     O_R   0.000050 0.944710 0.537280 -0.563438
O81   O     O_R   0.555290 0.499950 0.962720 -0.563258
O82   O     O_R   0.499950 0.444710 0.962720 -0.563248
O83   O     O_R   0.444710 0.500050 0.962720 -0.563262
O84   O     O_R   0.500050 0.555290 0.962720 -0.563255
O85   O     O_R   0.555290 0.500050 0.037280 -0.563257
O86   O     O_R   0.499950 0.555290 0.037280 -0.563260
O87   O     O_R   0.444710 0.499950 0.037280 -0.563261
O88   O     O_R   0.500050 0.444710 0.037280 -0.563266
O89   O     O_2   0.058688 0.218601 0.584862 -0.266097
O90   O     O_R   0.968680 0.555470 0.499950 -0.622936
O91   O     O_2   0.991087 0.228416 0.593926 -0.300478
O92   O     O_3   0.020509 0.170806 0.632272 -0.432821
O93   O     O_2   0.218156 0.940633 0.584793 -0.265555
O94   O     O_2   0.228673 0.008124 0.593958 -0.304950
O95   O     O_3   0.170752 0.979271 0.632240 -0.443997
O96   O     O_2   0.940853 0.781855 0.585058 -0.264028
O97   O     O_2   0.008375 0.771396 0.594015 -0.308315
O98   O     O_3   0.979562 0.829321 0.632335 -0.449805
O99   O     O_2   0.781848 0.059194 0.584983 -0.263971
O100  O     O_2   0.771383 0.991679 0.593995 -0.308332
O101  O     O_R   0.444530 0.968680 0.499950 -0.623050
O102  O     O_3   0.829306 0.020506 0.632305 -0.449809
O103  O     O_2   0.059120 0.781836 0.414964 -0.264087
O104  O     O_2   0.991597 0.771375 0.406033 -0.308399
O105  O     O_3   0.020395 0.829291 0.367680 -0.450042
O106  O     O_2   0.218103 0.059430 0.415167 -0.265646
O107  O     O_2   0.228582 0.991939 0.405922 -0.308244
O108  O     O_3   0.170636 0.020852 0.367741 -0.449328
O109  O     O_2   0.940788 0.218093 0.414813 -0.264413
O110  O     O_2   0.008312 0.228521 0.405845 -0.314508
O111  O     O_3   0.979483 0.170579 0.367583 -0.450314
O112  O     O_R   0.031320 0.444530 0.499950 -0.622492
O113  O     O_2   0.781856 0.940799 0.415009 -0.264054
O114  O     O_2   0.771383 0.008313 0.405997 -0.308372
O115  O     O_3   0.829310 0.979489 0.367691 -0.450030
O116  O     O_2   0.559190 0.718145 0.084993 -0.264046
O117  O     O_2   0.491674 0.728616 0.093987 -0.308407
O118  O     O_3   0.520494 0.670691 0.132305 -0.450104
O119  O     O_2   0.718153 0.440816 0.085007 -0.264043
O120  O     O_2   0.728615 0.508332 0.094002 -0.308404
O121  O     O_3   0.670694 0.479509 0.132316 -0.450094
O122  O     O_2   0.440813 0.281853 0.085006 -0.264123
O123  O     O_R   0.555470 0.031320 0.499950 -0.623067
O124  O     O_2   0.508329 0.271380 0.094002 -0.308444
O125  O     O_3   0.479510 0.329305 0.132316 -0.450175
O126  O     O_2   0.281848 0.559181 0.084998 -0.264083
O127  O     O_2   0.271386 0.491665 0.093997 -0.308653
O128  O     O_3   0.329308 0.520488 0.132310 -0.450248
O129  O     O_2   0.559183 0.281849 0.915006 -0.264021
O130  O     O_2   0.491667 0.271387 0.906007 -0.308237
O131  O     O_3   0.520490 0.329309 0.867693 -0.450042
O132  O     O_2   0.718146 0.559191 0.915001 -0.264038
O133  O     O_2   0.728617 0.491675 0.906008 -0.308340
O134  O     O_R   0.468680 0.944530 0.000050 -0.623014
O135  O     O_3   0.670692 0.520495 0.867691 -0.450059
O136  O     O_2   0.440817 0.718153 0.914989 -0.264000
O137  O     O_2   0.508334 0.728616 0.905993 -0.308371
O138  O     O_3   0.479511 0.670695 0.867681 -0.450078
O139  O     O_2   0.281853 0.440813 0.914999 -0.263818
O140  O     O_2   0.271381 0.508329 0.906003 -0.308378
O141  O     O_3   0.329306 0.479510 0.867688 -0.450105
O142  O     O_2   0.032459 0.095942 0.609078 -0.160847
O143  O     O_2   0.072337 0.081130 0.545711 -0.297362
O144  O     O_3   0.085265 0.142733 0.587406 -0.433258
S1    S     S_3+6 0.021213 0.199214 0.587783 0.092391
S2    S     S_3+6 0.699133 0.478484 0.087860 0.092166
S3    S     S_3+6 0.478482 0.300867 0.087860 0.092091
S4    S     S_3+6 0.300868 0.521513 0.087854 0.091995
S5    S     S_3+6 0.521515 0.300869 0.912150 0.092257
S6    S     S_3+6 0.699131 0.521521 0.912148 0.092205
S7    S     S_3+6 0.478486 0.699134 0.912136 0.092200
S8    S     S_3+6 0.300868 0.478482 0.912145 0.092245
S9    S     S_3+6 0.052393 0.112293 0.569646 0.142482
S10   S     S_3+6 0.112194 0.947479 0.569582 0.130600
S11   S     S_3+6 0.947580 0.887815 0.569705 0.129626
S12   S     S_3+6 0.199166 0.978310 0.587759 0.096098
S13   S     S_3+6 0.887808 0.052445 0.569666 0.129786
S14   S     S_3+6 0.052387 0.887798 0.430270 0.129472
S15   S     S_3+6 0.112149 0.052627 0.430519 0.123554
S16   S     S_3+6 0.947527 0.112123 0.430265 0.128883
S17   S     S_3+6 0.887816 0.947551 0.430333 0.129510
S18   S     S_3+6 0.552440 0.612185 0.069677 0.129475
S19   S     S_3+6 0.612192 0.447562 0.069683 0.129472
S20   S     S_3+6 0.447563 0.387813 0.069683 0.129428
S21   S     S_3+6 0.387809 0.552438 0.069676 0.129456
S22   S     S_3+6 0.552439 0.387809 0.930325 0.129494
S23   S     S_3+6 0.978521 0.800876 0.587886 0.092289
S24   S     S_3+6 0.612185 0.552440 0.930319 0.129487
S25   S     S_3+6 0.447563 0.612193 0.930316 0.129479
S26   S     S_3+6 0.387813 0.447562 0.930321 0.129512
S27   S     S_3+6 0.800866 0.021526 0.587847 0.092289
S28   S     S_3+6 0.021450 0.800857 0.412141 0.092175
S29   S     S_3+6 0.199093 0.021765 0.412186 0.091983
S30   S     S_3+6 0.978450 0.199056 0.412005 0.087831
S31   S     S_3+6 0.800870 0.978467 0.412147 0.092197
S32   S     S_3+6 0.521521 0.699130 0.087848 0.092161
Zn1   Zn    Zn3+2 0.958180 0.500000 0.500000 0.999371
Zn2   Zn    Zn3+2 0.000000 0.000000 0.549780 1.265063
Zn3   Zn    Zn3+2 0.500000 0.500000 0.950220 1.262133
Zn4   Zn    Zn3+2 0.500000 0.500000 0.049780 1.262070
Zn5   Zn    Zn3+2 0.500000 0.041820 0.500000 0.999421
Zn6   Zn    Zn3+2 0.041820 0.500000 0.500000 0.996627
Zn7   Zn    Zn3+2 0.500000 0.958180 0.500000 0.999582
Zn8   Zn    Zn3+2 0.458180 0.000000 0.000000 0.999989
Zn9   Zn    Zn3+2 0.000000 0.541820 0.000000 0.999652
Zn10  Zn    Zn3+2 0.541820 0.000000 0.000000 0.999687
Zn11  Zn    Zn3+2 0.000000 0.458180 0.000000 0.999988
Zn12  Zn    Zn3+2 0.000000 0.000000 0.450220 1.262062

loop_
_geom_bond_atom_site_label_1
_geom_bond_atom_site_label_2
_ccdc_geom_bond_type
O115  S31   S    
C144  C184  A    
O121  S2    S    
C165  C178  A    
H111  O8    S    
O96   S23   D    
C8    C26   A    
C16   N31   S    
H58   N12   S    
C129  C182  S    
C192  O78   A    
H108  O141  S    
O134  Zn8   S    
C41   C67   A    
O27   S18   D    
C170  C176  A    
C109  S22   S    
C189  O72   A    
C149  N21   S    
C57   C195  S    
C50   C59   A    
H73   N32   S    
O48   S25   S    
C68   C196  S    
C92   C109  A    
O20   S16   D    
O85   Zn4   S    
C94   C111  A    
H16   N17   S    
O50   S26   D    
H122  O41   S    
C36   C53   A    
O11   S13   S    
C20   C44   A    
C161  C172  A    
C163  H47   S    
O54   Zn1   S    
C57   C109  A    
C113  C122  S    
C45   C56   A    
C78   C96   A    
O114  S31   D    
C198  O54   A    
C146  C176  S    
O92   S1    S    
O90   Zn1   S    
O137  S7    D    
O89   S1    D    
C74   H34   S    
C117  C126  S    
C87   C115  A    
C85   C103  A    
C93   C110  A    
H113  O15   S    
C119  C128  T    
C63   H52   S    
O84   Zn3   S    
O64   Zn9   S    
C18   C47   A    
C110  S24   S    
C148  C165  A    
C39   C65   A    
H78   N3    S    
O51   S26   S    
C36   C62   A    
C134  C187  S    
C31   C200  S    
C37   C63   A    
C38   C64   A    
O141  S8    S    
C115  C123  S    
C9    N12   S    
H10   N15   S    
O71   Zn9   S    
C48   C74   A    
C127  C136  T    
O67   Zn8   S    
O2    Zn9   S    
C78   S1    S    
O83   Zn3   S    
H77   N2    S    
C34   C61   A    
H110  O5    S    
O107  S29   D    
H119  O31   S    
O61   Zn6   S    
O40   S22   D    
H124  O48   S    
C50   C76   A    
O63   Zn8   S    
C152  C170  A    
C131  C184  S    
H72   N31   S    
O14   S14   D    
C11   C27   A    
C40   C55   A    
C168  O13   A    
C91   C118  A    
C144  N17   S    
C103  C190  A    
O55   Zn5   S    
H66   N28   S    
C112  O57   A    
C49   C60   A    
C15   C39   A    
H23   N21   S    
C16   C40   A    
C3    O60   A    
H4    N11   S    
C142  C182  A    
O101  Zn7   S    
C83   C100  A    
C46   C110  A    
O76   Zn2   S    
C79   C85   A    
O25   S17   S    
C189  O76   A    
C5    O64   A    
H94   O102  S    
C102  S15   S    
C5    C28   S    
H99   O115  S    
C128  C181  S    
C96   S9    S    
H8    N14   S    
C94   C115  A    
H87   N7    S    
O47   S25   D    
H9    N14   S    
C147  C164  A    
H57   N1    S    
H62   N27   S    
H109  O144  S    
C18   N2    S    
H121  O38   S    
C38   C53   A    
O91   S1    D    
H6    N13   S    
C69   C70   A    
C138  C182  A    
H86   N6    S    
O77   Zn2   S    
C167  C178  A    
C126  C134  T    
C149  C188  A    
O70   Zn10  S    
H59   N12   S    
H28   N24   S    
C14   N29   S    
C18   C31   A    
C19   C30   A    
C143  C161  A    
H128  N10   S    
H12   N16   S    
O45   S25   D    
C151  C186  A    
C88   C116  A    
C123  C132  T    
C84   C102  A    
C160  C173  A    
C153  N26   S    
C195  O82   A    
C121  C130  T    
C86   C104  A    
C84   S29   S    
H22   N20   S    
C64   H63   S    
H120  O34   S    
C86   S31   S    
H125  O51   S    
C7    C26   S    
H21   N20   S    
O10   S13   D    
C100  S14   S    
O87   Zn4   S    
C32   C199  S    
C130  C183  S    
H70   N30   S    
C39   C54   A    
C137  C181  A    
C2    C102  A    
H60   N23   S    
H95   O105  S    
C158  H42   S    
C96   C190  A    
H126  N9    S    
C52   C60   A    
H90   N8    S    
O95   S12   S    
C141  C159  A    
O59   Zn1   S    
C61   C77   A    
C67   H96   S    
C49   C75   A    
O37   S21   D    
C192  O74   A    
O56   Zn6   S    
H117  O28   S    
C4    O63   A    
O129  S5    D    
C19   N3    S    
C136  C188  S    
O46   Zn11  S    
C197  O84   A    
C84   C90   A    
O126  S4    D    
C179  O24   A    
H26   N22   S    
C169  C177  A    
H61   N23   S    
O57   Zn5   S    
C46   C194  S    
C87   S32   S    
C111  S25   S    
C147  C186  A    
O122  S3    D    
C66   C72   A    
H18   N18   S    
H82   N5    S    
O74   Zn12  S    
C120  C129  T    
C169  H53   S    
O133  S6    D    
O75   Zn12  S    
C70   H118  S    
C76   H36   S    
C137  N9    S    
C37   C52   A    
O9    S13   D    
C162  C175  A    
C145  C163  A    
C179  C180  S    
C3    O62   A    
C145  C185  A    
C141  C183  A    
C93   C116  A    
C90   C120  S    
C161  H45   S    
O43   S24   D    
C35   C105  A    
O68   Zn6   S    
O1    Zn1   S    
C87   C105  A    
O105  S28   S    
O135  S6    S    
C24   C192  S    
C160  H44   S    
C150  N22   S    
O130  S5    D    
O72   Zn12  S    
C200  O59   A    
C89   C117  A    
C116  C125  S    
H102  O125  S    
C166  C180  A    
C118  C127  S    
C14   C29   A    
C122  C131  T    
C81   S23   S    
C35   C197  S    
C62   H41   S    
C194  O81   A    
O109  S30   D    
O73   Zn12  S    
O23   S17   D    
C139  N11   S    
C82   C113  A    
H106  O138  S    
C7    O71   A    
C132  C185  S    
C103  S16   S    
H65   N28   S    
C154  H38   S    
C151  C169  A    
C92   S5    S    
O6    S11   D    
O142  S9    D    
C193  O77   A    
O108  S29   S    
C63   C75   A    
C33   C198  S    
C46   C106  A    
O21   S16   S    
C9    C38   A    
O106  S29   D    
C72   H13   S    
C6    O67   A    
C104  S17   S    
O12   S14   D    
C4    O65   A    
O28   S18   S    
O26   S18   D    
C168  O35   A    
C158  C175  A    
O104  S28   D    
O80   Zn2   S    
H7    N13   S    
O140  S8    D    
C93   S6    S    
O117  S32   D    
C51   C60   A    
H71   N31   S    
C196  O83   A    
C25   C33   A    
C138  C155  A    
C71   H2    S    
C55   C56   A    
H3    N10   S    
C17   C30   A    
O39   S22   D    
C82   C99   A    
H105  O135  S    
C35   C111  A    
C156  C174  A    
C140  C184  A    
O102  S27   S    
C12   C28   A    
O3    S10   D    
H64   N27   S    
O8    S11   S    
C80   C97   A    
O33   S20   D    
O18   S15   S    
C47   C58   A    
C147  N19   S    
C81   C98   A    
C95   C114  A    
C83   S28   S    
O36   S21   D    
C88   S2    S    
O97   S23   D    
C8    N1    S    
C190  C193  S    
H17   N18   S    
C179  O53   A    
C2    C97   A    
C44   C58   A    
C143  N16   S    
O136  S7    D    
C159  C174  A    
C79   C119  S    
O116  S32   D    
H11   N15   S    
H93   O98   S    
H92   O95   S    
O128  S4    S    
C83   C101  A    
C4    C29   S    
O60   Zn7   S    
O124  S3    D    
O58   Zn7   S    
C82   S27   S    
O69   Zn11  S    
C155  H39   S    
C40   C66   A    
C77   H37   S    
C62   C76   A    
C140  N13   S    
C7    O69   A    
C159  H43   S    
C19   C43   A    
O29   S19   D    
H56   N1    S    
C15   N30   S    
H114  O18   S    
H5    N11   S    
O53   Zn9   S    
C146  O52   A    
C47   C73   A    
C21   N5    S    
C107  S20   S    
O66   Zn11  S    
H80   N4    S    
C81   C101  A    
H103  O128  S    
C23   N7    S    
C101  C121  S    
C1    O1    A    
C141  N14   S    
H20   N19   S    
O98   S23   S    
C51   C77   A    
C12   C41   A    
O16   S15   D    
C89   C107  A    
O52   Zn10  S    
H67   N29   S    
C166  H50   S    
H79   N3    S    
O81   Zn3   S    
C106  S19   S    
O125  S3    S    
H91   O92   S    
H29   N24   S    
C108  S21   S    
O110  S30   D    
C8    C37   A    
C152  N25   S    
C9    C27   A    
C11   N27   S    
O30   S19   D    
C85   S30   S    
C91   C108  A    
C17   C45   A    
H89   N8    S    
C153  C188  A    
C1    C172  S    
C34   C52   A    
H81   N4    S    
C23   C32   A    
O38   S21   S    
H68   N29   S    
C15   C28   A    
C150  C167  A    
C137  C154  A    
C67   C71   A    
C91   S4    S    
C25   C49   A    
C157  O2    A    
H104  O131  S    
O82   Zn3   S    
O144  S9    S    
O15   S14   S    
C194  O85   A    
C124  C174  S    
C22   N6    S    
C12   N28   S    
C171  H55   S    
C64   C74   A    
C6    O70   A    
O132  S6    D    
H69   N30   S    
H30   N25   S    
O17   S15   D    
C145  N18   S    
H127  N9    S    
C98   S11   S    
O13   Zn10  S    
H123  O44   S    
C24   C99   A    
O44   S24   S    
O4    S10   D    
C124  O68   A    
C2    C189  S    
C1    O112  A    
O94   S12   D    
C53   C59   A    
C65   C73   A    
C156  H40   S    
C148  C187  A    
C165  H49   S    
C143  C181  A    
C11   C36   A    
O123  Zn5   S    
C42   C55   A    
C13   C98   A    
C167  H51   S    
C114  S26   S    
C44   C71   A    
O5    S10   S    
C195  O88   A    
H98   O111  S    
C196  O87   A    
C61   H1    S    
H97   O108  S    
O24   Zn11  S    
O86   Zn4   S    
O111  S30   S    
C191  O73   A    
O35   Zn8   S    
O22   S17   D    
C75   H35   S    
O49   S26   D    
O112  Zn6   S    
H31   N25   S    
C193  O75   A    
C199  O55   A    
O88   Zn4   S    
O120  S2    D    
C14   C42   A    
C140  C158  A    
C10   C26   A    
O79   Zn7   S    
C112  C173  S    
C94   S7    S    
C45   C72   A    
O31   S19   S    
O138  S7    S    
C148  N20   S    
C10   N23   S    
O93   S12   D    
C163  C176  A    
O7    S11   D    
C21   C50   A    
C142  N15   S    
C95   C118  A    
H19   N19   S    
C21   C32   A    
H14   N16   S    
C170  H54   S    
C151  N24   S    
O131  S5    S    
C89   S3    S    
C124  O90   A    
C150  C187  A    
C78   C79   A    
H101  O121  S    
C191  O80   A    
O99   S27   D    
C16   C29   A    
C95   S8    S    
C42   C69   A    
O139  S8    D    
O41   S22   S    
C24   C104  A    
C135  C175  S    
C197  O86   A    
C162  H46   S    
C3    C30   S    
C92   C117  A    
C25   N8    S    
C88   C106  A    
H75   N32   S    
C6    C27   S    
C135  O79   A    
O19   S16   D    
C153  C171  A    
C99   S13   S    
C154  C172  A    
C48   C59   A    
C10   C34   A    
C157  C177  S    
H33   N26   S    
C69   H107  S    
H83   N5    S    
C135  O123  A    
C133  C186  S    
O119  S2    D    
C57   C107  A    
C17   N32   S    
C112  O101  A    
C43   C70   A    
C198  O56   A    
C171  C180  A    
H100  O118  S    
O118  S32   S    
H76   N2    S    
C139  C183  A    
C54   C58   A    
C125  C133  T    
C22   C33   A    
C23   C48   A    
C73   H24   S    
C144  C162  A    
C65   H74   S    
C138  N10   S    
C66   H85   S    
C149  C166  A    
C146  O134  A    
O62   Zn5   S    
C142  C160  A    
C152  C185  A    
H116  O25   S    
O78   Zn2   S    
C5    O66   A    
C20   N4    S    
H32   N26   S    
O103  S28   D    
C80   S12   S    
C199  O58   A    
H115  O21   S    
C200  O61   A    
O143  S9    D    
C13   C191  S    
O32   S20   D    
C13   C100  A    
O42   S24   D    
C157  O46   A    
H27   N22   S    
O65   Zn10  S    
H88   N7    S    
O127  S4    D    
C155  C173  A    
O34   S20   S    
C139  C156  A    
C168  C178  S    
H112  O11   S    
H25   N21   S    
C97   S10   S    
H15   N17   S    
C80   C90   A    
C164  H48   S    
C41   C54   A    
C43   C56   A    
O113  S31   D    
H84   N6    S    
C68   C114  A    
C68   C108  A    
C105  S18   S    
O100  S27   D    
C164  C177  A    
C86   C113  A    
C22   C51   A    
C20   C31   A    
