data_mof_unit_53701.cif
_audit_creation_date              2012-12-10T19:11:33-0500
_audit_creation_method            fapswitch 2.2
_symmetry_space_group_name_H-M    P1
_symmetry_Int_Tables_number       1
_space_group_crystal_system       triclinic
_cell_length_a                    10.648627
_cell_length_b                    9.741774
_cell_length_c                    10.544492
_cell_angle_alpha                 89.819515
_cell_angle_beta                  87.385983
_cell_angle_gamma                 90.457252
_cell_volume                      1092.66910975

loop_
_atom_site_label
_atom_site_type_symbol
_atom_type_description
_atom_site_fract_x
_atom_site_fract_y
_atom_site_fract_z
_atom_type_partial_charge
C1    C     C_R   0.257981 0.499143 0.509286 0.845302
C2    C     C_3   0.508991 0.499986 0.122358 -0.051819
C3    C     C_3   0.066853 0.616377 0.599976 -0.126413
C4    C     C_3   0.065911 0.353316 0.559907 -0.165685
C5    C     C_3   0.922377 0.615676 0.596432 -0.468849
C6    C     C_3   0.921646 0.359586 0.562207 -0.352202
C7    C     C_3   0.081197 0.521799 0.377308 -0.457759
C8    C     C_3   0.121172 0.496840 0.515279 0.011749
C9    C     C_3   0.878560 0.499239 0.508204 0.064863
C10   C     C_3   0.937719 0.519835 0.373127 -0.317472
C11   C     C_3   0.396104 0.080372 0.423196 -0.268732
C12   C     C_3   0.397615 0.918684 0.421166 -0.268082
C13   C     C_3   0.621710 0.083309 0.444261 -0.128410
C14   C     C_3   0.622718 0.919965 0.447346 -0.126032
C15   C     C_3   0.481155 0.080479 0.627747 -0.256680
C16   C     C_3   0.478792 0.918249 0.627507 -0.248523
C17   C     C_R   0.506119 0.500141 0.257255 0.930726
C18   C     C_R   0.742386 0.500159 0.502452 0.898829
C19   C     C_R   0.497211 0.499835 0.742734 0.880724
C20   C     C_3   0.400603 0.561098 0.050793 -0.235013
C21   C     C_3   0.509448 0.369123 0.041762 -0.106067
C22   C     C_3   0.402170 0.431152 0.968582 0.016776
C23   C     C_3   0.498652 0.499806 0.877521 -0.055656
C24   C     C_3   0.498909 0.630755 0.958116 -0.219235
C25   C     C_3   0.607401 0.438547 0.948691 -0.180673
C26   C     C_3   0.606184 0.568287 0.031547 -0.000219
H1    H     H_    0.906512 0.618062 0.332421 0.259469
H2    H     H_    0.907644 0.435704 0.309865 0.241449
H3    H     H_    0.400535 0.121471 0.324850 0.152816
H4    H     H_    0.405951 0.881741 0.321811 0.142708
H5    H     H_    0.304024 0.114936 0.465224 0.163993
H6    H     H_    0.305011 0.879375 0.459212 0.176173
H7    H     H_    0.557330 0.117360 0.688239 0.161299
H8    H     H_    0.551926 0.879601 0.690339 0.147643
H9    H     H_    0.391883 0.119146 0.672781 0.181358
H10   H     H_    0.387207 0.880416 0.669658 0.209603
H11   H     H_    0.697162 0.118189 0.506861 0.145112
H12   H     H_    0.695887 0.890118 0.514489 0.147080
H13   H     H_    0.315995 0.610153 0.095724 0.158880
H14   H     H_    0.512763 0.262055 0.077288 0.156867
H15   H     H_    0.494893 0.737567 0.921487 0.161447
H16   H     H_    0.691737 0.389359 0.903353 0.161913
H17   H     H_    0.100950 0.715807 0.557814 0.181544
H18   H     H_    0.095272 0.276534 0.486438 0.146747
H19   H     H_    0.876621 0.601940 0.692875 0.156792
H20   H     H_    0.877514 0.346778 0.659199 0.203116
H21   H     H_    0.891784 0.717253 0.560781 0.204221
H22   H     H_    0.887765 0.272546 0.504445 0.201795
H23   H     H_    0.118004 0.622570 0.340976 0.190964
H24   H     H_    0.120964 0.441462 0.312454 0.190108
N1    N     N_3   0.499750 0.138610 0.497240 -0.081234
N2    N     N_3   0.499750 0.861390 0.497240 -0.080900
O1    O     O_R   0.314910 0.616040 0.499970 -0.608627
O2    O     O_R   0.314910 0.383960 0.499970 -0.659276
O3    O     O_R   0.500080 0.616020 0.313900 -0.642717
O4    O     O_R   0.500080 0.383980 0.313900 -0.623996
O5    O     O_R   0.685320 0.616040 0.499930 -0.616200
O6    O     O_R   0.685320 0.383960 0.499930 -0.615405
O7    O     O_R   0.500150 0.616060 0.686000 -0.616006
O8    O     O_R   0.500150 0.383940 0.686000 -0.645028
Zn1   Zn    Zn3+2 0.500150 0.654960 0.499940 0.941686
Zn2   Zn    Zn3+2 0.500150 0.345040 0.499940 0.925061
C27   C     C_2   0.286279 0.354488 0.936902 0.389848
H25   H     H_    0.206588 0.410313 0.904685 0.089027
O9    O     O_2   0.279831 0.230145 0.950415 -0.550614
C28   C     C_2   0.655934 0.142948 0.314038 0.521416
H26   H     H_    0.597292 0.122453 0.234939 0.004433
O10   O     O_2   0.752310 0.210009 0.295210 -0.582233
C29   C     C_2   0.664615 0.857589 0.321547 0.474084
H27   H     H_    0.601912 0.852389 0.243643 0.024189
O11   O     O_2   0.772775 0.819569 0.303939 -0.599182
C30   C     C_2   0.722877 0.643346 0.064386 0.418559
H28   H     H_    0.729396 0.753674 0.051520 0.077903
O12   O     O_2   0.811076 0.580776 0.105506 -0.562598
C31   C     C_2   0.108144 0.612264 0.735002 0.341756
H29   H     H_    0.062331 0.542957 0.803439 0.115032
O13   O     O_2   0.191291 0.688900 0.769073 -0.582430
C32   C     C_2   0.115633 0.298125 0.682780 0.330773
H30   H     H_    0.215882 0.288895 0.692484 0.102370
O14   O     O_2   0.045696 0.258470 0.770639 -0.548241

loop_
_geom_bond_atom_site_label_1
_geom_bond_atom_site_label_2
_ccdc_geom_bond_type
C10   H1    S    
O6    Zn2   S    
C7    C10   S    
C28   O10   D    
C27   O9    D    
C1    C8    S    
C26   C30   S    
C4    C8    S    
C6    C9    S    
C7    C8    S    
C5    C9    S    
C5    H21   S    
C3    H17   S    
C6    H22   S    
C24   C26   S    
N2    Zn1   S    
C32   O14   D    
C15   C16   S    
O8    Zn2   S    
C29   O11   D    
C1    O1    A    
C16   H8    S    
C22   C27   S    
C13   N1    S    
O1    Zn1   S    
C18   O6    A    
C14   N2    S    
C20   C24   S    
C23   C24   S    
C15   N1    S    
C3    C31   S    
C9    C10   S    
C17   O3    A    
C13   H11   S    
C28   H26   S    
C11   H5    S    
C21   C22   S    
C12   H6    S    
C2    C17   S    
C24   H15   S    
N1    Zn2   S    
C15   H9    S    
C12   N2    S    
C13   C28   S    
O7    Zn1   S    
C2    C20   S    
C7    H23   S    
C4    C6    S    
C3    C8    S    
C20   H13   S    
C32   H30   S    
O2    Zn2   S    
C19   O7    A    
C25   C26   S    
C5    H19   S    
C19   C23   S    
C31   H29   S    
C4    C32   S    
C14   H12   S    
C18   O5    A    
C2    C21   S    
C2    C26   S    
C31   O13   D    
C17   O4    A    
C1    O2    A    
C30   O12   D    
C20   C22   S    
C14   C29   S    
O4    Zn2   S    
C10   H2    S    
C21   C25   S    
C6    H20   S    
C12   H4    S    
C16   N2    S    
C7    H24   S    
C30   H28   S    
C3    C5    S    
C25   H16   S    
C11   C12   S    
O5    Zn1   S    
C19   O8    A    
C4    H18   S    
C16   H10   S    
C21   H14   S    
O3    Zn1   S    
C23   C25   S    
C29   H27   S    
C11   N1    S    
C27   H25   S    
C9    C18   S    
C11   H3    S    
C22   C23   S    
C13   C14   S    
C15   H7    S    
