data_mof_unit_36512.cif
_audit_creation_date              2012-12-11T21:09:39-0500
_audit_creation_method            fapswitch 2.2
_symmetry_space_group_name_H-M    P1
_symmetry_Int_Tables_number       1
_space_group_crystal_system       triclinic
_cell_length_a                    8.270172
_cell_length_b                    19.154285
_cell_length_c                    26.907039
_cell_angle_alpha                 99.939676
_cell_angle_beta                  92.38055
_cell_angle_gamma                 87.983717
_cell_volume                      4193.02303158

loop_
_atom_site_label
_atom_site_type_symbol
_atom_type_description
_atom_site_fract_x
_atom_site_fract_y
_atom_site_fract_z
_atom_type_partial_charge
Ba1   Ba    Ba6+2 0.160260 0.465850 0.521400 1.650441
Ba2   Ba    Ba6+2 0.649930 0.534160 0.478640 1.646043
C1    C     C_3   0.334135 0.252527 0.690768 -0.348555
C2    C     C_R   0.991384 0.727710 0.517347 0.060061
C3    C     C_R   0.131723 0.812517 0.457758 -0.154169
C4    C     C_3   0.863611 0.295157 0.643189 0.345312
C5    C     C_R   0.199700 0.745762 0.461937 0.003903
C6    C     C_R   0.685439 0.190033 0.544802 -0.161945
C7    C     C_R   0.616023 0.256260 0.539609 -0.003882
C8    C     C_R   0.859249 0.199280 0.476651 -0.148185
C9    C     C_R   0.822533 0.273131 0.483629 0.067805
C10   C     C_R   0.020001 0.846566 0.493327 0.001314
C11   C     C_R   0.118164 0.701201 0.486994 -0.247346
C12   C     C_3   0.373849 0.289041 0.647099 0.330323
C13   C     C_R   0.799943 0.155813 0.510117 0.008263
C14   C     C_R   0.694734 0.299740 0.513177 -0.232978
C15   C     C_R   0.228012 0.964526 0.468424 -0.077651
C16   C     C_3   0.820819 0.241204 0.675684 -0.365990
C17   C     C_R   0.319781 0.015228 0.452471 -0.080731
C18   C     C_R   0.276547 0.085835 0.465936 -0.071913
C19   C     C_R   0.135795 0.104443 0.491963 -0.070987
C20   C     C_R   0.018014 0.053946 0.494922 0.013946
C21   C     C_R   0.069409 0.980204 0.486147 0.037490
C22   C     C_R   0.856605 0.076850 0.508453 -0.013913
C23   C     C_3   0.472913 0.317148 0.400052 0.307336
C24   C     C_R   0.751764 0.022497 0.517856 0.037632
C25   C     C_R   0.803711 0.948951 0.509194 0.015435
C26   C     C_R   0.964717 0.925937 0.495697 -0.016525
C27   C     C_R   0.591984 0.037616 0.534872 -0.078783
C28   C     C_3   0.825447 0.631830 0.635141 0.303250
C29   C     C_R   0.499965 0.986520 0.550374 -0.077898
C30   C     C_R   0.544291 0.916030 0.536773 -0.067576
C31   C     C_R   0.686393 0.898348 0.511499 -0.081052
C32   C     C_R   0.282762 0.441771 0.171407 0.592171
C33   C     C_R   0.180663 0.561387 0.175875 0.579441
C34   C     C_3   0.484531 0.236956 0.384941 -0.344145
C35   C     C_2   0.028113 0.520385 0.268597 -0.070058
C36   C     C_3   0.993083 0.515764 0.322865 -0.055346
C37   C     C_1   0.278608 0.487840 0.335485 0.010953
C38   C     C_2   0.312172 0.488423 0.287933 -0.076025
C39   C     C_2   0.179807 0.505034 0.251463 0.209747
C40   C     C_3   0.796859 0.660724 0.690545 -0.367164
C41   C     C_R   0.292862 0.499074 0.097340 -0.078228
C42   C     C_R   0.323474 0.439291 0.120685 -0.039658
C43   C     C_R   0.395113 0.378301 0.093024 -0.057293
C44   C     C_R   0.220136 0.560384 0.125191 -0.029807
C45   C     C_3   0.860291 0.716232 0.373123 0.353785
C46   C     C_2   0.147428 0.520465 0.355222 -0.289687
C47   C     C_2   0.653179 0.478104 0.639601 -0.281167
C48   C     C_R   0.442017 0.432562 0.966562 0.020497
C49   C     C_R   0.356739 0.558504 0.973300 0.020294
C50   C     C_R   0.421267 0.494948 0.944745 0.049520
C51   C     C_R   0.499568 0.369903 0.935691 -0.099177
C52   C     C_3   0.980811 0.365160 0.363609 0.235267
C53   C     C_R   0.540381 0.369162 0.885961 -0.063262
C54   C     C_R   0.525791 0.430744 0.864546 -0.030050
C55   C     C_R   0.465825 0.493810 0.893816 -0.079821
C56   C     C_3   0.851242 0.787925 0.355987 -0.360851
C57   C     C_R   0.450652 0.555787 0.872191 -0.032798
C58   C     C_R   0.496898 0.554145 0.822093 0.587512
C59   C     C_R   0.568894 0.430403 0.814257 0.587834
C60   C     C_2   0.753317 0.473688 0.727526 -0.084711
C61   C     C_3   0.799941 0.482060 0.675073 -0.063410
C62   C     C_1   0.519675 0.511399 0.656886 0.042511
C63   C     C_2   0.478169 0.512494 0.704124 -0.095587
C64   C     C_3   0.992276 0.337257 0.306965 -0.262949
C65   C     C_2   0.599976 0.491230 0.742066 0.212192
C66   C     C_R   0.404317 0.434644 0.018112 0.019905
C67   C     C_3   0.363077 0.695991 0.346169 0.302028
C68   C     C_R   0.334986 0.497546 0.046139 0.050231
C69   C     C_R   0.307580 0.558991 0.023589 0.020424
C70   C     C_R   0.434871 0.375936 0.043034 -0.099928
C71   C     C_R   0.188532 0.619573 0.101907 -0.061486
C72   C     C_R   0.345257 0.619873 0.950485 -0.100390
C73   C     C_R   0.391076 0.618402 0.901173 -0.061135
C74   C     C_R   0.230820 0.618989 0.052346 -0.100106
C75   C     C_3   0.333926 0.681475 0.590073 0.314495
C76   C     C_3   0.332605 0.761778 0.604932 -0.383533
C77   C     C_2   0.097875 0.271332 0.297162 0.574855
C78   C     C_3   0.416153 0.706638 0.294673 -0.351919
C79   C     C_R   0.959612 0.802119 0.526118 -0.150206
H1    H     H_    0.318353 0.343214 0.652977 0.096903
H2    H     H_    0.412074 0.666408 0.557163 0.080812
H3    H     H_    0.201671 0.246910 0.692089 0.145758
H4    H     H_    0.250507 0.778874 0.636667 0.127956
H5    H     H_    0.289812 0.786868 0.572424 0.058643
H6    H     H_    0.456839 0.779762 0.616640 0.124735
H7    H     H_    0.506830 0.292934 0.647622 -0.052555
H8    H     H_    0.378296 0.284379 0.726922 0.117204
H9    H     H_    0.595810 0.336832 0.411223 0.011631
H10   H     H_    0.393308 0.329847 0.432794 0.074976
H11   H     H_    0.565605 0.222267 0.352673 0.136126
H12   H     H_    0.720183 0.709988 0.693870 0.141296
H13   H     H_    0.534312 0.212863 0.417221 0.048063
H14   H     H_    0.362465 0.215784 0.373936 0.122095
H15   H     H_    0.393961 0.199084 0.686163 0.105473
H16   H     H_    0.725078 0.206108 0.656763 0.062515
H17   H     H_    0.762358 0.715068 0.399951 0.105528
H18   H     H_    0.978973 0.709669 0.392168 -0.045293
H19   H     H_    0.856607 0.831066 0.389301 0.071282
H20   H     H_    0.954144 0.792549 0.331622 0.120078
H21   H     H_    0.735621 0.793978 0.334447 0.141772
H22   H     H_    0.234453 0.714274 0.350223 -0.016686
H23   H     H_    0.733832 0.621833 0.708257 0.080794
H24   H     H_    0.374239 0.638391 0.347771 0.049466
H25   H     H_    0.338649 0.675858 0.264695 0.128242
H26   H     H_    0.543768 0.687954 0.289198 0.156117
H27   H     H_    0.917538 0.267089 0.607856 0.052162
H28   H     H_    0.405212 0.763662 0.291483 0.115737
H29   H     H_    0.881831 0.823758 0.556654 0.074372
H30   H     H_    0.167003 0.836106 0.426367 0.065812
H31   H     H_    0.646994 0.166479 0.575678 0.062365
H32   H     H_    0.938473 0.177369 0.446573 0.070546
H33   H     H_    0.159757 0.646680 0.485248 0.061255
H34   H     H_    0.914355 0.672782 0.711216 0.122690
H35   H     H_    0.648597 0.353188 0.512645 0.061878
H36   H     H_    0.292387 0.915659 0.469531 0.076392
H37   H     H_    0.436156 0.000497 0.436086 0.080506
H38   H     H_    0.358958 0.125660 0.459553 0.101238
H39   H     H_    0.751001 0.324073 0.633761 -0.066952
H40   H     H_    0.118989 0.158742 0.509613 0.133295
H41   H     H_    0.526475 0.086002 0.533114 0.077557
H42   H     H_    0.382657 0.000830 0.566215 0.080873
H43   H     H_    0.462348 0.875409 0.542134 0.092417
H44   H     H_    0.705052 0.844744 0.493443 0.128809
H45   H     H_    0.102983 0.378132 0.380094 0.018092
H46   H     H_    0.434843 0.477410 0.275323 0.107729
H47   H     H_    0.421674 0.331720 0.110089 0.130042
H48   H     H_    0.845654 0.460567 0.754561 0.098272
H49   H     H_    0.584067 0.319639 0.864219 0.118161
H50   H     H_    0.512460 0.319685 0.948436 0.069639
H51   H     H_    0.928926 0.207874 0.682749 0.111407
H52   H     H_    0.492501 0.327248 0.025341 0.071381
H53   H     H_    0.928827 0.529906 0.242702 0.101317
H54   H     H_    0.130743 0.667165 0.122092 0.122184
H55   H     H_    0.304047 0.670806 0.969979 0.070318
H56   H     H_    0.900888 0.413391 0.369305 0.042468
H57   H     H_    0.379641 0.667092 0.885773 0.123091
H58   H     H_    0.357568 0.530197 0.715949 0.122285
H59   H     H_    0.198918 0.666538 0.037522 0.070083
H60   H     H_    0.150690 0.549758 0.393593 0.066532
H61   H     H_    0.653767 0.445343 0.602394 0.068548
H62   H     H_    0.775653 0.269072 0.712371 0.165764
H63   H     H_    0.707929 0.616186 0.616113 0.023270
H64   H     H_    0.910507 0.585336 0.632034 0.034645
H65   H     H_    0.067832 0.224728 0.312421 -0.004949
H66   H     H_    0.041863 0.378254 0.287946 0.076967
H67   H     H_    0.869182 0.325028 0.290325 0.078077
H68   H     H_    0.209376 0.664251 0.579715 0.003745
N1    N     N_R   0.213856 0.502691 0.198629 -0.429695
N2    N     N_R   0.554912 0.491840 0.793704 -0.424902
O1    O     O_2   0.103290 0.325410 0.465600 -0.455616
O2    O     O_2   0.663298 0.556777 0.332736 -0.485785
O3    O     O_3   0.844751 0.662500 0.330926 -0.595538
O4    O     O_3   0.857760 0.414170 0.470020 -0.483816
O5    O     O_3   0.459840 0.537690 0.560170 -0.493024
O6    O     O_2   0.582520 0.462630 0.379680 -0.458898
O7    O     O_3   0.409129 0.346958 0.359011 -0.606686
O8    O     O_2   0.528655 0.754180 0.481534 -0.508523
O9    O     O_3   0.461964 0.735365 0.383788 -0.600844
O10   O     O_2   0.307273 0.389369 0.191242 -0.560870
O11   O     O_2   0.617681 0.375309 0.788607 -0.617105
O12   O     O_3   0.392151 0.651179 0.631286 -0.628771
O13   O     O_2   0.118311 0.614813 0.199925 -0.601348
O14   O     O_2   0.487131 0.608431 0.803869 -0.598427
O15   O     O_3   0.374170 0.371120 0.556000 -0.474768
O16   O     O_2   0.304970 0.248575 0.503957 -0.500658
O17   O     O_3   0.913374 0.313121 0.386002 -0.654656
O18   O     O_3   0.313768 0.249658 0.601554 -0.594853
O19   O     O_2   0.227790 0.537410 0.620340 -0.459425
O20   O     O_3   0.969630 0.407570 0.582610 -0.475862
O21   O     O_2   0.131731 0.452705 0.669108 -0.488798
O22   O     O_2   0.217188 0.269408 0.271680 -0.527378
O23   O     O_3   0.977820 0.340511 0.670144 -0.592287
O24   O     O_2   0.707020 0.674640 0.534420 -0.467539
O25   O     O_3   0.952550 0.585840 0.530020 -0.488182
O26   O     O_3   0.436140 0.628890 0.444040 -0.465162
O27   O     O_3   0.893789 0.685062 0.614178 -0.633169
O28   O     O_3   0.350480 0.462320 0.439870 -0.484218
O29   O     O_3   0.840680 0.592440 0.417430 -0.489017
P1    P     P_3+3 0.926760 0.336170 0.451740 0.982132
P2    P     P_3+3 0.399470 0.558680 0.614150 0.991552
P3    P     P_3+3 0.967699 0.421673 0.648791 0.973834
P4    P     P_3+3 0.883550 0.663840 0.548300 0.982667
P5    P     P_3+3 0.835386 0.580658 0.351209 0.972275
P6    P     P_3+3 0.403483 0.280118 0.551893 0.932884
P7    P     P_3+3 0.401636 0.439314 0.376681 0.974045
P8    P     P_3+3 0.404511 0.718040 0.442070 0.921237

loop_
_geom_bond_atom_site_label_1
_geom_bond_atom_site_label_2
_ccdc_geom_bond_type
C76   H6    S    
C75   O12   S    
C53   C54   A    
Ba1   O25   S    
Ba2   O4    S    
C47   C61   S    
C40   H12   S    
Ba1   O28   S    
C30   H43   S    
C16   H51   S    
C17   C18   A    
C9    P1    S    
C49   C72   A    
C32   O10   D    
O7    P7    S    
C32   N1    Am   
C28   H63   S    
C27   H41   S    
C75   C76   S    
C25   C31   A    
C64   C77   S    
C52   H45   S    
C78   H26   S    
C23   H9    S    
C35   C36   S    
C45   H17   S    
Ba2   O29   S    
C60   C65   D    
C10   C26   S    
O20   P3    S    
C16   H62   S    
C7    C14   A    
C22   C24   A    
O18   P6    S    
C8    C13   A    
C6    H31   S    
C69   C74   A    
C55   C57   A    
C52   H56   S    
O28   P7    S    
C75   H2    S    
C43   H47   S    
C78   H25   S    
Ba1   O19   S    
C67   O9    S    
C45   H18   S    
C54   C55   A    
C23   O7    S    
Ba1   O1    S    
Ba1   Ba2   S    
C2    C11   A    
Ba1   O4    S    
C77   O22   D    
C58   O14   D    
Ba2   O25   S    
C2    C79   A    
C71   H54   S    
C17   H37   S    
C6    C7    A    
C63   C65   S    
C72   H55   S    
C78   H28   S    
C46   H60   S    
C48   C50   A    
C1    H15   S    
C56   H21   S    
C16   H16   S    
C64   H67   S    
C11   H33   S    
C15   H36   S    
C62   P2    S    
C76   H5    S    
C67   H22   S    
C12   H7    S    
C57   C58   A    
C47   C62   D    
C19   C20   A    
O19   P2    D    
C43   C70   A    
C35   C39   D    
C60   H48   S    
C49   C69   A    
C12   O18   S    
C14   H35   S    
C4    H39   S    
C77   H65   S    
C51   C53   A    
C4    C16   S    
O3    P5    S    
C23   H10   S    
C48   C51   A    
C61   P3    S    
C72   C73   A    
C65   N2    S    
C59   O11   D    
C5    P8    S    
C32   C42   A    
C3    C10   A    
C7    P6    S    
C8    C9    A    
C75   H68   S    
C37   C38   D    
C3    C5    A    
Ba1   P1    S    
Ba2   P4    S    
C39   N1    S    
C3    H30   S    
C38   H46   S    
Ba1   O20   S    
C49   C50   A    
C58   N2    Am   
O8    P8    D    
Ba1   O5    S    
C41   C42   A    
O21   P3    D    
C60   C61   S    
Ba2   O24   S    
C59   N2    Am   
C9    C14   A    
C29   C30   A    
C66   C70   A    
C53   H49   S    
C47   H61   S    
C31   H44   S    
C28   O27   S    
C56   H19   S    
C54   C59   A    
C56   H20   S    
C15   C21   A    
C21   C26   A    
C2    P4    S    
O26   P8    S    
C64   H66   S    
C68   C69   A    
C1    C12   S    
C51   H50   S    
C76   H4    S    
C38   C39   S    
Ba2   O26   S    
C41   C68   A    
C24   C25   A    
C71   C74   A    
C20   C22   A    
Ba2   O28   S    
C12   H1    S    
C74   H59   S    
C50   C55   A    
C57   C73   A    
C25   C26   A    
C42   C43   A    
C28   H64   S    
C79   H29   S    
O25   P4    S    
O12   P2    S    
C13   C22   S    
C67   H24   S    
O5    P2    S    
O15   P6    S    
C36   C46   S    
C20   C21   A    
O6    P7    D    
C52   O17   S    
C73   H57   S    
C40   H23   S    
O23   P3    S    
Ba1   P2    S    
O4    P1    S    
C52   C64   S    
C45   O3    S    
C6    C13   A    
C36   P5    S    
C4    O23   S    
C33   O13   D    
C1    H8    S    
C62   C63   D    
C37   P7    S    
C27   C29   A    
C30   C31   A    
C45   C56   S    
O16   P6    D    
C34   H14   S    
C34   H11   S    
C70   H52   S    
O2    P5    D    
Ba1   O15   S    
Ba2   O6    S    
C15   C17   A    
C10   C79   A    
C18   H38   S    
C33   N1    Am   
C19   H40   S    
C41   C44   A    
O29   P5    S    
C23   C34   S    
C29   H42   S    
C63   H58   S    
C34   H13   S    
C40   H34   S    
C5    C11   A    
C18   C19   A    
C24   C27   A    
C66   C68   A    
O17   P1    S    
C1    H3    S    
C4    H27   S    
C35   H53   S    
C28   C40   S    
C67   C78   S    
O1    P1    D    
C33   C44   A    
C48   C66   A    
C8    H32   S    
C44   C71   A    
O27   P4    S    
Ba2   O5    S    
C37   C46   D    
O24   P4    D    
O9    P8    S    
