data_mof_unit_12615.cif
_audit_creation_date              2013-03-05T16:05:38-0500
_audit_creation_method            fapswitch 2.2
_symmetry_space_group_name_H-M    P1
_symmetry_Int_Tables_number       1
_space_group_crystal_system       triclinic
_cell_length_a                    15.883774
_cell_length_b                    10.744601
_cell_length_c                    9.616648
_cell_angle_alpha                 90.122316
_cell_angle_beta                  90.749903
_cell_angle_gamma                 90.422936
_cell_volume                      1641.03407475

loop_
_atom_site_label
_atom_site_type_symbol
_atom_site_description
_atom_site_fract_x
_atom_site_fract_y
_atom_site_fract_z
_atom_type_partial_charge
O1    O     O_R   0.500000 0.319660 0.618740 -0.531292
O2    O     O_R   0.500000 0.680340 0.381260 -0.547115
O3    O     O_R   0.499990 0.319630 0.381170 -0.552872
O4    O     O_R   0.500010 0.680370 0.618830 -0.537134
C1    C     C_R   0.498590 0.262884 0.499648 0.855889
C2    C     C_R   0.501277 0.737155 0.500059 0.863148
O5    O     O_R   0.379080 0.500000 0.618760 -0.551697
O6    O     O_R   0.620920 0.500000 0.381240 -0.555526
O7    O     O_R   0.379080 0.499970 0.381190 -0.546466
O8    O     O_R   0.620920 0.500030 0.618810 -0.535178
C3    C     C_R   0.340228 0.499562 0.499084 0.835784
C4    C     C_R   0.659787 0.499481 0.500962 0.827730
Cu1   Cu    Cu3+1 0.500000 0.500020 0.640660 1.107788
Cu2   Cu    Cu3+1 0.500000 0.499980 0.359340 1.098273
C5    C     C_3   0.973524 0.384550 0.542461 0.239242
C6    C     C_3   0.026312 0.608975 0.464567 0.247909
C7    C     C_3   0.026157 0.411664 0.413299 0.248178
C8    C     C_3   0.973385 0.581133 0.593654 0.256790
C9    C     C_1   0.250954 0.498974 0.496956 -0.018335
C10   C     C_1   0.749083 0.497652 0.503699 -0.009978
C11   C     C_3   0.031313 0.470611 0.631421 -0.088486
C12   C     C_3   0.968817 0.522618 0.375488 -0.109043
C13   C     C_3   0.084340 0.498158 0.500250 -0.138091
C14   C     C_3   0.915755 0.494721 0.506093 -0.151811
C15   C     C_1   0.175678 0.498644 0.496822 0.142499
C16   C     C_1   0.824355 0.495889 0.506042 0.147405
C17   C     C_R   0.421347 0.062365 0.484575 -0.000109
C18   C     C_R   0.579158 0.937744 0.501760 0.014181
C19   C     C_R   0.424078 0.932024 0.487145 0.318944
C20   C     C_R   0.576283 0.068163 0.502996 0.319480
C21   C     C_R   0.501980 0.871307 0.499398 -0.162054
C22   C     C_R   0.498118 0.128816 0.498329 -0.164143
C23   C     C_R   0.449737 0.419181 0.072982 0.306097
C24   C     C_R   0.549579 0.581628 0.927235 0.315228
C25   C     C_R   0.450327 0.418499 0.924813 0.319974
C26   C     C_R   0.550209 0.580918 0.075443 0.315057
N1    N     N_R   0.500020 0.500030 0.852070 -0.316670
N2    N     N_R   0.499980 0.499970 0.147930 -0.317406
N3    N     N_R   0.052558 0.315713 0.316072 0.159839
O9    O     O_R   0.996247 0.248042 0.251289 -0.258175
O10   O     O_R   0.132017 0.296274 0.294419 -0.305066
N4    N     N_R   0.942080 0.672073 0.692688 0.127753
O11   O     O_R   0.965676 0.788003 0.686189 -0.253766
O12   O     O_R   0.889393 0.637368 0.787637 -0.329185
N5    N     N_R   0.946574 0.260199 0.583731 0.175008
O13   O     O_R   0.002386 0.174679 0.607670 -0.268538
O14   O     O_R   0.867040 0.233700 0.596048 -0.254603
N6    N     N_R   0.053489 0.733158 0.422868 0.167747
O15   O     O_R   0.997842 0.816217 0.388677 -0.252916
O16   O     O_R   0.133122 0.761221 0.417697 -0.261124
C27   C     C_3   0.930604 0.552106 0.232833 -0.279252
C28   C     C_3   0.998324 0.572802 0.124633 -0.684295
H1    H     H_    0.040643 0.651060 0.155205 0.282649
H2    H     H_    0.036013 0.487215 0.111684 0.262527
H3    H     H_    0.968029 0.595666 0.023577 0.280700
H4    H     H_    0.889230 0.473518 0.199331 0.246705
H5    H     H_    0.891533 0.637048 0.241068 0.252358
C29   C     C_3   0.066003 0.437169 0.775639 -0.316152
C30   C     C_3   0.122442 0.540021 0.836223 -0.681310
H6    H     H_    0.177583 0.557243 0.769392 0.269367
H7    H     H_    0.086790 0.627788 0.847477 0.275944
H8    H     H_    0.146415 0.511370 0.940134 0.264188
H9    H     H_    0.012476 0.419971 0.846343 0.240309
H10   H     H_    0.102982 0.350172 0.767644 0.253148
C31   C     C_3   0.337562 0.128703 0.460702 -0.313795
C32   C     C_3   0.277708 0.115101 0.582953 -0.601734
H11   H     H_    0.250781 0.019836 0.587849 0.298907
H12   H     H_    0.310784 0.136080 0.682233 0.292897
H13   H     H_    0.224668 0.181131 0.570199 0.248695
H14   H     H_    0.346334 0.229545 0.441717 0.191103
H15   H     H_    0.306420 0.091988 0.364921 0.287880
C33   C     C_3   0.663809 0.871091 0.495292 -0.359424
C34   C     C_3   0.720356 0.895513 0.622765 -0.520671
H16   H     H_    0.757472 0.982480 0.609788 0.294928
H17   H     H_    0.682816 0.903199 0.718638 0.291965
H18   H     H_    0.765777 0.818022 0.635502 0.260822
H19   H     H_    0.655921 0.768994 0.485087 0.175973
H20   H     H_    0.697389 0.900602 0.400167 0.272028
N7    N     N_R   0.348045 0.860046 0.471952 0.105649
O17   O     O_R   0.321595 0.792181 0.574618 -0.352237
O18   O     O_R   0.310733 0.851400 0.351088 -0.281827
N8    N     N_R   0.652706 0.140286 0.504509 0.100778
O19   O     O_R   0.699417 0.144938 0.394518 -0.300002
O20   O     O_R   0.672338 0.208541 0.612183 -0.320904
N9    N     N_R   0.395630 0.333888 0.143276 0.167225
O21   O     O_R   0.316887 0.362489 0.158800 -0.300055
O22   O     O_R   0.417551 0.217794 0.153029 -0.296403
N10   N     N_R   0.599842 0.671706 0.857203 0.165554
O23   O     O_R   0.574111 0.786285 0.853209 -0.314134
O24   O     O_R   0.678994 0.648787 0.836616 -0.300555
N11   N     N_R   0.399002 0.329526 0.852395 0.166227
O25   O     O_R   0.319565 0.353110 0.832399 -0.356167
O26   O     O_R   0.424112 0.214671 0.847246 -0.306888
N12   N     N_R   0.604433 0.666280 0.148290 0.170602
O27   O     O_R   0.581850 0.781939 0.159781 -0.293865
O28   O     O_R   0.683589 0.638834 0.164218 -0.332618

loop_
_geom_bond_atom_site_label_1
_geom_bond_atom_site_label_2
_geom_bond_distance
_ccdc_geom_bond_type
C32   H12   1.105688 S    
C17   C19   1.401715 A    
C8    C11   1.548533 S    
C34   H16   1.109318 S    
C6    N6    1.458017 S    
N3    O10   1.300197 A    
C18   C33   1.529977 S    
N5    O13   1.300316 A    
O5    C3    1.298742 A    
C3    C9    1.417849 S    
C7    C13   1.542970 S    
O1    C1    1.296313 A    
C25   N1    1.373549 A    
C14   C16   1.451917 S    
C8    N4    1.457605 S    
C32   H13   1.111146 S    
N11   O26   1.300759 A    
C31   H14   1.107264 S    
C24   N1    1.372234 A    
C27   H4    1.110758 S    
C7    N3    1.457898 S    
O4    Cu1   1.949571 S    
C23   N9    1.428867 S    
C33   H20   1.110574 S    
O6    Cu2   1.929435 S    
C27   H5    1.110725 S    
Cu1   N1    2.033051 S    
C28   H3    1.107633 S    
C1    C22   1.440499 S    
N6    O16   1.299770 A    
C2    C21   1.441397 S    
C30   H6    1.107810 S    
Cu1   Cu2   2.705355 S    
C34   H17   1.107780 S    
O2    C2    1.294026 A    
N4    O12   1.299985 A    
O2    Cu2   1.948879 S    
C28   H2    1.108662 S    
N5    O14   1.299915 A    
C29   H10   1.110689 S    
C30   H7    1.109391 S    
N9    O22   1.300786 A    
C27   C28   1.521812 S    
C8    C14   1.540437 S    
O4    C2    1.296392 A    
N3    O9    1.300253 A    
N7    O18   1.300593 A    
C29   C30   1.527524 S    
N9    O21   1.300553 A    
C20   N8    1.435214 S    
O7    Cu2   1.934857 S    
C33   H19   1.107202 S    
C17   C31   1.529236 S    
Cu2   N2    2.033051 S    
C19   N7    1.434947 S    
O5    Cu1   1.929436 S    
O6    C4    1.299296 A    
C4    C10   1.418539 S    
C24   N10   1.425885 S    
N12   O28   1.300712 A    
O7    C3    1.297891 A    
O3    Cu2   1.949573 S    
O8    C4    1.297638 A    
C5    C14   1.541085 S    
N10   O24   1.300518 A    
N8    O19   1.300782 A    
C6    C13   1.547478 S    
N8    O20   1.300847 A    
C11   C13   1.553687 S    
C34   H18   1.111646 S    
C12   C14   1.550255 S    
O1    Cu1   1.948880 S    
N4    O11   1.299999 A    
C5    N5    1.457461 S    
N11   O25   1.300704 A    
C28   H1    1.109381 S    
C29   H9    1.110264 S    
C5    C7    1.533539 S    
N6    O15   1.300411 A    
C30   H8    1.109679 S    
C6    C12   1.546733 S    
C17   C22   1.413063 A    
C18   C21   1.413918 A    
C23   N2    1.371826 A    
C33   C34   1.531229 S    
O3    C1    1.293760 A    
O8    Cu1   1.934857 S    
C7    C12   1.546668 S    
C18   C20   1.402409 A    
C11   C29   1.530111 S    
C19   C21   1.406778 A    
C31   H15   1.110109 S    
C20   C22   1.406696 A    
C10   C16   1.195813 T    
C26   N2    1.373260 A    
C23   C25   1.425044 A    
C32   H11   1.107766 S    
C24   C26   1.425204 A    
C13   C15   1.451571 S    
N12   O27   1.300855 A    
C9    C15   1.195631 T    
N7    O17   1.300910 A    
C26   N12   1.429536 S    
C5    C11   1.546942 S    
N10   O23   1.300532 A    
C6    C8    1.537026 S    
C31   C32   1.528162 S    
C12   C27   1.527642 S    
C25   N11   1.426291 S    
