data_mof_unit_13963.cif
_audit_creation_date              2012-12-11T17:07:28-0500
_audit_creation_method            fapswitch 2.2
_symmetry_space_group_name_H-M    P1
_symmetry_Int_Tables_number       1
_space_group_crystal_system       triclinic
_cell_length_a                    6.992117
_cell_length_b                    14.632124
_cell_length_c                    16.014803
_cell_angle_alpha                 90.015231
_cell_angle_beta                  90.523303
_cell_angle_gamma                 90.324475
_cell_volume                      1638.3721614

loop_
_atom_site_label
_atom_site_type_symbol
_atom_type_description
_atom_site_fract_x
_atom_site_fract_y
_atom_site_fract_z
_atom_type_partial_charge
O1    O     O_R   0.505720 0.583900 0.413310 -0.536075
O2    O     O_R   0.175940 0.594920 0.586080 -0.552590
O3    O     O_R   0.005640 0.416100 0.586690 -0.544598
C1    C     C_R   0.345482 0.615167 0.616327 0.713574
O4    O     O_R   0.176000 0.594930 0.413930 -0.546095
O5    O     O_R   0.005700 0.416110 0.413310 -0.539750
C2    C     C_R   0.344514 0.616576 0.385059 0.702224
O6    O     O_R   0.505660 0.583890 0.586690 -0.538155
O7    O     O_3   0.339200 0.441330 0.500000 -0.368762
V1    V     V_3+5 0.064350 0.510880 0.500000 1.401863
O8    O     O_R   0.675980 0.405080 0.413920 -0.543390
C3    C     C_R   0.844398 0.382640 0.385573 0.686231
O9    O     O_R   0.675920 0.405070 0.586070 -0.532143
C4    C     C_R   0.845892 0.382220 0.613858 0.672461
V2    V     V_3+5 0.564340 0.489120 0.500000 1.432029
O10   O     O_3   0.839360 0.558670 0.500000 -0.377796
H1    H     H_    0.543581 0.093032 0.527499 0.140203
C5    C     C_R   0.055783 0.420635 0.769137 -0.063880
C6    C     C_R   0.152615 0.441750 0.843027 0.020747
C7    C     C_R   0.151109 0.380835 0.909230 -0.112790
C8    C     C_R   0.057067 0.297252 0.901186 -0.144419
C9    C     C_R   0.966243 0.271422 0.825146 0.066715
C10   C     C_R   0.960928 0.335423 0.758101 0.069925
C11   C     C_R   0.879194 0.184123 0.815888 -0.173414
C12   C     C_R   0.786729 0.160782 0.739341 0.070957
C13   C     C_R   0.775779 0.225759 0.673174 0.069951
C14   C     C_R   0.859585 0.313861 0.682882 -0.153569
C15   C     C_R   0.709590 0.072079 0.726011 -0.151026
C16   C     C_R   0.621091 0.048664 0.650713 -0.118413
C17   C     C_R   0.610095 0.111969 0.586370 -0.106014
C18   C     C_R   0.687688 0.199134 0.596810 -0.141643
H2    H     H_    0.055645 0.473114 0.721972 0.111036
H3    H     H_    0.224876 0.506969 0.849648 0.189838
H4    H     H_    0.221943 0.398685 0.967429 0.128231
H5    H     H_    0.056123 0.253868 0.955743 0.111083
H6    H     H_    0.719268 0.018983 0.772680 0.114154
H7    H     H_    0.563024 0.980553 0.641884 0.126133
H8    H     H_    0.680877 0.244226 0.543469 0.113153
C19   C     C_R   0.725026 0.245857 0.189362 0.092510
C20   C     C_R   0.882988 0.188144 0.180825 -0.089951
C21   C     C_R   0.035260 0.200127 0.238007 -0.147712
H9    H     H_    0.159331 0.156749 0.234455 0.144133
C22   C     C_R   0.022645 0.263429 0.304207 -0.176761
H10   H     H_    0.139106 0.267975 0.348926 0.134178
C23   C     C_R   0.856563 0.316115 0.315734 -0.106786
C24   C     C_R   0.712139 0.308199 0.255009 0.111688
C25   C     C_3   0.504213 0.289587 0.265684 -0.421424
C26   C     C_3   0.518086 0.222083 0.193916 -0.384080
H11   H     H_    0.415376 0.350223 0.250505 0.173363
H12   H     H_    0.473325 0.256436 0.326581 0.177891
H13   H     H_    0.437799 0.243879 0.137157 0.165955
H14   H     H_    0.494369 0.149893 0.213114 0.205909
C27   C     C_R   0.520511 0.736187 0.699797 0.011709
C28   C     C_R   0.356241 0.683627 0.685129 -0.067671
C29   C     C_R   0.200733 0.699203 0.737598 -0.122289
H15   H     H_    0.079996 0.653875 0.733635 0.147947
C30   C     C_R   0.208784 0.766558 0.800529 -0.109669
H16   H     H_    0.091586 0.771621 0.843700 0.147146
C31   C     C_R   0.373454 0.821380 0.812183 -0.051408
C32   C     C_R   0.524970 0.809114 0.756661 0.006206
C33   C     C_3   0.727630 0.792196 0.780174 -0.425001
C34   C     C_3   0.710866 0.704337 0.731054 0.281319
H17   H     H_    0.751692 0.782973 0.848318 0.223740
H18   H     H_    0.824739 0.843182 0.750973 0.118645
H19   H     H_    0.813004 0.697031 0.679029 0.023879
C35   C     C_R   0.517079 0.690803 0.265630 0.025465
C36   C     C_R   0.353000 0.682189 0.314478 -0.079409
C37   C     C_R   0.199549 0.740692 0.296056 -0.131312
H20   H     H_    0.074728 0.739159 0.334873 0.170273
C38   C     C_R   0.212260 0.806309 0.231800 -0.097278
H21   H     H_    0.097146 0.853733 0.222005 0.180730
C39   C     C_R   0.379039 0.816338 0.184572 -0.064001
C40   C     C_R   0.532404 0.759647 0.205294 0.004213
C41   C     C_3   0.726784 0.786109 0.236937 0.345424
C42   C     C_3   0.715441 0.705894 0.296608 -0.437862
H22   H     H_    0.835061 0.778275 0.187431 0.029100
H23   H     H_    0.722302 0.724370 0.363972 0.221328
H24   H     H_    0.809691 0.648219 0.278919 0.125888
O11   O     O_R   0.229140 0.916090 0.913340 -0.549063
O12   O     O_R   0.558860 0.905090 0.086080 -0.516940
O13   O     O_R   0.729100 0.083920 0.086690 -0.519047
C43   C     C_R   0.390513 0.884588 0.116009 0.746469
O14   O     O_R   0.558860 0.905090 0.913930 -0.546396
O15   O     O_R   0.729100 0.083920 0.913310 -0.542857
C44   C     C_R   0.388888 0.885053 0.883960 0.690974
O16   O     O_R   0.229140 0.916080 0.086720 -0.545559
O17   O     O_3   0.395570 0.058660 0.000020 -0.378303
V3    V     V_3+5 0.670450 0.989140 0.000000 1.490381
O18   O     O_R   0.058810 0.094980 0.913910 -0.544591
C45   C     C_R   0.889731 0.116317 0.885127 0.673431
O19   O     O_R   0.058810 0.094980 0.086060 -0.555146
C46   C     C_R   0.890659 0.117645 0.114205 0.764911
V4    V     V_3+5 0.170450 0.010950 0.999970 1.433188
O20   O     O_3   0.895460 0.941370 0.999990 -0.371146
S1    S     S_3+6 0.691469 0.608731 0.802416 -0.028424
O21   O     O_2   0.873284 0.599216 0.852127 -0.354690
O22   O     O_2   0.530011 0.623688 0.862115 -0.318219
O23   O     O_3   0.648706 0.512440 0.749232 -0.495746
H25   H     H_    0.728015 0.520307 0.699158 0.311049
S2    S     S_3+6 0.731184 0.893765 0.292538 -0.046660
O24   O     O_2   0.757494 0.970472 0.231608 -0.362825
O25   O     O_2   0.547307 0.907168 0.338820 -0.329351
O26   O     O_3   0.913111 0.895530 0.361888 -0.523606
H26   H     H_    0.914930 0.958539 0.384528 0.366156

loop_
_geom_bond_atom_site_label_1
_geom_bond_atom_site_label_2
_ccdc_geom_bond_type
C29   H15   S    
V4    O20   S    
C40   C41   S    
S1    O21   D    
C1    O6    A    
S1    O23   S    
C25   H11   S    
C23   C24   A    
C12   C15   A    
C13   C14   A    
C41   H22   S    
C15   C16   A    
O11   V4    S    
O5    C3    A    
C17   C18   A    
C30   C31   A    
V2    O10   S    
C5    C6    A    
C21   H9    S    
C33   H17   S    
O9    C4    A    
C24   C25   S    
O13   C46   A    
O8    V2    S    
C26   H13   S    
C6    C7    A    
C37   H20   S    
C38   H21   S    
O1    V2    S    
C10   C14   A    
C4    C14   S    
O7    V1    S    
O19   C46   A    
C7    H4    S    
C35   C36   A    
C31   C32   A    
C8    C9    A    
H1    C17   S    
C21   C22   A    
O15   C45   A    
C27   C32   A    
C25   H12   S    
V3    O20   S    
C41   C42   S    
C5    C10   A    
C11   C12   A    
O12   C43   A    
C6    H3    S    
C19   C20   A    
O4    C2    A    
C39   C40   A    
C41   S2    S    
C12   C13   A    
C43   O16   A    
C35   C40   A    
S2    O26   S    
C36   C37   A    
C32   C33   S    
C33   H18   S    
O2    C1    A    
C22   H10   S    
C31   C44   S    
C16   C17   A    
O16   V4    S    
O19   V4    S    
C42   H23   S    
C27   C34   S    
C25   C26   S    
S2    O25   D    
C20   C46   S    
C22   C23   A    
O3    C4    A    
C19   C24   A    
C20   C21   A    
O14   C44   A    
O6    V2    S    
O9    V2    S    
C9    C11   A    
C5    H2    S    
O2    V1    S    
O11   C44   A    
C28   C29   A    
C34   H19   S    
C1    C28   S    
O1    C2    A    
C13   C18   A    
O15   V3    S    
C3    C23   S    
C11   C45   S    
O5    V1    S    
O8    C3    A    
S1    O22   D    
C27   C28   A    
C8    H5    S    
C18   H8    S    
C29   C30   A    
O7    V2    S    
O4    V1    S    
O12   V3    S    
O3    V1    S    
V1    O10   S    
C30   H16   S    
C35   C42   S    
O17   V4    S    
S2    O24   D    
O14   V3    S    
O18   V4    S    
C33   C34   S    
C42   H24   S    
O13   V3    S    
C2    C36   S    
C26   H14   S    
C7    C8    A    
C15   H6    S    
O17   V3    S    
C37   C38   A    
O23   H25   S    
C16   H7    S    
O26   H26   S    
C9    C10   A    
C38   C39   A    
O18   C45   A    
C34   S1    S    
C39   C43   S    
C19   C26   S    
