data_mof_unit_25298.cif
_audit_creation_date              2013-03-05T15:57:02-0500
_audit_creation_method            fapswitch 2.2
_symmetry_space_group_name_H-M    P1
_symmetry_Int_Tables_number       1
_space_group_crystal_system       triclinic
_cell_length_a                    8.289706
_cell_length_b                    16.540004
_cell_length_c                    18.791977
_cell_angle_alpha                 99.546733
_cell_angle_beta                  91.492661
_cell_angle_gamma                 93.912646
_cell_volume                      2533.16581013

loop_
_atom_site_label
_atom_site_type_symbol
_atom_site_description
_atom_site_fract_x
_atom_site_fract_y
_atom_site_fract_z
_atom_type_partial_charge
P1    P     P_3+3 0.056550 0.421630 0.336220 0.495498
O1    O     O_2   0.884010 0.444810 0.325060 -0.328830
O2    O     O_3   0.132090 0.451130 0.414310 -0.391719
O3    O     O_3   0.640770 0.594650 0.368950 -0.347450
O4    O     O_2   0.757542 0.533698 0.244680 -0.357837
O5    O     O_3   0.029582 0.314216 0.317357 -0.549602
O6    O     O_3   0.693221 0.686458 0.258043 -0.528605
H1    H     H_    0.512473 0.741798 0.318941 0.094079
C1    C     C_3   0.625876 0.823168 0.253042 -0.046857
H2    H     H_    0.700309 0.854378 0.301107 0.143228
P2    P     P_3+3 0.635450 0.689180 0.556380 0.474722
P3    P     P_3+3 0.082359 0.744240 0.405915 0.481733
O7    O     O_2   0.808690 0.699720 0.534830 -0.369424
O8    O     O_3   0.053760 0.638480 0.405010 -0.397587
O9    O     O_2   0.950886 0.786161 0.452700 -0.371960
O10   O     O_3   0.643205 0.722547 0.649854 -0.555555
O11   O     O_3   0.039238 0.763153 0.318781 -0.483128
C2    C     C_3   0.099427 0.700275 0.269039 0.537479
H3    H     H_    0.025205 0.641549 0.268086 0.125540
C3    C     C_3   0.090424 0.722902 0.193911 -0.932092
H4    H     H_    0.962816 0.729488 0.177781 0.267101
H5    H     H_    0.162821 0.781740 0.193222 0.298016
C4    C     C_3   0.201578 0.716015 0.618874 0.379698
H6    H     H_    0.314635 0.689895 0.599593 0.093758
C5    C     C_3   0.229625 0.809094 0.637716 -0.883864
H7    H     H_    0.331683 0.825843 0.678117 0.275886
H8    H     H_    0.258816 0.835830 0.589001 0.209786
H9    H     H_    0.118757 0.835705 0.660430 0.273050
Ba1   Ba    Ba6+2 0.845660 0.536000 0.465120 1.623912
C6    C     C_3   0.986270 0.282717 0.379309 0.439069
H10   H     H_    0.090012 0.291043 0.418898 0.103285
C7    C     C_3   0.937780 0.191044 0.357725 -0.949538
H11   H     H_    0.823108 0.181419 0.324785 0.312157
H12   H     H_    0.922157 0.162089 0.406179 0.192639
C8    C     C_3   0.700386 0.661687 0.684981 0.432624
H13   H     H_    0.824597 0.649512 0.668154 0.082681
H14   H     H_    0.618405 0.604713 0.673252 0.107602
C9    C     C_3   0.705055 0.692770 0.765946 -0.983658
H15   H     H_    0.789301 0.748740 0.779349 0.284450
H16   H     H_    0.746818 0.645278 0.795928 0.205850
H17   H     H_    0.582150 0.707982 0.783364 0.261721
P4    P     P_3+3 0.133150 0.578440 0.663790 0.485496
O12   O     O_2   0.305690 0.555220 0.674980 -0.373854
O13   O     O_3   0.057610 0.548940 0.585700 -0.365211
O14   O     O_3   0.548930 0.405410 0.631060 -0.293475
O15   O     O_3   0.156172 0.685972 0.681151 -0.571714
P5    P     P_3+3 0.121813 0.253945 0.594610 0.609344
O16   O     O_3   0.631040 0.400420 0.463490 -0.335904
O17   O     O_3   0.135930 0.361590 0.595000 -0.285018
O18   O     O_2   0.256381 0.216382 0.547436 -0.331303
O19   O     O_3   0.175845 0.238037 0.681980 -0.431188
Ba2   Ba    Ba6+2 0.344160 0.464070 0.534880 1.676004
P6    P     P_3+3 0.625869 0.589539 0.275865 0.491302
C10   C     C_3   0.563890 0.737343 0.264420 0.141690
H18   H     H_    0.468719 0.713354 0.222071 0.067020
O20   O     O_3   0.558660 0.599640 0.536520 -0.406168
C11   C     C_3   0.481364 0.303426 0.309688 0.840616
H19   H     H_    0.431613 0.358892 0.340939 -0.018003
C12   C     C_3   0.343386 0.247161 0.269963 -0.869941
H20   H     H_    0.268954 0.221767 0.309989 0.231091
H21   H     H_    0.268896 0.281496 0.236979 0.238084
H22   H     H_    0.391328 0.194886 0.233726 0.270469
P7    P     P_3+3 0.562666 0.295950 0.444974 0.475602
O21   O     O_2   0.381010 0.300300 0.465220 -0.378857
O22   O     O_3   0.566245 0.257458 0.352520 -0.624213
H23   H     H_    0.139344 0.674118 0.154314 0.204706
C13   C     C_3   0.054725 0.267766 0.728164 0.175879
H24   H     H_    0.056979 0.335911 0.734374 0.116396
C14   C     C_3   0.071275 0.242249 0.803102 0.383525
H25   H     H_    0.961209 0.260055 0.832609 -0.026504
P8    P     P_3+3 0.562239 0.417139 0.726064 0.559604
C15   C     C_3   0.617663 0.270847 0.755633 0.873566
H26   H     H_    0.738575 0.304403 0.762845 -0.159266
O23   O     O_2   0.429030 0.473124 0.754010 -0.367939
O24   O     O_3   0.492252 0.323645 0.751627 -0.486829
H27   H     H_    0.695806 0.191033 0.829326 0.243429
C16   C     C_3   0.593369 0.228782 0.821537 -0.800668
H28   H     H_    0.480687 0.187795 0.814073 0.301648
C17   C     C_R   0.001342 0.464983 0.048745 0.014979
C18   C     C_R   0.908565 0.424038 0.095459 0.087781
C19   C     C_R   0.754033 0.388096 0.071817 -0.092671
C20   C     C_R   0.689338 0.395501 0.004018 -0.204593
C21   C     C_R   0.781492 0.435009 0.956609 0.125017
C22   C     C_R   0.939124 0.468842 0.978419 0.029672
C23   C     C_R   0.719259 0.439469 0.887392 -0.259898
C24   C     C_R   0.815883 0.471833 0.836815 -0.062310
C25   C     C_R   0.974099 0.507383 0.858705 0.030949
C26   C     C_R   0.033968 0.506601 0.930153 0.023701
C27   C     C_R   0.760058 0.468973 0.764656 0.159458
C28   C     C_R   0.859779 0.503482 0.716867 -0.391261
C29   C     C_R   0.016101 0.537650 0.736207 0.230027
C30   C     C_R   0.072848 0.543199 0.809377 -0.031797
C31   C     C_R   0.156455 0.501140 0.071973 -0.008989
C32   C     C_R   0.215021 0.501106 0.143825 0.020043
C33   C     C_R   0.118185 0.462713 0.192298 -0.069398
C34   C     C_R   0.969895 0.420557 0.165289 -0.091792
H29   H     H_    0.682297 0.354367 0.105700 0.213692
H30   H     H_    0.568136 0.368746 0.988143 0.181432
H31   H     H_    0.595521 0.416483 0.873157 0.194606
H32   H     H_    0.898163 0.386754 0.198806 0.221718
C35   C     C_R   0.224207 0.583081 0.835176 -0.115734
C36   C     C_R   0.285347 0.580001 0.905155 0.124843
C37   C     C_R   0.190328 0.541545 0.952871 0.042759
C38   C     C_R   0.251519 0.538824 0.023644 0.019266
C39   C     C_R   0.441742 0.613967 0.927946 -0.169964
C40   C     C_R   0.502885 0.610422 0.997377 -0.167975
C41   C     C_R   0.408136 0.573762 0.045883 0.130882
C42   C     C_R   0.370111 0.539647 0.166810 -0.010312
C43   C     C_R   0.467024 0.572893 0.116443 -0.252217
C44   C     C_R   0.422456 0.544794 0.239792 0.225871
C45   C     C_R   0.321277 0.511664 0.288227 -0.443903
C46   C     C_R   0.172042 0.468937 0.266100 0.203828
H33   H     H_    0.624107 0.637087 0.013363 0.137956
H34   H     H_    0.587761 0.600139 0.131885 0.168928
C47   C     C_R   0.384919 0.728638 0.468082 -0.520711
C48   C     C_R   0.530736 0.757419 0.505333 0.331508
C49   C     C_R   0.586875 0.840302 0.510114 -0.242853
C50   C     C_R   0.494027 0.895205 0.479096 0.158784
C51   C     C_R   0.341341 0.866033 0.446880 -0.205753
C52   C     C_R   0.286660 0.783110 0.441721 0.194201
C53   C     C_R   0.629313 0.141998 0.482177 -0.219411
C54   C     C_R   0.669860 0.226914 0.494724 0.170675
C55   C     C_R   0.730330 0.087854 0.510331 0.224555
N1    N     N_2   0.543381 0.980441 0.482788 -0.047023
N2    N     N_2   0.685934 0.001749 0.505299 -0.051384
C56   C     C_R   0.808960 0.257576 0.535997 0.039638
H35   H     H_    0.264514 0.908124 0.426523 0.181007
C57   C     C_R   0.921249 0.205398 0.556166 0.064460
C58   C     C_R   0.880965 0.120157 0.544065 -0.250360
H36   H     H_    0.964357 0.079443 0.562029 0.177345
H37   H     H_    0.882724 0.313700 0.404089 0.113033
H38   H     H_    0.031554 0.159032 0.325543 0.267952
N3    N     N_R   0.491236 0.872190 0.240813 0.241230
O25   O     O_R   0.473127 0.897782 0.179470 -0.352134
O26   O     O_R   0.390937 0.892413 0.291666 -0.411902
N4    N     N_R   0.589362 0.328458 0.256200 0.218622
O27   O     O_R   0.547133 0.384626 0.220243 -0.480791
O28   O     O_R   0.698777 0.280031 0.230301 -0.392993
H39   H     H_    0.704027 0.817704 0.205483 0.144559
H40   H     H_    0.935608 0.240792 0.705065 0.066799
N5    N     N_R   0.210081 0.285580 0.846345 0.241080
O29   O     O_R   0.263119 0.255455 0.901511 -0.373779
O30   O     O_R   0.242172 0.363604 0.845980 -0.411840
N6    N     N_R   0.079458 0.153063 0.796063 0.259816
O31   O     O_R   0.200435 0.117135 0.765173 -0.319570
O32   O     O_R   0.966977 0.109127 0.822345 -0.348119
N7    N     N_R   0.611561 0.207899 0.690713 0.221432
O33   O     O_R   0.512543 0.211873 0.636960 -0.315424
O34   O     O_R   0.694547 0.143548 0.688562 -0.421797
H41   H     H_    0.585904 0.274714 0.871097 0.224092
H42   H     H_    0.814877 0.502614 0.662191 0.187782
H43   H     H_    0.297536 0.615931 0.801082 0.160871
H44   H     H_    0.517485 0.642913 0.891893 0.135876
H45   H     H_    0.227511 0.691436 0.282598 -0.040768
H46   H     H_    0.362729 0.516145 0.343894 0.167544
H47   H     H_    0.520137 0.118727 0.450400 0.168076
H48   H     H_    0.699753 0.861911 0.539582 0.173313
H49   H     H_    0.341864 0.664809 0.464648 0.167888
N8    N     N_R   0.824010 0.340919 0.568749 0.241231
O35   O     O_R   0.837127 0.354184 0.638444 -0.500833
O36   O     O_R   0.886052 0.395972 0.533624 -0.357346
H50   H     H_    0.104882 0.700728 0.575865 0.129554

loop_
_geom_bond_atom_site_label_1
_geom_bond_atom_site_label_2
_geom_bond_distance
_ccdc_geom_bond_type
P6    C44   1.858591 S    
C39   H44   1.082220 S    
C25   C26   1.421669 A    
P7    O22   1.750184 S    
C31   C32   1.423023 A    
C53   H47   1.082537 S    
O3    P6    1.737971 S    
O14   P8    1.763257 S    
C41   C43   1.403657 A    
C33   C34   1.409982 A    
C57   C58   1.405857 A    
C26   C37   1.408348 A    
C19   C20   1.396778 A    
C11   H19   1.114519 S    
P5    C57   1.869169 S    
P5    O17   1.775085 S    
C16   H28   1.107704 S    
C48   C49   1.404954 A    
C5    H9    1.110819 S    
C32   C42   1.419061 A    
C35   C36   1.407078 A    
O1    Ba1   2.845289 S    
O7    Ba1   2.846117 S    
C8    H14   1.111012 S    
C17   C31   1.407411 A    
C33   C46   1.430913 A    
N5    O30   1.300941 A    
P1    C46   1.889610 S    
C23   C24   1.407619 A    
C6    H10   1.108408 S    
C18   C19   1.403786 A    
O12   Ba2   2.845835 S    
C55   N2    1.433395 S    
C40   C41   1.403948 A    
C14   N5    1.464097 S    
C6    H37   1.103610 S    
C42   C43   1.412662 A    
C36   C39   1.404180 A    
P1    O1    1.524019 D    
P4    O15   1.750480 S    
O2    Ba1   2.940826 S    
C50   C51   1.407557 A    
P3    C52   1.839266 S    
N7    O33   1.297928 A    
P3    O11   1.749710 S    
C4    H6    1.103313 S    
N8    O36   1.297110 A    
C11   N4    1.455184 S    
C18   C34   1.406453 A    
C1    H2    1.111704 S    
O3    Ba1   2.781796 S    
C2    H45   1.110455 S    
C4    H50   1.109272 S    
O13   Ba2   2.941722 S    
C12   H20   1.102949 S    
C4    O15   1.395900 S    
C25   C30   1.426818 A    
C55   C58   1.414922 A    
C20   H30   1.083617 S    
C36   C37   1.409484 A    
P4    O13   1.567348 S    
C15   O24   1.410919 S    
C1    H39   1.112658 S    
C31   C38   1.411506 A    
P5    O18   1.542622 D    
C9    H15   1.110601 S    
C12   H21   1.110271 S    
C40   H33   1.083709 S    
C49   H48   1.082437 S    
P1    O5    1.750666 S    
C6    C7    1.526276 S    
C8    C9    1.521681 S    
H27   C16   1.108407 S    
C9    H17   1.110642 S    
N4    O28   1.301532 A    
Ba2   O21   2.846376 S    
H1    C10   1.113018 S    
C29   C30   1.427894 A    
C24   C25   1.421817 A    
C2    H3    1.111074 S    
O16   P7    1.756332 S    
P5    O19   1.756874 S    
C47   H49   1.082086 S    
O14   Ba2   2.781395 S    
C5    H7    1.110725 S    
C56   N8    1.409158 S    
C13   H24   1.112553 S    
P1    O2    1.567347 S    
C8    H13   1.106758 S    
C7    H12   1.103415 S    
C54   C56   1.389788 A    
C9    H16   1.108186 S    
C15   C16   1.529099 S    
C23   H31   1.080283 S    
P2    O10   1.749839 S    
N8    O35   1.292009 A    
P8    C27   1.868176 S    
P3    O9    1.546733 D    
P3    O8    1.746354 S    
C51   C52   1.401717 A    
O17   Ba2   2.732516 S    
P1    Ba1   3.413823 S    
O11   C2    1.406040 S    
C44   C45   1.405229 A    
C50   N1    1.430782 S    
C13   H40   1.102641 S    
C53   C54   1.401007 A    
C43   H34   1.081197 S    
C30   C35   1.412012 A    
N6    O32   1.300778 A    
C21   C23   1.401965 A    
C3    H5    1.110089 S    
C47   C52   1.395616 A    
Ba1   O13   2.801381 S    
C17   C22   1.419012 A    
N3    O25   1.300792 A    
C17   C18   1.407850 A    
C21   C22   1.408858 A    
P4    O12   1.524330 D    
O6    P6    1.749086 S    
O8    Ba1   2.731770 S    
C7    H38   1.106720 S    
P7    C54   1.848468 S    
C58   H36   1.082634 S    
C3    H23   1.109243 S    
C10   H18   1.110419 S    
C12   H22   1.111283 S    
C56   C57   1.398111 A    
C45   C46   1.399707 A    
O5    C6    1.397545 S    
C28   H42   1.081166 S    
C22   C26   1.410286 A    
C11   O22   1.402697 S    
C15   H26   1.105941 S    
C24   C27   1.413576 A    
C16   H41   1.105933 S    
P8    O23   1.536583 D    
C14   N6    1.465451 S    
O2    Ba2   2.801833 S    
Ba1   O20   2.933972 S    
C5    H8    1.106050 S    
C15   N7    1.463960 S    
N7    O34   1.301877 A    
C39   C40   1.399178 A    
C35   H43   1.079768 S    
P2    C48   1.843120 S    
Ba1   O16   2.761328 S    
N6    O31   1.301181 A    
C7    H11   1.108220 S    
O4    P6    1.542504 D    
O10   C8    1.393909 S    
C49   C50   1.415762 A    
P8    O24   1.759884 S    
P2    O7    1.508758 D    
C28   C29   1.392168 A    
O19   C13   1.405112 S    
C19   H29   1.078228 S    
C51   H35   1.082941 S    
C34   H32   1.074169 S    
C42   C44   1.414825 A    
C2    C3    1.520668 S    
C4    C5    1.521726 S    
C32   C33   1.427511 A    
C14   H25   1.111554 S    
C53   C55   1.421119 A    
C11   C12   1.520318 S    
P7    O21   1.566245 D    
Ba2   O20   2.760590 S    
O16   Ba2   2.933106 S    
C3    H4    1.110285 S    
P2    Ba1   3.422531 S    
C20   C21   1.401708 A    
P4    C29   1.879524 S    
C37   C38   1.419856 A    
N3    O26   1.299905 A    
N4    O27   1.297104 A    
C1    C10   1.526997 S    
O6    C10   1.403047 S    
C13   C14   1.541122 S    
C27   C28   1.399974 A    
N5    O29   1.301441 A    
C45   H46   1.081654 S    
C38   C41   1.408344 A    
P2    O20   1.553533 S    
C47   C48   1.394503 A    
P4    Ba2   3.414508 S    
N1    N2    1.251920 D    
Ba1   Ba2   4.595314 S    
C1    N3    1.458751 S    
