data_mof_unit_35604.cif
_audit_creation_date              2012-12-11T18:06:59-0500
_audit_creation_method            fapswitch 2.2
_symmetry_space_group_name_H-M    P1
_symmetry_Int_Tables_number       1
_space_group_crystal_system       triclinic
_cell_length_a                    8.412007
_cell_length_b                    13.041055
_cell_length_c                    26.817258
_cell_angle_alpha                 97.612537
_cell_angle_beta                  94.031773
_cell_angle_gamma                 80.651843
_cell_volume                      2873.65581982

loop_
_atom_site_label
_atom_site_type_symbol
_atom_type_description
_atom_site_fract_x
_atom_site_fract_y
_atom_site_fract_z
_atom_type_partial_charge
Ba1   Ba    Ba6+2 0.859560 0.448380 0.523550 1.107310
Ba2   Ba    Ba6+2 0.330270 0.551530 0.476440 1.053617
C1    C     C_3   0.547632 0.141979 0.690508 -0.189621
C2    C     C_3   0.621451 0.188448 0.650352 0.126897
C3    C     C_3   0.515307 0.725996 0.628496 0.309735
C4    C     C_3   0.465077 0.772295 0.682214 0.341033
C5    C     C_3   0.028103 0.733731 0.333046 0.256635
C6    C     C_3   0.006016 0.747862 0.276800 0.375309
C7    C     C_3   0.600615 0.755414 0.299747 0.441834
C8    C     C_3   0.551446 0.814046 0.254090 -0.395078
C9    C     C_R   0.062773 0.413877 0.181206 0.608583
C10   C     C_R   0.835900 0.546114 0.168615 0.596231
C11   C     C_2   0.730174 0.495073 0.267883 0.188091
C12   C     C_3   0.128355 0.216754 0.656274 0.797126
C13   C     C_3   0.699829 0.515505 0.324386 -0.103117
C14   C     C_1   0.985798 0.477814 0.342179 -0.005363
C15   C     C_2   0.019496 0.475149 0.294221 -0.203507
C16   C     C_2   0.886509 0.482415 0.253042 0.231589
C17   C     C_R   0.004152 0.473758 0.098468 -0.104478
C18   C     C_R   0.109265 0.416737 0.131651 -0.101333
C19   C     C_R   0.257401 0.362865 0.114312 0.001992
C20   C     C_R   0.862829 0.535514 0.116686 0.020293
C21   C     C_2   0.848006 0.530518 0.357265 -0.155946
C22   C     C_2   0.336341 0.451686 0.636255 -0.052022
C23   C     C_3   0.110809 0.182409 0.707425 -0.156967
C24   C     C_R   0.238806 0.430783 0.981509 -0.073801
C25   C     C_R   0.956942 0.502552 0.960292 -0.038782
C26   C     C_R   0.116518 0.465059 0.945508 0.126015
C27   C     C_R   0.399731 0.407722 0.966584 0.038761
C28   C     C_R   0.437488 0.416962 0.917652 -0.064012
C29   C     C_R   0.315573 0.443539 0.880920 -0.089327
C30   C     C_R   0.154701 0.463173 0.894381 -0.188262
C31   C     C_R   0.032338 0.482696 0.856940 0.120910
C32   C     C_R   0.072146 0.471240 0.805747 0.454524
C33   C     C_R   0.352059 0.454780 0.831493 0.769058
C34   C     C_3   0.273561 0.243205 0.341080 0.129784
C35   C     C_2   0.424228 0.419877 0.723357 0.035559
C36   C     C_3   0.474075 0.448962 0.674861 -0.108792
C37   C     C_1   0.198332 0.504692 0.652019 -0.042708
C38   C     C_2   0.154851 0.505682 0.699402 0.004189
C39   C     C_2   0.273854 0.460013 0.739411 0.041429
C40   C     C_R   0.196234 0.422727 0.031217 0.011962
C41   C     C_R   0.041547 0.470456 0.047182 0.143878
C42   C     C_R   0.924411 0.515815 0.012438 -0.019072
C43   C     C_R   0.302186 0.368307 0.065595 -0.031574
C44   C     C_R   0.752950 0.587058 0.082817 -0.129230
C45   C     C_3   0.264522 0.135508 0.311840 0.336368
C46   C     C_R   0.836130 0.525367 0.922227 0.035151
C47   C     C_R   0.872515 0.512193 0.871453 -0.213871
C48   C     C_R   0.780322 0.574512 0.031429 -0.075772
C49   C     C_R   0.734907 0.813498 0.466726 0.251138
C50   C     C_R   0.425874 0.181796 0.509047 -0.325190
C51   C     C_R   0.405973 0.008404 0.526528 -0.258422
C52   C     C_R   0.342948 0.114617 0.529131 0.239637
C53   C     C_R   0.565221 0.144621 0.482533 0.098974
C54   C     C_R   0.619549 0.031890 0.473135 -0.003139
C55   C     C_R   0.542516 0.964771 0.498851 -0.045150
C56   C     C_3   0.979091 0.799496 0.636272 0.685396
C57   C     C_R   0.602547 0.855145 0.495853 -0.071521
C58   C     C_R   0.819323 0.877438 0.444283 -0.219527
C59   C     C_R   0.746514 0.981851 0.440634 0.392208
C60   C     C_3   0.015067 0.893700 0.675406 0.236421
C61   C     C_3   0.732879 0.314002 0.379163 0.107056
C62   C     C_3   0.725705 0.286451 0.321870 -0.345413
H1    H     H_    0.693948 0.124338 0.626435 0.065607
H2    H     H_    0.371978 0.110688 0.288816 0.026510
H3    H     H_    0.156769 0.142683 0.285322 0.033667
H4    H     H_    0.863693 0.774055 0.642419 0.024332
H5    H     H_    0.916138 0.960639 0.673844 0.022023
H6    H     H_    0.121250 0.924451 0.664646 0.062998
H7    H     H_    0.859371 0.302593 0.393782 0.129120
H8    H     H_    0.675457 0.395582 0.390397 0.081690
H9    H     H_    0.474312 0.082568 0.672308 0.167607
H10   H     H_    0.729558 0.201449 0.310162 0.182143
H11   H     H_    0.828886 0.309706 0.305133 0.084502
H12   H     H_    0.608916 0.324063 0.306203 0.085031
H13   H     H_    0.521499 0.224611 0.625695 0.086297
H14   H     H_    0.468257 0.203704 0.713438 0.150634
H15   H     H_    0.417583 0.683912 0.610026 -0.048384
H16   H     H_    0.627965 0.668922 0.630707 0.058877
H17   H     H_    0.354539 0.829588 0.679023 0.093092
H18   H     H_    0.644227 0.105870 0.715986 0.202132
H19   H     H_    0.218999 0.127393 0.718082 0.148924
H20   H     H_    0.115895 0.663026 0.338221 0.094895
H21   H     H_    0.910178 0.721190 0.345044 0.023095
H22   H     H_    0.943770 0.684794 0.256847 0.068920
H23   H     H_    0.929554 0.823267 0.271264 -1.420954
H24   H     H_    0.693402 0.689581 0.287296 -0.912416
H25   H     H_    0.653975 0.806034 0.330276 0.115635
H26   H     H_    0.494998 0.762949 0.223867 0.152290
H27   H     H_    0.659071 0.836480 0.239328 0.235194
H28   H     H_    0.015631 0.268775 0.646692 0.084375
H29   H     H_    0.464635 0.886230 0.263668 0.215931
H30   H     H_    0.142305 0.476312 0.285132 0.143255
H31   H     H_    0.341423 0.318251 0.138863 0.119406
H32   H     H_    0.514651 0.374779 0.745706 0.096515
H33   H     H_    0.562931 0.400334 0.908261 0.105428
H34   H     H_    0.499603 0.387122 0.992793 0.079225
H35   H     H_    0.418116 0.325430 0.054926 0.037790
H36   H     H_    0.642664 0.635202 0.095784 0.156004
H37   H     H_    0.711130 0.549948 0.930621 0.061224
H38   H     H_    0.231753 0.260675 0.658805 -0.952123
H39   H     H_    0.775364 0.528877 0.843617 0.223282
H40   H     H_    0.043782 0.554813 0.710737 0.179848
H41   H     H_    0.690071 0.615765 0.007588 0.127511
H42   H     H_    0.839864 0.577120 0.393940 0.082055
H43   H     H_    0.341502 0.397424 0.601868 0.126224
H44   H     H_    0.345214 0.960219 0.545702 0.228458
H45   H     H_    0.781033 0.730766 0.464970 0.002136
H46   H     H_    0.379929 0.264813 0.513921 0.088293
H47   H     H_    0.095751 0.251852 0.736464 0.127914
H48   H     H_    0.003585 0.142320 0.706170 0.110266
H49   H     H_    0.262164 0.298279 0.312176 0.000206
H50   H     H_    0.392837 0.241739 0.360300 0.084207
N1    N     N_R   0.926877 0.479328 0.200055 -0.420832
N2    N     N_R   0.232189 0.460779 0.792521 -0.383162
O1    O     O_2   0.907040 0.557650 0.617910 -0.422008
O2    O     O_3   0.647286 0.246320 0.397406 -0.393056
O3    O     O_3   0.154526 0.128033 0.620303 -0.568238
O4    O     O_2   0.282660 0.442310 0.382060 -0.307797
O5    O     O_3   0.050670 0.442340 0.442260 -0.443170
O6    O     O_3   0.504750 0.639360 0.411530 -0.440059
O7    O     O_3   0.155644 0.272662 0.377563 -0.530995
O8    O     O_3   0.618400 0.630290 0.524520 -0.388939
O9    O     O_3   0.090070 0.694820 0.435810 -0.426065
O10   O     O_2   0.157580 0.883587 0.456322 -0.281336
O11   O     O_3   0.081217 0.821138 0.362039 -0.446721
O12   O     O_3   0.139040 0.557570 0.557730 -0.395727
O13   O     O_3   0.571310 0.369620 0.475470 -0.416383
O14   O     O_2   0.348200 0.764910 0.523260 -0.347237
O15   O     O_3   0.540546 0.807179 0.601343 -0.495249
O16   O     O_2   0.372670 0.554566 0.328045 -0.327562
O17   O     O_3   0.464841 0.725337 0.317836 -0.507581
O18   O     O_2   0.143001 0.352322 0.207197 -0.584464
O19   O     O_2   0.490555 0.463008 0.824098 -0.599132
O20   O     O_2   0.732798 0.616186 0.185830 -0.588466
O21   O     O_2   0.963282 0.469150 0.773325 -0.329478
O22   O     O_3   0.684960 0.360550 0.588460 -0.470387
O23   O     O_2   0.810566 0.439467 0.675010 -0.304462
O24   O     O_3   0.107439 0.716932 0.637602 -0.631111
O25   O     O_3   0.725628 0.256617 0.674019 -0.538043
O26   O     O_2   0.841490 0.235060 0.476710 -0.375026
O27   O     O_3   0.099640 0.305100 0.564190 -0.461222
O28   O     O_2   0.012104 0.117976 0.531859 -0.369325
P1    P     P_3+3 0.072810 0.589830 0.610360 1.000178
P2    P     P_3+3 0.661990 0.251250 0.462170 1.034189
P3    P     P_3+3 0.152501 0.167923 0.560295 0.950920
P4    P     P_3+3 0.116900 0.410080 0.389630 0.959786
P5    P     P_3+3 0.032456 0.823735 0.424735 1.140395
P6    P     P_3+3 0.672127 0.379489 0.653287 0.892677
P7    P     P_3+3 0.533771 0.765238 0.536312 0.866268
P8    P     P_3+3 0.518453 0.609758 0.345731 0.785309
S1    S     S_3+6 0.249251 0.035399 0.350033 -0.169512
O29   O     O_2   0.212849 0.080042 0.403340 -0.161242
O30   O     O_2   0.115056 0.982043 0.325028 -0.167720
O31   O     O_3   0.414014 0.944979 0.352078 -0.430798
H51   H     H_    0.401775 0.907755 0.381154 0.345597
S2    S     S_3+6 0.972889 0.845813 0.576840 -0.200360
O32   O     O_2   0.122397 0.891855 0.572657 -0.244017
O33   O     O_2   0.967929 0.754896 0.536774 -0.253523
O34   O     O_3   0.814989 0.940756 0.570830 -0.505147
H52   H     H_    0.740471 0.934377 0.596709 0.323865
S3    S     S_3+6 0.054596 0.870655 0.739963 -0.129912
O35   O     O_2   0.201462 0.917346 0.760258 -0.144809
O36   O     O_2   0.914726 0.924481 0.770355 -0.138220
O37   O     O_3   0.086850 0.742410 0.746073 -0.476583
H53   H     H_    0.103926 0.738914 0.782771 0.336946
C63   C     C_3   0.434814 0.688747 0.713207 -0.014928
H54   H     H_    0.332400 0.653363 0.695984 0.081352
H55   H     H_    0.543438 0.628499 0.715632 -0.010601
H56   H     H_    0.404239 0.723092 0.752119 0.104770
S4    S     S_3+6 0.613414 0.837682 0.716839 -0.197192
O38   O     O_2   0.661067 0.914477 0.686312 -0.280353
O39   O     O_2   0.548885 0.895494 0.765327 -0.205808
O40   O     O_3   0.771497 0.746573 0.729222 -0.450581
H57   H     H_    0.753850 0.727332 0.762696 0.353416
C64   C     C_3   0.163192 0.742722 0.251460 -0.057084
H58   H     H_    0.240830 0.666300 0.254559 0.014020
H59   H     H_    0.137375 0.750611 0.210848 0.091976
H60   H     H_    0.225002 0.808381 0.268602 0.170550
C65   C     C_3   0.588520 0.475983 0.231690 -0.389924
H61   H     H_    0.512776 0.426951 0.247114 0.115973
H62   H     H_    0.511265 0.551439 0.226137 0.187517
H63   H     H_    0.627409 0.433721 0.194836 0.116883
S5    S     S_3+6 0.765767 0.024652 0.382320 -0.063216
O41   O     O_2   0.820136 0.936737 0.343024 -0.249823
O42   O     O_2   0.606331 0.076020 0.362679 -0.137293
O43   O     O_3   0.902924 0.105127 0.390818 -0.434281
H64   H     H_    0.918064 0.122074 0.356920 0.358938

loop_
_geom_bond_atom_site_label_1
_geom_bond_atom_site_label_2
_ccdc_geom_bond_type
C25   C46   A    
C56   C60   S    
C53   C54   A    
C38   C39   S    
C12   H38   S    
O26   P2    D    
O15   P7    S    
C17   C18   A    
Ba1   O12   S    
C34   H50   S    
C22   C37   D    
O34   H52   S    
C5    C6    S    
C4    S4    S    
C51   C52   A    
O22   P6    S    
O27   P3    S    
C28   H33   S    
C35   C36   S    
C11   C16   D    
O31   H51   S    
S3    O36   D    
Ba1   O13   S    
C7    H24   S    
C28   C29   A    
O10   P5    D    
O12   P1    S    
S5    O42   D    
O3    P3    S    
C10   C20   A    
Ba2   O13   S    
C54   C55   A    
C60   H6    S    
C34   C45   S    
O1    P1    D    
Ba1   Ba2   S    
C3    O15   S    
C2    H1    S    
C42   C48   A    
Ba1   O26   S    
S2    O34   S    
Ba1   P1    S    
C6    C64   S    
C63   H56   S    
C60   S3    S    
S4    O39   D    
C14   C15   D    
C64   H59   S    
C48   H41   S    
C22   C36   S    
C32   O21   D    
C17   C20   A    
C50   H46   S    
S1    O30   D    
C9    N1    Am   
C7    C8    S    
C45   H2    S    
C23   H48   S    
S4    O40   S    
C10   N1    Am   
C50   C52   A    
C63   H55   S    
C5    H20   S    
C49   H45   S    
C4    H17   S    
S2    O33   D    
Ba1   P2    S    
O17   P8    S    
O28   P3    D    
C34   H49   S    
C25   C42   A    
C45   H3    S    
C13   P8    S    
C17   C41   A    
O25   P6    S    
C31   C32   A    
S3    O37   S    
C19   C43   A    
Ba2   O6    S    
C4    C63   S    
C9    C18   A    
C12   O3    S    
O2    P2    S    
C34   O7    S    
C43   H35   S    
C9    O18   D    
C7    H25   S    
C37   C38   D    
C61   O2    S    
Ba2   O4    S    
S5    O43   S    
C19   H31   S    
C8    H29   S    
C65   H61   S    
C21   H42   S    
C60   H5    S    
C58   C59   A    
S1    O31   S    
C40   C43   A    
O6    P8    S    
O24   P1    S    
C41   C42   A    
C27   C28   A    
Ba1   O27   S    
C57   P7    S    
C38   H40   S    
O40   H57   S    
C26   C30   A    
C64   H60   S    
C37   P1    S    
C1    H18   S    
C59   S5    S    
C15   C16   S    
C62   H12   S    
O5    P4    S    
C33   N2    Am   
C22   H43   S    
Ba1   O1    S    
C18   C19   A    
C3    H16   S    
C12   H28   S    
O13   P2    S    
O9    P5    S    
C27   H34   S    
C56   H4    S    
C63   H54   S    
C20   C44   A    
O8    P7    S    
C61   H7    S    
C8    H27   S    
O4    P4    D    
C14   C21   D    
C11   C65   S    
C11   C13   S    
C56   S2    S    
S2    O32   D    
O16   P8    D    
C29   C33   A    
C49   C57   A    
C40   C41   A    
C39   N2    S    
C33   O19   D    
C1    C2    S    
C2    O25   S    
S4    O38   D    
C24   C40   A    
Ba2   O5    S    
C56   O24   S    
C44   H36   S    
C46   C47   A    
C32   N2    Am   
C51   C55   A    
C65   H63   S    
C29   C30   A    
C5    H21   S    
C53   P2    S    
C16   N1    S    
C47   H39   S    
C50   C53   A    
C15   H30   S    
Ba2   O8    S    
C45   S1    S    
C44   C48   A    
O23   P6    D    
C24   C26   A    
C14   P4    S    
C6    H23   S    
C30   C31   A    
Ba1   O8    S    
C2    H13   S    
O11   P5    S    
C51   H44   S    
S5    O41   D    
C3    C4    S    
O37   H53   S    
C46   H37   S    
C13   C21   S    
C61   H8    S    
Ba2   O14   S    
C62   H11   S    
C6    H22   S    
C58   P5    S    
C12   C23   S    
C35   C39   D    
C1    H9    S    
Ba1   O5    S    
S3    O35   D    
C55   C57   A    
C23   H47   S    
C61   C62   S    
Ba2   O9    S    
C65   H62   S    
C8    H26   S    
O7    P4    S    
C35   H32   S    
C24   C27   A    
C3    H15   S    
C64   H58   S    
C10   O20   D    
C31   C47   A    
O14   P7    D    
C23   H19   S    
C62   H10   S    
C54   C59   A    
O43   H64   S    
C49   C58   A    
C5    O11   S    
S1    O29   D    
C1    H14   S    
Ba2   P4    S    
C36   P6    S    
Ba1   O22   S    
Ba2   O12   S    
C52   P3    S    
C25   C26   A    
C7    O17   S    
