data_mof_unit_49373.cif
_audit_creation_date              2012-12-10T18:01:43-0500
_audit_creation_method            fapswitch 2.2
_symmetry_space_group_name_H-M    P1
_symmetry_Int_Tables_number       1
_space_group_crystal_system       triclinic
_cell_length_a                    10.841811
_cell_length_b                    9.690701
_cell_length_c                    19.351461
_cell_angle_alpha                 90.000033
_cell_angle_beta                  100.853649
_cell_angle_gamma                 89.999987
_cell_volume                      1996.7859951

loop_
_atom_site_label
_atom_site_type_symbol
_atom_type_description
_atom_site_fract_x
_atom_site_fract_y
_atom_site_fract_z
_atom_type_partial_charge
C1    C     C_R   0.262855 0.499784 0.501316 0.846653
C2    C     C_R   0.737145 0.499784 0.498684 0.846637
C3    C     C_R   0.497392 0.501385 0.929642 0.421376
C4    C     C_R   0.502612 0.501385 0.070358 0.421375
C5    C     C_R   0.502408 0.500107 0.367891 0.838715
C6    C     C_R   0.497592 0.500107 0.632109 0.838737
C7    C     C_R   0.064080 0.373331 0.500441 -0.127447
C8    C     C_R   0.935707 0.623630 0.497999 -0.127729
C9    C     C_R   0.935920 0.373331 0.499562 -0.127452
C10   C     C_R   0.064292 0.623630 0.501997 -0.127708
C11   C     C_R   0.871105 0.498827 0.498355 -0.075844
C12   C     C_R   0.128894 0.498827 0.501645 -0.075826
C13   C     C_R   0.413675 0.075629 0.450324 0.308256
C14   C     C_R   0.587509 0.924597 0.548916 0.309690
C15   C     C_R   0.586324 0.075629 0.549675 0.308259
C16   C     C_R   0.412491 0.924597 0.451084 0.309692
C17   C     C_R   0.483563 0.623745 0.253347 -0.137146
C18   C     C_R   0.471526 0.378746 0.742158 -0.129996
C19   C     C_R   0.516437 0.623746 0.746653 -0.137132
C20   C     C_R   0.528478 0.378746 0.257843 -0.130000
C21   C     C_R   0.483627 0.624116 0.181351 -0.138298
C22   C     C_R   0.472350 0.378812 0.814267 -0.127604
C23   C     C_R   0.516374 0.624116 0.818649 -0.138301
C24   C     C_R   0.527655 0.378813 0.185734 -0.127599
C25   C     C_R   0.504738 0.501432 0.146730 0.037436
C26   C     C_R   0.495266 0.501432 0.853270 0.037436
C27   C     C_R   0.504758 0.500767 0.292117 -0.075995
C28   C     C_R   0.495243 0.500767 0.707883 -0.075979
Cu1   Cu    Cu3+1 0.500000 0.640660 0.500000 1.094210
Cu2   Cu    Cu3+1 0.500000 0.359340 0.500000 1.094277
H1    H     H_    0.112089 0.275306 0.500421 0.190964
H2    H     H_    0.887254 0.721361 0.494611 0.209426
H3    H     H_    0.887913 0.275306 0.499584 0.190969
H4    H     H_    0.112743 0.721361 0.505383 0.209425
H5    H     H_    0.466026 0.719711 0.278447 0.204092
H6    H     H_    0.451285 0.283320 0.713220 0.188937
H7    H     H_    0.533972 0.719712 0.721553 0.204090
H8    H     H_    0.548721 0.283321 0.286781 0.188940
H9    H     H_    0.465846 0.720345 0.152770 0.171868
H10   H     H_    0.454190 0.282930 0.839291 0.167482
H11   H     H_    0.534154 0.720345 0.847230 0.171868
H12   H     H_    0.545818 0.282931 0.160710 0.167482
N1    N     N_R   0.500000 0.852070 0.500000 -0.318826
N2    N     N_R   0.500000 0.147930 0.500000 -0.321019
N3    N     N_R   0.501359 0.380857 0.034504 -0.221054
N4    N     N_R   0.498853 0.621897 0.965520 -0.222597
N5    N     N_R   0.498644 0.380857 0.965496 -0.221055
N6    N     N_R   0.501152 0.621897 0.034480 -0.222596
O1    O     O_R   0.319640 0.618740 0.500000 -0.531972
O2    O     O_R   0.680360 0.381260 0.500000 -0.538545
O3    O     O_R   0.680360 0.618740 0.500000 -0.531975
O4    O     O_R   0.319640 0.381260 0.500000 -0.538550
O5    O     O_R   0.499980 0.618820 0.400140 -0.534161
O6    O     O_R   0.500020 0.381180 0.599860 -0.526752
O7    O     O_R   0.500020 0.618820 0.599860 -0.534166
O8    O     O_R   0.499980 0.381180 0.400140 -0.526757
S1    S     S_3+6 0.308197 0.165010 0.377862 0.090019
O9    O     O_2   0.360933 0.137854 0.312678 -0.287872
O10   O     O_2   0.177967 0.106900 0.367706 -0.206977
O11   O     O_3   0.279184 0.334664 0.376922 -0.510160
H13   H     H_    0.232449 0.355238 0.328914 0.357214
S2    S     S_3+6 0.713031 0.836112 0.610546 0.078163
O12   O     O_2   0.833609 0.869922 0.586730 -0.291373
O13   O     O_2   0.718505 0.891792 0.683394 -0.223613
O14   O     O_3   0.719543 0.665512 0.624105 -0.516488
H14   H     H_    0.801860 0.648097 0.655038 0.356999
S3    S     S_3+6 0.691805 0.165010 0.622136 0.090013
O15   O     O_2   0.639075 0.137853 0.687323 -0.287855
O16   O     O_2   0.822035 0.106901 0.632289 -0.207005
O17   O     O_3   0.720815 0.334665 0.623078 -0.510167
H15   H     H_    0.767595 0.355228 0.671077 0.357216
S4    S     S_3+6 0.286971 0.836112 0.389453 0.078160
O18   O     O_2   0.166391 0.869924 0.413265 -0.291352
O19   O     O_2   0.281504 0.891791 0.316605 -0.223640
O20   O     O_3   0.280457 0.665512 0.375895 -0.516498
H16   H     H_    0.198166 0.648104 0.344936 0.357003

loop_
_geom_bond_atom_site_label_1
_geom_bond_atom_site_label_2
_ccdc_geom_bond_type
C24   H12   S    
C5    O8    A    
C16   S4    S    
C6    O7    A    
C4    C25   S    
Cu1   O1    S    
Cu2   O6    S    
S2    O12   D    
C5    O5    A    
C15   N2    A    
C4    N6    A    
S1    O10   D    
C13   S1    S    
C14   S2    S    
C23   C26   A    
Cu2   O4    S    
C19   H7    S    
C5    C27   S    
C6    C28   S    
C20   C24   A    
C1    O1    A    
S2    O13   D    
O17   H15   S    
C2    O2    A    
Cu2   O2    S    
C22   H10   S    
Cu1   N1    S    
C9    H3    S    
Cu2   N2    S    
C1    C12   S    
C6    O6    A    
S4    O20   S    
C2    C11   S    
C4    N3    A    
N3    N5    A    
C7    C12   A    
N4    N6    A    
C7    H1    S    
S3    O15   D    
C8    H2    S    
C18   C28   A    
C24   C25   A    
S4    O19   D    
S1    O11   S    
Cu1   O7    S    
Cu2   O8    S    
C17   C21   A    
O11   H13   S    
S3    O16   D    
C17   C27   A    
C19   C23   A    
O20   H16   S    
Cu1   Cu2   S    
C20   H8    S    
C21   H9    S    
C15   S3    S    
C10   H4    S    
C19   C28   A    
C9    C11   A    
C16   N1    A    
C10   C12   A    
Cu1   O3    S    
C7    C9    A    
C21   C25   A    
S2    O14   S    
C18   C22   A    
C3    C26   S    
S4    O18   D    
C20   C27   A    
C3    N4    A    
C23   H11   S    
S3    O17   S    
S1    O9    D    
Cu1   O5    S    
C8    C11   A    
C3    N5    A    
C1    O4    A    
C2    O3    A    
C8    C10   A    
O14   H14   S    
C22   C26   A    
C13   C16   A    
C14   C15   A    
C17   H5    S    
C18   H6    S    
C13   N2    A    
C14   N1    A    
