data_mof_unit_43818.cif
_audit_creation_date              2012-12-11T14:28:19-0500
_audit_creation_method            fapswitch 2.2
_symmetry_space_group_name_H-M    P1
_symmetry_Int_Tables_number       1
_space_group_crystal_system       triclinic
_cell_length_a                    11.048396
_cell_length_b                    19.323457
_cell_length_c                    18.512686
_cell_angle_alpha                 89.385927
_cell_angle_beta                  89.590736
_cell_angle_gamma                 89.894273
_cell_volume                      3951.9986684

loop_
_atom_site_label
_atom_site_type_symbol
_atom_type_description
_atom_site_fract_x
_atom_site_fract_y
_atom_site_fract_z
_atom_type_partial_charge
C1    C     C_R   0.321591 0.970231 0.646986 0.568864
C2    C     C_3   0.178977 0.708060 0.028748 -0.104635
C3    C     C_3   0.152039 0.176974 0.955597 -0.141906
C4    C     C_3   0.511235 0.297500 0.478152 -0.113693
C5    C     C_3   0.707921 0.270051 0.049273 -0.148746
C6    C     C_3   0.682130 0.728032 0.535860 -0.152453
C7    C     C_3   0.530392 0.693282 0.978270 -0.116229
C8    C     C_3   0.175705 0.793155 0.509880 -0.114581
C9    C     C_3   0.202639 0.776219 0.987254 -0.111161
C10   C     C_3   0.193366 0.261650 0.481572 -0.136881
C11   C     C_3   0.248348 0.218064 0.997365 -0.165904
C12   C     C_3   0.641092 0.291013 0.507162 -0.124714
C13   C     C_3   0.117024 0.315792 0.520433 -0.109368
C14   C     C_3   0.712034 0.212405 0.991855 -0.115838
C15   C     C_3   0.680344 0.790186 0.483223 -0.098116
C16   C     C_3   0.661810 0.679883 0.003542 -0.141022
C17   C     C_3   0.102408 0.753561 0.567886 0.063147
C18   C     C_3   0.106159 0.754801 0.932279 0.067593
C19   C     C_3   0.089191 0.250674 0.428785 0.051014
C20   C     C_3   0.159923 0.228438 0.059938 0.030947
C21   C     C_3   0.591221 0.248517 0.571165 0.063779
C22   C     C_3   0.653553 0.263045 0.938091 0.050646
C23   C     C_3   0.601739 0.748063 0.431509 0.064078
C24   C     C_3   0.201673 0.285827 0.962671 -0.090798
C25   C     C_3   0.644967 0.735481 0.061048 0.057868
C26   C     C_3   0.983551 0.772484 0.531376 -0.135927
C27   C     C_3   0.007570 0.792971 0.974364 -0.115040
C28   C     C_3   0.039504 0.192611 0.476297 -0.108699
C29   C     C_3   0.065111 0.184933 0.021398 -0.118522
C30   C     C_3   0.462507 0.255215 0.543973 -0.139099
C31   C     C_3   0.649326 0.320393 0.993802 -0.135959
C32   C     C_3   0.604299 0.685936 0.483112 -0.122945
C33   C     C_3   0.514410 0.748413 0.037445 -0.106202
C34   C     C_3   0.993957 0.704669 0.488030 -0.104173
C35   C     C_3   0.659976 0.222961 0.465558 -0.128383
C36   C     C_3   0.984022 0.724671 0.015719 -0.141984
C37   C     C_3   0.961788 0.247029 0.515806 -0.134655
C38   C     C_3   0.016749 0.251829 0.988427 -0.082309
C39   C     C_3   0.480878 0.187023 0.501728 -0.133779
C40   C     C_3   0.521833 0.295418 0.016379 -0.113502
C41   C     C_3   0.486609 0.713528 0.518256 -0.126496
C42   C     C_3   0.562142 0.804749 0.985442 -0.094750
C43   C     C_3   0.113641 0.686240 0.525543 -0.107500
C44   C     C_3   0.083593 0.687187 0.972546 -0.131469
C45   C     C_3   0.012449 0.305195 0.466746 -0.125717
C46   C     C_3   0.585095 0.188076 0.014172 -0.095847
C47   C     C_3   0.113211 0.295042 0.026726 -0.056147
C48   C     C_3   0.610918 0.180687 0.530275 -0.099823
C49   C     C_3   0.527918 0.238260 0.959035 -0.114926
C50   C     C_3   0.485387 0.775247 0.464942 -0.146216
C51   C     C_3   0.693305 0.791513 0.009593 -0.106636
C52   C     C_3   0.562269 0.817066 0.517521 -0.096831
C53   C     C_3   0.709480 0.736411 0.950735 -0.149867
C54   C     C_3   0.067715 0.743847 0.429936 0.062474
C55   C     C_3   0.079433 0.745552 0.071359 0.049936
C56   C     C_3   0.067141 0.257703 0.568359 0.063601
C57   C     C_R   0.319760 0.968852 0.853860 0.574061
C58   C     C_3   0.103046 0.244624 0.923394 0.065185
C59   C     C_3   0.530639 0.229223 0.437586 0.051157
C60   C     C_3   0.581183 0.245908 0.070729 0.051234
C61   C     C_3   0.565942 0.755389 0.569551 0.055626
C62   C     C_3   0.579760 0.749822 0.927190 0.050070
C63   C     C_R   0.319927 0.996615 0.426119 -0.000387
C64   C     C_R   0.317946 0.992286 0.078084 0.008623
C65   C     C_R   0.333614 0.007453 0.576954 -0.007469
C66   C     C_R   0.324601 0.999946 0.926529 -0.005545
C67   C     C_R   0.821054 0.498781 0.427445 -0.004657
C68   C     C_R   0.318571 0.030719 0.353975 0.593688
C69   C     C_R   0.829593 0.505385 0.074596 -0.027284
C70   C     C_R   0.833978 0.509827 0.578382 0.002044
C71   C     C_R   0.822505 0.497769 0.924921 -0.038871
C72   C     C_R   0.532776 0.961853 0.421066 0.257187
C73   C     C_R   0.531113 0.959202 0.079361 0.251547
C74   C     C_R   0.557811 0.001632 0.566442 0.245745
C75   C     C_R   0.549844 0.001298 0.933660 0.260009
C76   C     C_R   0.037136 0.468774 0.422744 0.245522
C77   C     C_R   0.059286 0.519119 0.055992 0.226910
C78   C     C_R   0.057524 0.507335 0.568704 0.239948
C79   C     C_R   0.318683 0.029774 0.147441 0.590791
C80   C     C_R   0.011902 0.437435 0.945525 0.298959
C81   C     C_R   0.644122 0.956320 0.455575 -0.161958
C82   C     C_R   0.640974 0.954196 0.042288 -0.169676
C83   C     C_R   0.657165 0.976629 0.526888 -0.188593
C84   C     C_R   0.650958 0.975837 0.970803 -0.156537
C85   C     C_R   0.148204 0.465558 0.457651 -0.134079
C86   C     C_R   0.154916 0.495967 0.014128 -0.139715
C87   C     C_R   0.159111 0.486907 0.528685 -0.166402
C88   C     C_R   0.131954 0.448861 0.960592 -0.107818
C89   C     C_R   0.441329 0.999696 0.535216 -0.010691
C90   C     C_R   0.821610 0.470630 0.647336 0.566643
C91   C     C_R   0.434059 0.995829 0.966541 -0.017013
C92   C     C_R   0.431763 0.986859 0.460134 -0.014594
C93   C     C_R   0.427916 0.982888 0.041866 -0.017456
C94   C     C_R   0.941887 0.503289 0.536954 0.003633
C95   C     C_R   0.928941 0.487545 0.963534 -0.044216
C96   C     C_R   0.933641 0.491055 0.461660 -0.012108
C97   C     C_R   0.938172 0.506464 0.033629 -0.050541
C98   C     C_R   0.223831 0.019752 0.541628 -0.056411
C99   C     C_R   0.212055 0.005357 0.963917 -0.034049
C100  C     C_R   0.213329 0.001961 0.469253 -0.040763
C101  C     C_R   0.818539 0.469447 0.852374 0.532129
C102  C     C_R   0.207868 0.992817 0.038225 -0.040935
C103  C     C_R   0.724845 0.522920 0.542952 -0.050814
C104  C     C_R   0.714918 0.507969 0.964769 -0.045278
C105  C     C_R   0.714244 0.504001 0.470691 -0.052805
C106  C     C_R   0.719344 0.493219 0.038495 -0.047710
C107  C     C_R   0.121640 0.044617 0.579290 -0.047544
C108  C     C_R   0.102474 0.023565 0.928519 -0.087708
C109  C     C_R   0.095931 0.994922 0.440969 -0.065599
C110  C     C_R   0.092433 0.987429 0.071999 -0.070927
C111  C     C_R   0.622505 0.546785 0.581270 -0.071658
C112  C     C_R   0.818684 0.531185 0.354415 0.591198
C113  C     C_R   0.601752 0.520438 0.933308 -0.087773
C114  C     C_R   0.596568 0.495760 0.442870 -0.092095
C115  C     C_R   0.614314 0.468541 0.073451 -0.053226
C116  C     C_R   0.008402 0.047152 0.547589 0.121011
C117  C     C_R   0.993534 0.030859 0.965757 0.100642
C118  C     C_R   0.994619 0.021531 0.476742 0.089974
C119  C     C_R   0.988383 0.012797 0.039178 0.134136
C120  C     C_R   0.507279 0.544184 0.551460 0.145363
C121  C     C_R   0.496219 0.498659 0.968408 0.108987
C122  C     C_R   0.494873 0.520873 0.480105 0.120970
C123  C     C_R   0.820984 0.532772 0.146350 0.537203
C124  C     C_R   0.503275 0.470560 0.039201 0.137764
C125  C     C_R   0.135707 0.758639 0.643167 0.554990
C126  C     C_R   0.134999 0.758337 0.856546 0.544454
C127  C     C_R   0.130216 0.242967 0.354664 0.556663
C128  C     C_R   0.187759 0.227267 0.137181 0.555986
C129  C     C_R   0.635404 0.258265 0.643584 0.562278
C130  C     C_R   0.686383 0.271429 0.862818 0.560564
C131  C     C_R   0.634148 0.742032 0.356193 0.567733
C132  C     C_R   0.681820 0.729352 0.136231 0.557419
C133  C     C_R   0.541335 0.769810 0.644717 0.534139
C134  C     C_3   0.186246 0.725308 0.466762 -0.141311
C135  C     C_R   0.541758 0.769217 0.854997 0.535817
C136  C     C_R   0.500115 0.213690 0.363100 0.549739
C137  C     C_R   0.540666 0.229493 0.143787 0.544981
C138  C     C_R   0.041665 0.270181 0.644320 0.536439
C139  C     C_R   0.050304 0.266499 0.852131 0.566592
C140  C     C_R   0.041713 0.730158 0.355041 0.543261
C141  C     C_R   0.045869 0.731472 0.146152 0.527630
C142  C     C_3   0.055764 0.811502 0.471717 -0.116497
C143  C     C_3   0.102811 0.813383 0.031146 -0.117287
C144  C     C_3   0.144123 0.203508 0.530261 -0.124078
Cr1   Cr    Cr6+3 0.488160 0.884660 0.750000 1.061040
Cr2   Cr    Cr6+3 0.333410 0.272740 0.250000 1.013491
Cr3   Cr    Cr6+3 0.833410 0.227260 0.750000 1.022350
Cr4   Cr    Cr6+3 0.833410 0.772740 0.250000 0.987417
Cr5   Cr    Cr6+3 0.488160 0.115340 0.250000 1.060377
Cr6   Cr    Cr6+3 0.988160 0.384660 0.750000 1.055213
Cr7   Cr    Cr6+3 0.988160 0.615340 0.250000 1.077630
Cr8   Cr    Cr6+3 0.173480 0.883120 0.750000 1.011164
Cr9   Cr    Cr6+3 0.173480 0.116880 0.250000 1.028536
Cr10  Cr    Cr6+3 0.673480 0.383120 0.750000 1.015198
Cr11  Cr    Cr6+3 0.673480 0.616880 0.250000 1.011082
Cr12  Cr    Cr6+3 0.333410 0.727260 0.750000 1.000929
H1    H     H_    0.249621 0.830197 0.521527 0.116233
H2    H     H_    0.114736 0.861326 0.060986 0.114085
H3    H     H_    0.205534 0.166767 0.557816 0.109125
H4    H     H_    0.186991 0.138021 0.918323 0.114953
H5    H     H_    0.470293 0.345411 0.455309 0.128910
H6    H     H_    0.780243 0.283426 0.088022 0.122959
H7    H     H_    0.758082 0.706378 0.567774 0.105862
H8    H     H_    0.462869 0.653550 0.963665 0.124441
H9    H     H_    0.905274 0.793573 0.561751 0.111824
H10   H     H_    0.939767 0.827820 0.949065 0.114134
H11   H     H_    0.003974 0.147566 0.448429 0.181815
H12   H     H_    0.291933 0.798575 0.972361 0.110230
H13   H     H_    0.005550 0.147280 0.049085 0.180332
H14   H     H_    0.384898 0.268801 0.579517 0.118801
H15   H     H_    0.678106 0.372832 0.978463 0.127307
H16   H     H_    0.626379 0.634553 0.461860 0.148433
H17   H     H_    0.436341 0.753983 0.075007 0.129750
H18   H     H_    0.919571 0.667782 0.476813 0.114507
H19   H     H_    0.897193 0.700916 0.032082 0.093992
H20   H     H_    0.867784 0.240393 0.535110 0.125429
H21   H     H_    0.920594 0.264323 0.985937 0.123758
H22   H     H_    0.414124 0.144495 0.497368 0.110173
H23   H     H_    0.285128 0.270062 0.460527 0.133635
H24   H     H_    0.438915 0.324752 0.027638 0.147543
H25   H     H_    0.404375 0.685858 0.535366 0.127805
H26   H     H_    0.514922 0.854250 0.974786 0.128990
H27   H     H_    0.139053 0.635692 0.549173 0.156982
H28   H     H_    0.073937 0.636089 0.946352 0.128806
H29   H     H_    0.951787 0.342770 0.439760 0.154962
H30   H     H_    0.094209 0.342948 0.057361 0.157075
H31   H     H_    0.653528 0.133291 0.552511 0.156191
H32   H     H_    0.459641 0.225837 0.917415 0.136952
H33   H     H_    0.409322 0.796549 0.432864 0.127586
H34   H     H_    0.336408 0.195209 0.010915 0.105588
H35   H     H_    0.763812 0.829388 0.023784 0.117701
H36   H     H_    0.265428 0.704750 0.436778 0.111876
H37   H     H_    0.250202 0.674166 0.052130 0.149378
H38   H     H_    0.159819 0.360662 0.545203 0.142472
H39   H     H_    0.268384 0.320791 0.936680 0.105517
H40   H     H_    0.740223 0.209464 0.432064 0.137323
H41   H     H_    0.557400 0.133480 0.023551 0.137200
H42   H     H_    0.532082 0.867222 0.538095 0.145988
H43   H     H_    0.786660 0.730751 0.912544 0.113493
H44   H     H_    0.718846 0.931792 0.428335 0.104476
H45   H     H_    0.706999 0.334135 0.511172 0.116489
H46   H     H_    0.718295 0.931809 0.068646 0.107091
H47   H     H_    0.743518 0.968526 0.552151 0.108156
H48   H     H_    0.736829 0.970276 0.943775 0.140064
H49   H     H_    0.224970 0.442008 0.430978 0.141582
H50   H     H_    0.242157 0.518351 0.021999 0.184858
H51   H     H_    0.245298 0.480763 0.554646 0.169636
H52   H     H_    0.202728 0.423097 0.931690 0.149170
H53   H     H_    0.082443 0.972647 0.388225 0.143207
H54   H     H_    0.083064 0.967483 0.126673 0.144009
H55   H     H_    0.131081 0.065011 0.633334 0.146034
H56   H     H_    0.787278 0.176245 0.980913 0.141077
H57   H     H_    0.102741 0.042273 0.873164 0.135101
H58   H     H_    0.583270 0.472568 0.390578 0.143068
H59   H     H_    0.618756 0.445806 0.127164 0.160296
H60   H     H_    0.632207 0.565860 0.635803 0.127369
H61   H     H_    0.594985 0.542089 0.879257 0.141191
H62   H     H_    0.852685 0.042728 0.605637 0.211518
H63   H     H_    0.869018 0.116659 0.555420 0.233428
H64   H     H_    0.876459 0.034374 0.882954 0.212916
H65   H     H_    0.919959 0.111799 0.912466 0.241956
H66   H     H_    0.817190 0.052680 0.463914 0.237771
H67   H     H_    0.760470 0.821394 0.467413 0.126593
H68   H     H_    0.870206 0.995293 0.401876 0.222145
H69   H     H_    0.814932 0.049475 0.055081 0.268584
H70   H     H_    0.863535 0.989412 0.116482 0.210968
H71   H     H_    0.338311 0.585435 0.564997 0.228205
H72   H     H_    0.428788 0.595831 0.635478 0.234897
H73   H     H_    0.398689 0.469172 0.882627 0.235037
H74   H     H_    0.369250 0.550180 0.911459 0.227221
H75   H     H_    0.390143 0.512023 0.389867 0.218705
H76   H     H_    0.370332 0.584503 0.436695 0.229315
H77   H     H_    0.361618 0.483256 0.107633 0.245346
H78   H     H_    0.707798 0.630792 0.016203 0.123486
H79   H     H_    0.340834 0.420393 0.043522 0.240347
H80   H     H_    0.597131 0.920746 0.332857 0.333754
H81   H     H_    0.600616 0.920684 0.167687 0.336422
H82   H     H_    0.658427 0.024246 0.648870 0.312763
H83   H     H_    0.649624 0.034341 0.853282 0.325435
H84   H     H_    0.105728 0.428717 0.334987 0.332478
H85   H     H_    0.026025 0.607244 0.078497 0.337281
H86   H     H_    0.156771 0.533892 0.650534 0.325873
H87   H     H_    0.881433 0.369778 0.942122 0.294112
H88   H     H_    0.029760 0.861558 0.446810 0.111062
N1    N     N_3   0.913307 0.080092 0.587456 -0.628692
N2    N     N_3   0.893099 0.062498 0.929776 -0.670289
N3    N     N_3   0.891625 0.038063 0.433062 -0.658381
N4    N     N_3   0.888853 0.032148 0.084980 -0.632609
N5    N     N_3   0.404000 0.560498 0.595864 -0.647162
N6    N     N_3   0.386323 0.499394 0.928647 -0.690985
N7    N     N_3   0.383612 0.531150 0.442394 -0.655411
N8    N     N_3   0.401942 0.443272 0.078484 -0.640096
O1    O     O_R   0.575450 0.828820 0.667950 -0.522026
O2    O     O_R   0.416860 0.942890 0.825320 -0.441352
O3    O     O_R   0.416860 0.057110 0.325320 -0.459274
O4    O     O_R   0.416860 0.057110 0.174680 -0.455564
O5    O     O_R   0.916860 0.442890 0.674680 -0.444659
O6    O     O_R   0.916860 0.442890 0.825320 -0.459030
O7    O     O_R   0.916860 0.557110 0.325320 -0.441633
O8    O     O_R   0.916860 0.557110 0.174680 -0.456003
O9    O     O_R   0.213790 0.953680 0.668330 -0.535393
O10   O     O_R   0.213790 0.953680 0.831670 -0.544796
O11   O     O_R   0.213790 0.046320 0.331670 -0.537481
O12   O     O_R   0.575450 0.828820 0.832050 -0.519791
O13   O     O_R   0.213790 0.046320 0.168330 -0.544572
O14   O     O_R   0.713790 0.453680 0.668330 -0.528401
O15   O     O_R   0.713790 0.453680 0.831670 -0.546064
O16   O     O_R   0.713790 0.546320 0.331670 -0.548458
O17   O     O_R   0.713790 0.546320 0.168330 -0.539877
O18   O     O_R   0.121360 0.817890 0.672660 -0.506296
O19   O     O_R   0.121360 0.817890 0.827340 -0.507879
O20   O     O_R   0.121360 0.182110 0.327340 -0.499483
O21   O     O_R   0.121360 0.182110 0.172660 -0.494043
O22   O     O_R   0.621360 0.317890 0.672660 -0.499813
O23   O     O_R   0.575450 0.171180 0.332050 -0.507271
O24   O     O_R   0.621360 0.317890 0.827340 -0.505507
O25   O     O_R   0.621360 0.682110 0.327340 -0.508129
O26   O     O_R   0.621360 0.682110 0.172660 -0.495472
O27   O     O_R   0.206850 0.711370 0.665820 -0.523042
O28   O     O_R   0.206850 0.711370 0.834180 -0.521501
O29   O     O_R   0.206850 0.288630 0.334180 -0.535349
O30   O     O_R   0.206850 0.288630 0.165820 -0.515254
O31   O     O_R   0.706850 0.211370 0.665820 -0.511367
O32   O     O_R   0.706850 0.211370 0.834180 -0.499273
O33   O     O_R   0.706850 0.788630 0.334180 -0.533219
O34   O     O_R   0.575450 0.171180 0.167950 -0.512547
O35   O     O_R   0.706850 0.788630 0.165820 -0.525868
O36   O     O_R   0.457710 0.733190 0.672630 -0.526007
O37   O     O_R   0.457710 0.733190 0.827370 -0.517547
O38   O     O_R   0.457710 0.266810 0.327370 -0.512724
O39   O     O_R   0.457710 0.266810 0.172630 -0.511064
O40   O     O_R   0.957710 0.233190 0.672630 -0.498485
O41   O     O_R   0.957710 0.233190 0.827370 -0.540034
O42   O     O_R   0.957710 0.766810 0.327370 -0.518778
O43   O     O_R   0.957710 0.766810 0.172630 -0.530798
O44   O     O_3   0.331690 0.831680 0.750000 -0.278440
O45   O     O_R   0.075450 0.328820 0.667950 -0.530764
O46   O     O_3   0.331690 0.168320 0.250000 -0.323070
O47   O     O_3   0.831690 0.331680 0.750000 -0.292739
O48   O     O_3   0.831690 0.668320 0.250000 -0.297676
O49   O     O_3   0.517655 0.935843 0.352367 -0.675308
O50   O     O_3   0.519845 0.934680 0.149571 -0.666713
O51   O     O_3   0.572897 0.029662 0.634170 -0.671060
O52   O     O_3   0.562823 0.034002 0.867279 -0.660773
O53   O     O_3   0.025020 0.442188 0.354025 -0.695213
O54   O     O_3   0.087287 0.573621 0.095233 -0.654129
O55   O     O_3   0.069986 0.534161 0.637212 -0.689052
O56   O     O_R   0.075450 0.328820 0.832050 -0.463341
O57   O     O_3   0.969908 0.372810 0.933268 -0.691023
O58   O     O_R   0.075450 0.671180 0.332050 -0.512351
O59   O     O_R   0.075450 0.671180 0.167950 -0.478275
O60   O     O_R   0.416860 0.942890 0.674680 -0.441428

loop_
_geom_bond_atom_site_label_1
_geom_bond_atom_site_label_2
_ccdc_geom_bond_type
Cr8   O9    S    
C6    C32   S    
C71   C104  A    
C73   C82   A    
C73   C93   A    
C74   C83   A    
H80   O49   S    
C9    C143  S    
C61   C133  S    
H82   O51   S    
Cr5   O4    S    
C65   C89   A    
Cr8   O44   S    
Cr11  O26   S    
C2    C55   S    
C117  C119  A    
C112  O7    A    
C86   C88   A    
C71   C95   A    
C69   C123  S    
Cr5   O46   S    
C54   C134  S    
C57   O2    A    
C129  O31   A    
C40   H24   S    
C37   C56   S    
C50   C52   S    
C28   C144  S    
C41   C61   S    
C4    C12   S    
C112  O16   A    
C108  H57   S    
C21   C48   S    
C84   H48   S    
C32   H16   S    
C100  C109  A    
C22   C130  S    
C7    C33   S    
C129  O22   A    
C88   H52   S    
C109  H53   S    
C8    H1    S    
C109  C118  A    
C11   C20   S    
Cr12  O27   S    
C133  O1    A    
C131  O33   A    
C70   C103  A    
C67   C105  A    
C24   H39   S    
Cr11  O48   S    
C2    C9    S    
C17   C43   S    
C7    C62   S    
C34   H18   S    
C18   C44   S    
H66   N3    S    
H68   N3    S    
C77   O54   S    
Cr1   O12   S    
C115  H59   S    
C74   O51   S    
C47   H30   S    
C94   C96   A    
C135  O37   A    
Cr2   O29   S    
C35   H40   S    
C22   C49   S    
Cr4   O48   S    
C34   C54   S    
C82   C84   A    
C13   H38   S    
C27   C36   S    
C64   C79   S    
Cr1   O2    S    
C36   C44   S    
C52   H42   S    
C37   C45   S    
C39   H22   S    
H72   N5    S    
C21   C30   S    
C16   C25   S    
C46   C60   S    
C95   C97   A    
C132  O26   A    
C8    C17   S    
C106  C115  A    
C52   C61   S    
C2    H37   S    
C11   H34   S    
C28   C37   S    
C80   C88   A    
C36   C55   S    
C5    H6    S    
C13   C45   S    
Cr3   O32   S    
C45   H29   S    
C49   H32   S    
C78   C94   A    
C142  H88   S    
C43   H27   S    
C116  C118  A    
C128  O21   A    
C20   C47   S    
C3    C11   S    
C67   C112  S    
C6    H7    S    
C36   H19   S    
C4    H5    S    
Cr9   O21   S    
C29   H13   S    
C76   C85   A    
C76   C96   A    
H77   N8    S    
C78   C87   A    
Cr7   O59   S    
C40   C60   S    
C114  H58   S    
C128  O30   A    
C57   C66   S    
H75   N7    S    
C81   H44   S    
Cr7   O7    S    
C117  N2    S    
C64   C102  A    
C99   C108  A    
C10   H23   S    
C6    C61   S    
C35   C59   S    
C75   C84   A    
C78   O55   S    
C59   C136  S    
C3    C29   S    
C50   H33   S    
C2    C44   S    
C29   C38   S    
C1    C65   S    
C32   C41   S    
C77   C97   A    
C42   C62   S    
C75   C91   A    
H71   N5    S    
C13   C56   S    
C135  O12   A    
C38   H21   S    
H79   N8    S    
C81   C83   A    
Cr2   O46   S    
C55   C143  S    
C8    C134  S    
C53   H43   S    
H62   N1    S    
Cr10  O15   S    
C139  O56   A    
C51   C53   S    
C62   C135  S    
Cr2   O39   S    
C27   C143  S    
C6    C15   S    
C133  O36   A    
C23   C131  S    
C103  C105  A    
C10   C144  S    
C12   C35   S    
Cr10  O24   S    
C19   C28   S    
C21   C129  S    
C24   C58   S    
C1    O60   A    
Cr3   O47   S    
C136  O23   A    
C130  O24   A    
C51   H35   S    
C143  H2    S    
Cr8   O10   S    
Cr4   O43   S    
C63   C68   S    
C5    C60   S    
C108  C117  A    
C9    H12   S    
C34   C43   S    
Cr11  O16   S    
C110  C119  A    
C77   C86   A    
C19   C45   S    
H70   N4    S    
C80   C95   A    
Cr5   O3    S    
Cr6   O47   S    
C125  O18   A    
C14   C22   S    
Cr11  O25   S    
C136  O38   A    
C18   C126  S    
C68   O3    A    
C121  N6    S    
C3    H4    S    
C31   H15   S    
C137  O34   A    
C30   C39   S    
Cr9   O11   S    
C107  C116  A    
C104  C113  A    
C9    C18   S    
C113  C121  A    
Cr6   O56   S    
C39   C48   S    
C25   C132  S    
C25   C33   S    
C69   C97   A    
Cr9   O46   S    
C26   H9    S    
C55   C141  S    
Cr5   O34   S    
C41   H25   S    
C104  C106  A    
C14   C46   S    
C42   H26   S    
C138  O45   A    
C46   C49   S    
C70   C94   A    
C65   C98   A    
Cr12  O28   S    
Cr6   O5    S    
C72   C92   A    
C132  O35   A    
C107  H55   S    
H65   N2    S    
Cr8   O19   S    
C31   C40   S    
C103  C111  A    
Cr10  O22   S    
C30   H14   S    
C138  O40   A    
C38   C58   S    
C140  O58   A    
C141  O59   A    
C125  O27   A    
C79   O4    A    
C72   C81   A    
Cr2   O30   S    
C123  O17   A    
H69   N4    S    
H85   O54   S    
C71   C101  S    
Cr1   O1    S    
C110  H54   S    
C35   C48   S    
Cr3   O40   S    
C57   O10   A    
Cr6   O45   S    
C85   H49   S    
C126  O19   A    
C120  N5    S    
C48   H31   S    
C83   H47   S    
C118  N3    S    
C23   C50   S    
C98   C107  A    
C43   C134  S    
Cr9   O13   S    
C91   C93   A    
Cr3   O31   S    
C16   H78   S    
C10   C19   S    
C39   C59   S    
C101  O6    A    
H76   N7    S    
C15   C52   S    
C111  H60   S    
C144  H3    S    
C5    C14   S    
C7    C16   S    
C54   C142  S    
C98   C100  A    
Cr4   O33   S    
C102  C110  A    
Cr9   O20   S    
C33   C42   S    
C41   C50   S    
C82   H46   S    
C76   O53   S    
C115  C124  A    
Cr7   O48   S    
C46   H41   S    
Cr1   O44   S    
C69   C106  A    
C123  O8    A    
Cr4   O42   S    
C7    H8    S    
C14   H56   S    
C23   C32   S    
C80   O57   S    
C37   H20   S    
H87   O57   S    
C15   H67   S    
C131  O25   A    
C27   H10   S    
C56   C144  S    
C3    C58   S    
C99   C102  A    
C124  N8    S    
H86   O55   S    
C8    C142  S    
C75   O52   S    
C90   O5    A    
C40   C49   S    
H84   O53   S    
C58   C139  S    
Cr1   O60   S    
C86   H50   S    
C17   C26   S    
Cr5   O23   S    
C74   C89   A    
C90   O14   A    
C64   C93   A    
C20   C128  S    
C140  O42   A    
C141  O43   A    
C11   C24   S    
C134  H36   S    
C137  O39   A    
C16   C53   S    
C121  C124  A    
C130  O32   A    
C28   H11   S    
C122  N7    S    
C26   C34   S    
C54   C140  S    
Cr8   O18   S    
Cr4   O35   S    
C63   C92   A    
H63   N1    S    
C33   H17   S    
C44   H28   S    
H73   N6    S    
C60   C137  S    
C15   C23   S    
C101  O15   A    
C70   C90   S    
C113  H61   S    
Cr11  O17   S    
C120  C122  A    
Cr7   O8    S    
C20   C29   S    
C85   C87   A    
C22   C31   S    
Cr12  O44   S    
C105  C114  A    
C139  O41   A    
H81   O50   S    
Cr3   O41   S    
C126  O28   A    
C12   C21   S    
C111  C120  A    
C66   C99   A    
C119  N4    S    
C25   C51   S    
C63   C100  A    
C56   C138  S    
C53   C62   S    
C12   H45   S    
C89   C92   A    
C87   H51   S    
C38   C47   S    
C1    O9    A    
Cr10  O47   S    
C127  O20   A    
C67   C96   A    
Cr12  O36   S    
H64   N2    S    
C24   C47   S    
C18   C27   S    
Cr10  O14   S    
C10   C13   S    
C66   C91   A    
C42   C51   S    
C127  O29   A    
H74   N6    S    
C72   O49   S    
Cr6   O6    S    
Cr2   O38   S    
C17   C125  S    
C4    C59   S    
C19   C127  S    
C79   O13   A    
Cr12  O37   S    
H83   O52   S    
C114  C122  A    
C116  N1    S    
Cr7   O58   S    
C73   O50   S    
C26   C142  S    
C68   O11   A    
C4    C30   S    
C5    C31   S    
