data_mof_unit_53608.cif
_audit_creation_date              2012-12-11T15:55:00-0500
_audit_creation_method            fapswitch 2.2
_symmetry_space_group_name_H-M    P1
_symmetry_Int_Tables_number       1
_space_group_crystal_system       triclinic
_cell_length_a                    17.75799
_cell_length_b                    24.416669
_cell_length_c                    15.160068
_cell_angle_alpha                 90.273596
_cell_angle_beta                  126.502765
_cell_angle_gamma                 89.833065
_cell_volume                      5283.7180232

loop_
_atom_site_label
_atom_site_type_symbol
_atom_type_description
_atom_site_fract_x
_atom_site_fract_y
_atom_site_fract_z
_atom_type_partial_charge
C1    C     C_R   0.953012 0.844993 0.088096 0.550454
C2    C     C_R   0.157586 0.851180 0.091433 0.470456
C3    C     C_R   0.393601 0.687601 0.998966 -0.241921
C4    C     C_R   0.695799 0.999486 0.632595 -0.272704
C5    C     C_R   0.197295 0.499464 0.630869 -0.266429
C6    C     C_R   0.960711 0.001481 0.285630 -0.139893
C7    C     C_R   0.540546 0.500407 0.353512 -0.228065
C8    C     C_R   0.266835 0.953488 0.247657 -0.131286
C9    C     C_R   0.268391 0.044935 0.249797 -0.182067
C10   C     C_R   0.766879 0.453517 0.247037 -0.094137
C11   C     C_R   0.768327 0.544950 0.248962 -0.192995
C12   C     C_R   0.939156 0.045584 0.692118 0.425747
C13   C     C_R   0.671095 0.641990 0.091422 0.488380
C14   C     C_R   0.942401 0.955140 0.691717 0.345153
C15   C     C_R   0.445521 0.544302 0.693188 0.328563
C16   C     C_R   0.444414 0.454017 0.694082 0.470221
C17   C     C_R   0.656162 0.350563 0.091166 0.489322
C18   C     C_R   0.322944 0.998797 0.274183 0.214504
C19   C     C_R   0.823025 0.498845 0.273014 0.201379
C20   C     C_R   0.921995 0.000766 0.626659 0.261116
C21   C     C_R   0.432461 0.498399 0.631349 0.282534
C22   C     C_R   0.141529 0.824914 0.000457 0.134247
C23   C     C_R   0.166851 0.157357 0.999526 0.171846
C24   C     C_R   0.639322 0.323735 0.000019 0.100311
C25   C     C_R   0.953719 0.155023 0.088971 0.576778
C26   C     C_R   0.665450 0.659201 0.000767 0.180710
C27   C     C_3   0.933733 0.062233 0.399957 1.203497
C28   C     C_3   0.854535 0.970241 0.334757 1.061279
C29   C     C_3   0.411243 0.523466 0.367029 1.006680
C30   C     C_3   0.508302 0.438032 0.459013 1.196152
C31   C     C_3   0.915387 0.061915 0.487162 0.824437
C32   C     C_3   0.849757 0.964189 0.433478 0.874568
C33   C     C_3   0.384096 0.527914 0.446665 0.903412
C34   C     C_3   0.470718 0.436790 0.527761 0.812409
C35   C     C_3   0.035883 0.976579 0.481477 0.887737
C36   C     C_R   0.449532 0.345696 0.088263 0.459817
C37   C     C_3   0.586068 0.531260 0.537560 0.946825
C38   C     C_3   0.945935 0.002071 0.372733 -0.674652
C39   C     C_3   0.513207 0.498930 0.428501 -0.665199
C40   C     C_3   0.925483 0.002033 0.530631 -0.421751
C41   C     C_3   0.458613 0.497091 0.554851 -0.434491
C42   C     C_R   0.861680 0.154188 0.908695 0.918289
C43   C     C_R   0.860741 0.846135 0.907442 0.860160
C44   C     C_R   0.361979 0.654257 0.909294 0.921703
C45   C     C_R   0.360476 0.346266 0.907250 0.852222
C46   C     C_3   0.024817 0.981131 0.574474 -0.667346
C47   C     C_R   0.452730 0.654458 0.090039 0.541178
C48   C     C_3   0.556059 0.526144 0.613956 -0.703527
C49   C     C_3   0.745300 0.189355 0.984139 0.781402
C50   C     C_3   0.749806 0.800316 0.984630 0.771413
C51   C     C_3   0.244252 0.690381 0.981781 0.786520
C52   C     C_3   0.250821 0.299587 0.988533 0.781041
C53   C     C_3   0.172080 0.728538 0.979577 0.703689
C54   C     C_3   0.187607 0.255987 0.990279 0.708086
C55   C     C_3   0.672597 0.226971 0.982311 0.685775
C56   C     C_3   0.685416 0.757426 0.986032 0.702487
C57   C     C_3   0.286490 0.769775 0.904849 0.335179
C58   C     C_R   0.069157 0.852237 0.908585 -0.209490
C59   C     C_3   0.291284 0.229222 0.893825 0.347064
C60   C     C_3   0.782984 0.268583 0.902186 0.266829
C61   C     C_3   0.796094 0.727276 0.899625 0.346215
C62   C     C_3   0.876920 0.258045 0.107397 0.303297
C63   C     C_3   0.890749 0.737673 0.106187 0.357496
C64   C     C_3   0.377670 0.757368 0.109428 0.305295
C65   C     C_3   0.390922 0.235339 0.101700 0.342305
C66   C     C_3   0.825757 0.225259 0.996387 -0.225137
C67   C     C_3   0.833753 0.770115 0.995005 -0.291429
C68   C     C_3   0.326603 0.725611 0.997216 -0.249214
C69   C     C_R   0.086139 0.135363 0.907212 -0.233697
C70   C     C_3   0.332528 0.269982 0.993342 -0.298061
C71   C     C_3   0.208522 0.788813 0.000233 -0.130914
C72   C     C_3   0.227177 0.197214 0.997213 -0.121316
C73   C     C_3   0.706608 0.287648 0.999592 -0.095624
C74   C     C_3   0.726990 0.698659 0.999532 -0.112245
C75   C     C_3   0.220918 0.808881 0.910528 0.101000
C76   C     C_3   0.231748 0.184950 0.898456 0.088403
C77   C     C_3   0.716041 0.306777 0.907215 0.103173
C78   C     C_3   0.736098 0.683726 0.905096 0.082644
C79   C     C_3   0.307224 0.791817 0.112991 -0.498296
C80   C     C_R   0.567914 0.351804 0.908374 -0.102887
C81   C     C_3   0.329240 0.192182 0.103125 -0.535894
C82   C     C_3   0.806129 0.292255 0.110984 -0.509068
C83   C     C_3   0.827684 0.695973 0.108848 -0.547975
C84   C     C_3   0.471925 0.944238 0.363030 0.219398
C85   C     C_3   0.474238 0.049019 0.355349 0.230187
C86   C     C_3   0.972810 0.444718 0.359949 0.218115
C87   C     C_3   0.974533 0.549540 0.354350 0.237283
C88   C     C_R   0.743927 0.954210 0.696744 0.700872
C89   C     C_R   0.742607 0.045199 0.697037 0.681104
C90   C     C_R   0.244423 0.454264 0.696027 0.687007
C91   C     C_R   0.585389 0.636789 0.908020 -0.234243
C92   C     C_R   0.243848 0.545148 0.695799 0.672967
C93   C     C_3   0.574000 0.942671 0.468499 0.357925
C94   C     C_3   0.580434 0.046365 0.450466 0.316323
C95   C     C_3   0.075755 0.443293 0.464502 0.351414
C96   C     C_3   0.080925 0.547072 0.449440 0.324434
C97   C     C_3   0.433673 0.002181 0.470385 -0.596515
C98   C     C_3   0.934955 0.501322 0.469063 -0.592170
C99   C     C_3   0.424029 0.998444 0.361551 0.076504
C100  C     C_3   0.924641 0.498518 0.359818 0.075508
C101  C     C_3   0.599574 0.998842 0.530390 0.137483
C102  C     C_R   0.172249 0.141126 0.090787 0.496547
C103  C     C_3   0.100822 0.498849 0.528320 0.134919
C104  C     C_3   0.536071 0.006982 0.567948 -0.612921
C105  C     C_3   0.037463 0.505642 0.566395 -0.615914
C106  C     C_R   0.984966 0.046576 0.251610 0.792706
C107  C     C_R   0.984165 0.955123 0.252367 0.720855
C108  C     C_R   0.535056 0.545901 0.296089 0.841126
C109  C     C_R   0.542745 0.455101 0.300348 0.811697
C110  C     C_R   0.894382 0.812467 0.996336 -0.112558
C111  C     C_R   0.893470 0.187859 0.997826 -0.244491
C112  C     C_R   0.393094 0.312893 0.996084 -0.085844
F1    F     F_    0.860303 0.088548 0.306097 -0.585568
F2    F     F_    0.697754 0.830441 0.887929 -0.708076
F3    F     F_    0.198193 0.660232 0.884673 -0.711320
F4    F     F_    0.197566 0.331254 0.894058 -0.705595
F5    F     F_    0.840981 0.172435 0.812422 -0.590223
F6    F     F_    0.839227 0.828325 0.810329 -0.591572
F7    F     F_    0.340845 0.672702 0.812931 -0.589721
F8    F     F_    0.341182 0.328152 0.811335 -0.602540
F9    F     F_    0.732054 0.901309 0.664123 -0.613414
F10   F     F_    0.724876 0.098433 0.667112 -0.625873
F11   F     F_    0.232110 0.401261 0.663896 -0.618406
F12   F     F_    0.776499 0.998283 0.249765 -0.617387
F13   F     F_    0.228663 0.598211 0.664538 -0.628007
F14   F     F_    0.972161 0.100303 0.260011 -0.549223
F15   F     F_    0.972270 0.902091 0.266468 -0.587754
F16   F     F_    0.545266 0.599122 0.326179 -0.563053
F17   F     F_    0.591079 0.408741 0.351118 -0.598939
F18   F     F_    0.014667 0.092588 0.441801 -0.552413
F19   F     F_    0.850546 0.918791 0.293522 -0.573314
F20   F     F_    0.403147 0.574909 0.323846 -0.596499
F21   F     F_    0.596690 0.414228 0.518892 -0.546590
F22   F     F_    0.347805 0.490164 0.278401 -0.630799
F23   F     F_    0.450353 0.405994 0.365561 -0.630302
F24   F     F_    0.981913 0.096305 0.572299 -0.632251
F25   F     F_    0.866779 0.909759 0.465573 -0.605420
F26   F     F_    0.382105 0.582910 0.468904 -0.613477
F27   F     F_    0.535478 0.408360 0.624249 -0.658872
F28   F     F_    0.699247 0.158281 0.888174 -0.713641
H1    H     H_    0.078563 0.009439 0.639825 0.272001
H2    H     H_    0.913857 0.766457 0.174916 0.241250
H3    H     H_    0.687798 0.288604 0.185299 0.387893
H4    H     H_    0.407203 0.727548 0.177634 0.231653
H5    H     H_    0.414411 0.262180 0.172832 0.201518
H6    H     H_    0.806864 0.276649 0.179973 0.223809
H7    H     H_    0.828949 0.706271 0.180885 0.267826
H8    H     H_    0.306155 0.775338 0.180150 0.226314
H9    H     H_    0.334057 0.199067 0.178528 0.258122
H10   H     H_    0.331059 0.835073 0.135898 0.257584
H11   H     H_    0.356448 0.150111 0.110679 0.237993
H12   H     H_    0.828475 0.335860 0.131122 0.258340
H13   H     H_    0.039870 0.940784 0.615771 0.247809
H14   H     H_    0.856068 0.653733 0.123213 0.235922
H15   H     H_    0.346483 0.793511 0.920013 0.212786
H16   H     H_    0.351179 0.209260 0.901388 0.210766
H17   H     H_    0.841499 0.293188 0.915533 0.206571
H18   H     H_    0.857625 0.706995 0.911546 0.209612
H19   H     H_    0.437044 0.908626 0.369835 0.079816
H20   H     H_    0.446722 0.086888 0.368417 0.050530
H21   H     H_    0.938460 0.408885 0.367067 0.082627
H22   H     H_    0.946697 0.587085 0.367914 0.050293
H23   H     H_    0.575835 0.910528 0.521810 0.113842
H24   H     H_    0.555687 0.567533 0.644618 0.246617
H25   H     H_    0.597947 0.086401 0.493378 0.128908
H26   H     H_    0.078850 0.410169 0.516909 0.117971
H27   H     H_    0.097813 0.586786 0.493323 0.128230
H28   H     H_    0.402915 0.965128 0.480317 0.229102
H29   H     H_    0.395274 0.038275 0.470616 0.238810
H30   H     H_    0.904107 0.464089 0.478302 0.235549
H31   H     H_    0.896888 0.537272 0.470453 0.236450
H32   H     H_    0.551862 0.975880 0.630438 0.237804
H33   H     H_    0.548583 0.048048 0.606803 0.253834
H34   H     H_    0.053415 0.473692 0.627586 0.240554
H35   H     H_    0.609414 0.502612 0.688925 0.273002
H36   H     H_    0.050121 0.546191 0.607086 0.250995
H37   H     H_    0.287508 0.911291 0.263672 0.169226
H38   H     H_    0.293462 0.086065 0.272938 0.146926
H39   H     H_    0.787641 0.411276 0.262647 0.163437
H40   H     H_    0.793172 0.586200 0.270897 0.151053
H41   H     H_    0.033898 0.840548 0.824004 0.175417
H42   H     H_    0.054621 0.143214 0.821952 0.181124
H43   H     H_    0.531639 0.340219 0.823514 0.173696
H44   H     H_    0.554345 0.645355 0.823215 0.165945
H45   H     H_    0.070784 0.855068 0.230021 0.369352
H46   H     H_    0.152501 0.809597 0.827757 0.102716
H47   H     H_    0.045928 0.210713 0.177588 0.371443
H48   H     H_    0.508726 0.336485 0.238856 0.393364
H49   H     H_    0.546219 0.709162 0.180067 0.375634
H50   H     H_    0.827231 0.122506 0.437841 0.395156
H51   H     H_    0.716199 0.950162 0.347623 0.390767
H52   H     H_    0.248731 0.530432 0.338451 0.380215
H53   H     H_    0.397293 0.369390 0.475148 0.395853
H54   H     H_    0.136952 0.994039 0.468825 0.334111
H55   H     H_    0.001906 0.898063 0.461430 0.400753
H56   H     H_    0.535290 0.606600 0.498556 0.392939
H57   H     H_    0.160690 0.185357 0.819069 0.126477
H58   H     H_    0.701271 0.518790 0.550650 0.358155
H59   H     H_    0.742982 0.121493 0.050833 0.386826
H60   H     H_    0.737487 0.865401 0.051083 0.386912
H61   H     H_    0.238415 0.622194 0.044978 0.377671
H62   H     H_    0.241449 0.363060 0.060915 0.384669
H63   H     H_    0.630593 0.178455 0.047752 0.383594
H64   H     H_    0.640920 0.799033 0.057838 0.375442
H65   H     H_    0.126289 0.679983 0.040800 0.376111
H66   H     H_    0.147618 0.295217 0.069252 0.374776
H67   H     H_    0.083392 0.732529 0.817526 0.317489
H68   H     H_    0.646580 0.305856 0.825801 0.131479
H69   H     H_    0.089029 0.256103 0.829775 0.321359
H70   H     H_    0.582059 0.228080 0.820166 0.319072
H71   H     H_    0.590777 0.754381 0.824806 0.318201
H72   H     H_    0.180565 0.732223 0.772806 0.359732
H73   H     H_    0.177612 0.266254 0.769943 0.360343
H74   H     H_    0.677980 0.229226 0.772435 0.362882
H75   H     H_    0.683771 0.762600 0.770955 0.359647
H76   H     H_    0.925759 0.325257 0.085340 0.375359
H77   H     H_    0.955016 0.679306 0.084129 0.351165
H78   H     H_    0.429332 0.824450 0.091157 0.379741
H79   H     H_    0.666311 0.682511 0.824038 0.104932
H80   H     H_    0.454047 0.180000 0.071827 0.353714
H81   H     H_    0.206869 0.888568 0.894014 0.346706
H82   H     H_    0.221127 0.105506 0.878108 0.355366
H83   H     H_    0.736790 0.374952 0.858493 0.383164
H84   H     H_    0.728237 0.603927 0.892255 0.347190
H85   H     H_    0.509965 0.959856 0.267386 0.424134
H86   H     H_    0.475710 0.089789 0.246781 0.333419
H87   H     H_    0.008493 0.461226 0.262379 0.427156
H88   H     H_    0.976575 0.590930 0.246797 0.332513
H89   H     H_    0.630008 0.889078 0.428596 0.377069
H90   H     H_    0.908103 0.228795 0.176770 0.237782
H91   H     H_    0.643653 0.075984 0.391536 0.373613
H92   H     H_    0.132525 0.391665 0.422141 0.378057
H93   H     H_    0.145502 0.578252 0.393284 0.355747
H94   H     H_    0.900350 0.115017 0.713717 0.368875
H95   H     H_    0.902850 0.884923 0.705952 0.369426
H96   H     H_    0.405861 0.615438 0.704811 0.368713
H97   H     H_    0.398202 0.385947 0.707822 0.363973
H98   H     H_    0.191772 0.154222 0.228071 0.345683
H99   H     H_    0.187516 0.789070 0.184471 0.390323
H100  H     H_    0.690184 0.653626 0.228805 0.346834
N1    N     N_R   0.950530 0.896220 0.057200 -0.166800
N2    N     N_R   0.818150 0.028600 0.792440 -0.163107
N3    N     N_R   0.318150 0.471400 0.792440 -0.168122
N4    N     N_R   0.318150 0.528600 0.792440 -0.159414
N5    N     N_R   0.025710 0.028600 0.207560 -0.183685
N6    N     N_R   0.025710 0.971400 0.207560 -0.200196
N7    N     N_R   0.525710 0.528600 0.207560 -0.181271
N8    N     N_R   0.525710 0.471400 0.207560 -0.178300
N9    N     N_R   0.181850 0.971400 0.207560 -0.051767
N10   N     N_R   0.181850 0.028600 0.207560 -0.055910
N11   N     N_R   0.681850 0.471400 0.207560 -0.048668
N12   N     N_R   0.950530 0.103780 0.057200 -0.131709
N13   N     N_R   0.681850 0.528600 0.207560 -0.072582
N14   N     N_R   0.974290 0.028600 0.792440 -0.166397
N15   N     N_R   0.974290 0.971400 0.792440 -0.159691
N16   N     N_R   0.474290 0.528600 0.792440 -0.159787
N17   N     N_R   0.474290 0.471400 0.792440 -0.166540
N18   N     N_R   0.049470 0.896220 0.942800 -0.092600
N19   N     N_R   0.049470 0.103780 0.942800 -0.090122
N20   N     N_R   0.549470 0.396220 0.942800 -0.103308
N21   N     N_R   0.549470 0.603780 0.942800 -0.085963
N22   N     N_R   0.106670 0.103780 0.057200 -0.126502
N23   N     N_R   0.450530 0.396220 0.057200 -0.137657
N24   N     N_R   0.106670 0.896220 0.057200 -0.095454
N25   N     N_R   0.606670 0.603780 0.057200 -0.127889
N26   N     N_R   0.606670 0.396220 0.057200 -0.087718
N27   N     N_R   0.450530 0.603780 0.057200 -0.126420
N28   N     N_R   0.893330 0.103780 0.942800 -0.170436
N29   N     N_R   0.893330 0.896220 0.942800 -0.168111
N30   N     N_R   0.393330 0.603780 0.942800 -0.164842
N31   N     N_R   0.393330 0.396220 0.942800 -0.168184
N32   N     N_R   0.818150 0.971400 0.792440 -0.166397
Ni1   Ni    Ni4+2 0.065600 0.934400 0.131190 0.250871
Ni2   Ni    Ni4+2 0.065600 0.065600 0.131190 0.263232
Ni3   Ni    Ni4+2 0.565600 0.434400 0.131190 0.324778
Ni4   Ni    Ni4+2 0.565600 0.565600 0.131190 0.267152
Ni5   Ni    Ni4+2 0.934400 0.065600 0.868810 0.278261
Ni6   Ni    Ni4+2 0.934400 0.934400 0.868810 0.273755
Ni7   Ni    Ni4+2 0.434400 0.565600 0.868810 0.280780
Ni8   Ni    Ni4+2 0.434400 0.434400 0.868810 0.281079
O1    O     O_3   0.027407 0.824357 0.187041 -0.635484
O2    O     O_3   0.050887 0.921172 0.468354 -0.655832
O3    O     O_3   0.592442 0.587084 0.518596 -0.638532
O4    O     O_3   0.676033 0.508055 0.591508 -0.625309
O5    O     O_3   0.786501 0.152824 0.073436 -0.688336
O6    O     O_3   0.786270 0.837349 0.073100 -0.690724
O7    O     O_3   0.283145 0.653039 0.069562 -0.714379
O8    O     O_3   0.289558 0.335123 0.079620 -0.741130
O9    O     O_3   0.668319 0.212497 0.069220 -0.711255
O10   O     O_3   0.683832 0.767716 0.076682 -0.651257
O11   O     O_3   0.165399 0.713548 0.064482 -0.717377
O12   O     O_3   0.031111 0.173452 0.188311 -0.673189
O13   O     O_3   0.190115 0.264260 0.084241 -0.655694
O14   O     O_3   0.081159 0.724035 0.879496 -0.694203
O15   O     O_3   0.092994 0.260644 0.897204 -0.699903
O16   O     O_3   0.581094 0.221195 0.883585 -0.698248
O17   O     O_3   0.591951 0.760750 0.890004 -0.700496
O18   O     O_3   0.241417 0.748241 0.798285 -0.615946
O19   O     O_3   0.239244 0.254452 0.790024 -0.600218
O20   O     O_3   0.737880 0.246098 0.796336 -0.600100
O21   O     O_3   0.746052 0.750251 0.793933 -0.606991
O22   O     O_3   0.951130 0.290564 0.126863 -0.707256
O23   O     O_3   0.522702 0.325475 0.187227 -0.628265
O24   O     O_3   0.972478 0.713317 0.128211 -0.659434
O25   O     O_3   0.453296 0.789372 0.131485 -0.705592
O26   O     O_3   0.472204 0.212360 0.120285 -0.657035
O27   O     O_3   0.259336 0.862107 0.935837 -0.707106
O28   O     O_3   0.271935 0.133145 0.909987 -0.691759
O29   O     O_3   0.749287 0.361068 0.927549 -0.705098
O30   O     O_3   0.778397 0.631967 0.923422 -0.697900
O31   O     O_3   0.463665 0.936314 0.265380 -0.672713
O32   O     O_3   0.456593 0.052497 0.251985 -0.687115
O33   O     O_3   0.963087 0.437268 0.261327 -0.670227
O34   O     O_3   0.529114 0.672495 0.190341 -0.664356
O35   O     O_3   0.956752 0.553668 0.251004 -0.689207
O36   O     O_3   0.638242 0.928775 0.446558 -0.609623
O37   O     O_3   0.634417 0.039216 0.411394 -0.591056
O38   O     O_3   0.139500 0.431260 0.440695 -0.585573
O39   O     O_3   0.135084 0.541029 0.410214 -0.620122
O40   O     O_3   0.891927 0.094521 0.651923 -0.618771
O41   O     O_3   0.906574 0.903862 0.651126 -0.596773
O42   O     O_3   0.408840 0.595135 0.650243 -0.611693
O43   O     O_3   0.398914 0.404865 0.650779 -0.620829
O44   O     O_3   0.216047 0.169033 0.188698 -0.722545
O45   O     O_3   0.824937 0.082064 0.442505 -0.642829
O46   O     O_3   0.194979 0.829251 0.193098 -0.760241
O47   O     O_3   0.713470 0.669734 0.189305 -0.720952
O48   O     O_3   0.692799 0.328878 0.192852 -0.708256
O49   O     O_3   0.760238 0.977957 0.402332 -0.593313
O50   O     O_3   0.294559 0.505645 0.399078 -0.606781
O51   O     O_3   0.383944 0.409256 0.469555 -0.607566
O52   O     O_3   0.116799 0.006327 0.514335 -0.636248

loop_
_geom_bond_atom_site_label_1
_geom_bond_atom_site_label_2
_ccdc_geom_bond_type
H64   O10   S    
H53   O51   S    
C74   C83   S    
C83   H14   S    
C40   C46   S    
C20   C40   S    
C29   F20   S    
C60   O20   S    
C93   O36   S    
C29   C33   S    
H87   O33   S    
C61   O21   S    
C80   H43   S    
C107  N6    A    
C2    N24   A    
C109  N8    A    
C105  H36   S    
C2    C22   A    
C87   O35   S    
C102  N22   A    
C43   C110  A    
C48   H35   S    
N5    N6    A    
H71   O17   S    
C94   H25   S    
C84   H19   S    
H85   O31   S    
C46   H1    S    
N14   Ni5   S    
N22   Ni2   S    
C27   C31   S    
C33   O50   S    
C28   C32   S    
C93   C101  S    
C60   C77   S    
C62   C66   S    
C44   F7    S    
C2    O46   S    
N28   Ni5   S    
C50   F2    S    
C102  O44   S    
N30   Ni7   S    
C1    C110  A    
N25   Ni4   S    
N26   Ni3   S    
C12   C20   A    
H69   O15   S    
C37   O4    S    
H80   O26   S    
C17   O48   S    
C48   H24   S    
C45   F8    S    
H99   O46   S    
C64   C79   S    
N20   N26   A    
C53   C71   S    
C95   H26   S    
C55   O9    S    
C4    C89   A    
C47   N27   A    
C46   H13   S    
N32   Ni6   S    
C23   C72   S    
N18   N24   A    
C31   F24   S    
C22   C58   A    
C42   F5    S    
C79   H8    S    
H91   O37   S    
C35   O2    S    
H54   O52   S    
C107  F15   S    
C81   H11   S    
C61   H18   S    
C1    O1    S    
C81   H9    S    
C63   H2    S    
C84   C93   S    
N10   Ni2   S    
C43   N29   A    
C86   C95   S    
C43   F6    S    
C7    C39   S    
C13   O47   S    
H77   O24   S    
N12   Ni2   S    
C76   O28   S    
C77   O29   S    
C5    C103  S    
C16   C21   A    
C90   F11   S    
H93   O39   S    
H94   O40   S    
C92   F13   S    
C71   C79   S    
N9    N10   A    
C58   N18   A    
C58   H41   S    
C10   H39   S    
C64   C68   S    
C76   H57   S    
N27   N30   A    
C14   O41   S    
C89   F10   S    
C93   H23   S    
H96   O42   S    
C65   C70   S    
H76   O22   S    
C53   O11   S    
H47   O12   S    
C62   H90   S    
C6    C38   S    
C85   H20   S    
H89   O36   S    
C50   C67   S    
H61   O7    S    
C91   N21   A    
H62   O8    S    
N23   N31   A    
C63   O24   S    
C87   C96   S    
H3    O48   S    
C95   C103  S    
C85   O32   S    
H86   O32   S    
C3    C44   A    
C49   C66   S    
C30   C34   S    
C36   N23   A    
C35   C38   S    
C60   H17   S    
N8    Ni3   S    
H48   O23   S    
C49   C55   S    
N4    Ni7   S    
C50   C56   S    
N5    Ni2   S    
C51   C53   S    
H65   O11   S    
N18   Ni6   S    
C17   N26   A    
C85   C99   S    
C61   C67   S    
C67   C110  S    
C103  C105  S    
C86   H21   S    
H70   O16   S    
C108  F16   S    
C1    N1    A    
H58   O4    S    
C27   F1    S    
N23   Ni3   S    
C109  F17   S    
C83   H7    S    
C13   C26   A    
N19   Ni5   S    
C75   H46   S    
C18   C99   S    
C57   C68   S    
C53   O14   S    
C86   O33   S    
C87   C100  S    
C73   C77   S    
H51   O49   S    
H50   O45   S    
N13   Ni4   S    
C52   O8    S    
C59   H16   S    
C28   F12   S    
C4    C88   A    
C56   O17   S    
C97   H28   S    
N2    Ni5   S    
C104  H32   S    
C34   O51   S    
C57   C75   S    
C9    N10   A    
C35   C46   S    
C3    C47   A    
N1    N29   A    
C30   C39   S    
N9    Ni1   S    
C106  N5    A    
C65   O26   S    
C25   C111  A    
C55   C73   S    
C56   O10   S    
C9    C18   A    
C87   H22   S    
C32   O49   S    
C27   F18   S    
C89   N2    A    
C91   H44   S    
C42   N28   A    
C59   C76   S    
C84   O31   S    
N16   Ni7   S    
C3    C68   S    
H82   O28   S    
C11   C19   A    
C36   O23   S    
H55   O2    S    
C51   O7    S    
H72   O18   S    
C24   C73   S    
C27   C38   S    
N3    N4    A    
C31   C40   S    
N1    Ni1   S    
C8    H37   S    
N12   N28   A    
C78   O30   S    
C36   C112  A    
C6    C107  A    
C66   C111  S    
C86   C100  S    
C37   O3    S    
C72   C81   S    
C69   N19   A    
N19   N22   A    
C29   F22   S    
C62   C82   S    
C60   C66   S    
C47   O34   S    
C34   C41   S    
H59   O5    S    
H49   O34   S    
C82   H6    S    
C52   F4    S    
H75   O21   S    
N27   Ni4   S    
C56   C74   S    
C25   O12   S    
C62   O22   S    
C14   C20   A    
C26   C91   A    
C51   F3    S    
C63   C83   S    
N2    N32   A    
N21   N25   A    
N14   N15   A    
C75   O27   S    
C65   C81   S    
N21   Ni7   S    
C31   O45   S    
C10   C19   A    
C4    C101  S    
C96   H27   S    
C64   O25   S    
C79   H10   S    
C21   C41   S    
N31   Ni8   S    
C101  C104  S    
C98   C100  S    
N15   Ni6   S    
C73   C82   S    
C84   C99   S    
N6    Ni1   S    
H84   O30   S    
C88   F9    S    
C13   N25   A    
N3    Ni8   S    
C19   C100  S    
C104  H33   S    
C106  F14   S    
N24   Ni1   S    
H63   O9    S    
C33   C41   S    
C37   C39   S    
C16   N17   A    
C11   N13   A    
H97   O43   S    
C8    C18   A    
C35   O52   S    
C97   C104  S    
C59   C70   S    
C30   F23   S    
C74   C78   S    
C96   C103  S    
C11   H40   S    
C95   O38   S    
N7    Ni4   S    
C15   O42   S    
C82   H12   S    
C9    H38   S    
C23   C69   A    
C72   C76   S    
H56   O3    S    
H81   O27   S    
C45   C112  A    
C97   H29   S    
C16   O43   S    
C57   H15   S    
C108  N7    A    
C49   O5    S    
C98   C105  S    
N11   Ni3   S    
N20   Ni8   S    
C25   N12   A    
N11   N13   A    
C23   C102  A    
C34   F27   S    
H95   O41   S    
H60   O6    S    
C10   N11   A    
H52   O50   S    
H66   O13   S    
C24   C80   A    
C14   N15   A    
C94   C101  S    
C80   N20   A    
C33   F26   S    
H100  O47   S    
C5    C90   A    
C69   H42   S    
C90   N3    A    
C50   O6    S    
C96   O39   S    
C97   C99   S    
C52   C54   S    
C15   N16   A    
C6    C106  A    
C63   C67   S    
C8    N9    A    
C17   C24   A    
C12   N14   A    
H88   O35   S    
C57   O18   S    
C77   H68   S    
C64   H4    S    
C7    C109  A    
C98   H30   S    
C42   C111  A    
C85   C94   S    
C28   C38   S    
C61   C78   S    
C30   F21   S    
H92   O38   S    
N16   N17   A    
C29   C39   S    
C94   O37   S    
C37   C48   S    
H73   O19   S    
C70   C112  S    
C55   O16   S    
H74   O20   S    
C98   H31   S    
C105  H34   S    
H98   O44   S    
C12   O40   S    
C59   O19   S    
C65   H5    S    
C22   C71   S    
C44   N30   A    
C45   N31   A    
N7    N8    A    
C54   O15   S    
C28   F19   S    
H78   O25   S    
C32   F25   S    
C71   C75   S    
C92   N4    A    
H45   O1    S    
C78   H79   S    
C26   C74   S    
C41   C48   S    
N29   Ni6   S    
C51   C68   S    
C32   C40   S    
H67   O14   S    
C5    C92   A    
C52   C70   S    
C54   O13   S    
C15   C21   A    
C54   C72   S    
N17   Ni8   S    
C49   F28   S    
C7    C108  A    
H83   O29   S    
C88   N32   A    
