data_mof_unit_25550.cif
_audit_creation_date              2012-12-10T18:37:44-0500
_audit_creation_method            fapswitch 2.2
_symmetry_space_group_name_H-M    P1
_symmetry_Int_Tables_number       1
_space_group_crystal_system       triclinic
_cell_length_a                    15.107244
_cell_length_b                    13.864995
_cell_length_c                    15.875043
_cell_angle_alpha                 89.999127
_cell_angle_beta                  89.842064
_cell_angle_gamma                 90.023104
_cell_volume                      3325.20317063

loop_
_atom_site_label
_atom_site_type_symbol
_atom_type_description
_atom_site_fract_x
_atom_site_fract_y
_atom_site_fract_z
_atom_type_partial_charge
C1    C     C_R   0.330042 0.499958 0.499328 0.830544
C2    C     C_3   0.576960 0.457302 0.952690 -0.408006
C3    C     C_3   0.574205 0.455578 0.050140 -0.558985
C4    C     C_1   0.493101 0.499923 0.825106 -0.061745
C5    C     C_1   0.491267 0.500370 0.175431 -0.054929
C6    C     C_1   0.496207 0.500264 0.250786 -0.188027
C7    C     C_R   0.096626 0.567902 0.447056 0.430255
C8    C     C_R   0.095044 0.431019 0.544307 0.428421
C9    C     C_R   0.188665 0.570004 0.451687 -0.270121
C10   C     C_R   0.187148 0.428991 0.541961 -0.263094
C11   C     C_R   0.233896 0.499735 0.497700 -0.167228
C12   C     C_R   0.049053 0.499535 0.495237 -0.144196
C13   C     C_R   0.905300 0.415861 0.475284 -0.137580
C14   C     C_R   0.905992 0.584494 0.516087 -0.137971
C15   C     C_R   0.499834 0.500039 0.340194 0.824862
C16   C     C_R   0.813317 0.415634 0.477301 -0.214151
C17   C     C_R   0.813965 0.584681 0.517182 -0.214046
C18   C     C_R   0.767057 0.500087 0.498194 -0.030741
C19   C     C_R   0.951977 0.500114 0.495104 0.130571
C20   C     C_R   0.540672 0.107867 0.564906 -0.282932
C21   C     C_R   0.567945 0.892150 0.539196 -0.282739
C22   C     C_R   0.540501 0.209325 0.563431 0.081892
C23   C     C_R   0.566342 0.790688 0.539066 0.085030
C24   C     C_R   0.459554 0.209402 0.436483 0.081445
C25   C     C_R   0.433724 0.790559 0.460796 0.095921
C26   C     C_R   0.459271 0.107942 0.434902 -0.280591
C27   C     C_R   0.432107 0.892027 0.460509 -0.277674
C28   C     C_R   0.499965 0.054674 0.499878 0.134205
C29   C     C_R   0.500005 0.945318 0.499845 0.130051
C30   C     C_R   0.670276 0.500026 0.499638 0.789706
C31   C     C_R   0.499248 0.499976 0.659918 0.827440
C32   C     C_3   0.481977 0.605585 0.048137 0.350249
C33   C     C_3   0.409721 0.434056 0.048191 0.336266
C34   C     C_3   0.411385 0.439102 0.949915 -0.399498
C35   C     C_3   0.479869 0.605492 0.949789 -0.470007
C36   C     C_1   0.496102 0.499877 0.749575 -0.190620
C37   C     C_3   0.486055 0.500111 0.083503 0.155034
C38   C     C_3   0.490238 0.500540 0.917283 0.213063
Cu1   Cu    Cu3+1 0.499990 0.596430 0.500000 0.942234
Cu2   Cu    Cu3+1 0.499990 0.403570 0.500000 0.932446
H1    H     H_    0.419714 0.638849 0.922725 0.164925
H2    H     H_    0.348437 0.470126 0.925664 0.184407
H3    H     H_    0.778487 0.349725 0.461762 0.156535
H4    H     H_    0.779638 0.650574 0.533843 0.145505
H5    H     H_    0.571659 0.071877 0.617568 0.126814
H6    H     H_    0.623019 0.928160 0.569142 0.127140
H7    H     H_    0.572758 0.248501 0.613615 0.121652
H8    H     H_    0.618782 0.751508 0.570185 0.114612
H9    H     H_    0.427510 0.248652 0.386274 0.129704
H10   H     H_    0.381316 0.751269 0.429677 0.119563
H11   H     H_    0.428260 0.072029 0.382195 0.128089
H12   H     H_    0.377059 0.927944 0.430474 0.130337
H13   H     H_    0.424887 0.357783 0.063897 0.081111
H14   H     H_    0.547665 0.637516 0.063610 0.118588
H15   H     H_    0.415965 0.364732 0.923744 0.137537
H16   H     H_    0.535823 0.650039 0.925610 0.150310
H17   H     H_    0.632279 0.495932 0.075062 0.188643
H18   H     H_    0.581264 0.379863 0.072563 0.185978
H19   H     H_    0.634705 0.500771 0.931134 0.179703
H20   H     H_    0.586335 0.382595 0.928568 0.180079
H21   H     H_    0.224873 0.624490 0.416791 0.159664
H22   H     H_    0.222148 0.374468 0.577681 0.170196
H23   H     H_    0.940156 0.350450 0.458142 0.156971
H24   H     H_    0.941396 0.649786 0.532435 0.156454
N1    N     N_R   0.500020 0.258690 0.500000 -0.170769
N2    N     N_R   0.500020 0.741310 0.500000 -0.171165
O1    O     O_R   0.371450 0.581430 0.500010 -0.590042
O2    O     O_R   0.371450 0.418570 0.500010 -0.583187
O3    O     O_R   0.500000 0.581470 0.379440 -0.569341
O4    O     O_R   0.500000 0.418530 0.379440 -0.589956
O5    O     O_R   0.628540 0.581440 0.499990 -0.593061
O6    O     O_R   0.628540 0.418560 0.499990 -0.584913
O7    O     O_R   0.499990 0.581400 0.620560 -0.574450
O8    O     O_R   0.499990 0.418600 0.620560 -0.587450
O9    O     O_3   0.422058 0.668440 0.090837 -0.614849
C39   C     C_3   0.332785 0.665369 0.064328 0.125580
H25   H     H_    0.291623 0.644598 0.119506 0.168917
H26   H     H_    0.318411 0.613213 0.013501 0.174545
C40   C     C_3   0.304710 0.766002 0.035603 -0.380168
H27   H     H_    0.316588 0.818596 0.087214 0.233172
H28   H     H_    0.345186 0.787903 0.980255 0.218210
C41   C     C_3   0.206963 0.768594 0.011707 -0.932983
H29   H     H_    0.193243 0.716120 0.960488 0.257808
H30   H     H_    0.189374 0.841958 0.989281 0.261495
H31   H     H_    0.165114 0.751141 0.067276 0.262366
O10   O     O_3   0.322389 0.457918 0.075062 -0.641112
C42   C     C_3   0.299116 0.432997 0.159091 0.049369
H32   H     H_    0.226512 0.443757 0.163776 0.181936
H33   H     H_    0.326877 0.484994 0.204732 0.146781
C43   C     C_3   0.317778 0.327956 0.185008 -0.404466
H34   H     H_    0.294119 0.278158 0.135038 0.227074
H35   H     H_    0.389878 0.317063 0.194589 0.204638
C44   C     C_3   0.271323 0.303360 0.267860 -0.900177
H36   H     H_    0.294093 0.352465 0.318735 0.257708
H37   H     H_    0.287094 0.227979 0.286049 0.249093
H38   H     H_    0.198429 0.310088 0.260969 0.255780
O11   O     O_3   0.053828 0.636054 0.398207 -0.616182
C45   C     C_3   0.029311 0.594777 0.320046 0.087720
H39   H     H_    0.968965 0.632925 0.298110 0.170481
H40   H     H_    0.011147 0.516868 0.324592 0.123969
C46   C     C_3   0.102784 0.608908 0.254347 -0.379731
H41   H     H_    0.121002 0.686492 0.250928 0.231475
H42   H     H_    0.162344 0.567217 0.273054 0.199759
C47   C     C_3   0.073080 0.575009 0.167429 -0.944289
H43   H     H_    0.054906 0.497393 0.169323 0.256980
H44   H     H_    0.127857 0.584667 0.121462 0.258451
H45   H     H_    0.015258 0.617760 0.145861 0.261248
O12   O     O_3   0.050615 0.363415 0.592698 -0.614580
C48   C     C_3   0.025839 0.404865 0.670855 0.075256
H46   H     H_    0.964447 0.368026 0.692246 0.168248
H47   H     H_    0.009314 0.483204 0.666486 0.126068
C49   C     C_3   0.098137 0.388646 0.736952 -0.365244
H48   H     H_    0.114014 0.310491 0.740637 0.231241
H49   H     H_    0.159075 0.428262 0.718474 0.210105
C50   C     C_3   0.068761 0.423980 0.823666 -0.917403
H50   H     H_    0.053713 0.502367 0.821627 0.254450
H51   H     H_    0.122671 0.411758 0.869871 0.261881
H52   H     H_    0.009015 0.383989 0.844923 0.254445

loop_
_geom_bond_atom_site_label_1
_geom_bond_atom_site_label_2
_ccdc_geom_bond_type
C42   H32   S    
C4    C36   T    
C44   H36   S    
C5    C37   S    
C27   C29   A    
C1    C11   S    
C39   C40   S    
C33   O10   S    
C32   O9    S    
C47   H44   S    
C30   O5    A    
C46   H41   S    
Cu2   O4    S    
C9    H21   S    
C39   H26   S    
C23   N2    A    
C28   C29   S    
C24   C26   A    
C48   H47   S    
C5    C6    T    
C2    H20   S    
C31   O7    A    
C50   H50   S    
C1    O2    A    
O12   C48   S    
C17   C18   A    
C32   H14   S    
C25   H10   S    
C47   H43   S    
C6    C15   S    
C50   H51   S    
C34   H2    S    
C18   C30   S    
Cu2   O6    S    
C20   H5    S    
C22   H7    S    
C34   H15   S    
C44   H37   S    
C34   C38   S    
C14   C17   A    
C10   H22   S    
C8    O12   S    
C49   H49   S    
C49   H48   S    
O11   C45   S    
C33   H13   S    
C7    C12   A    
C15   O3    A    
C13   C19   A    
C32   C35   S    
C49   C50   S    
C35   C38   S    
C39   H25   S    
C48   C49   S    
Cu1   Cu2   S    
C40   H28   S    
C2    H19   S    
C31   O8    A    
C20   C28   A    
C21   C29   A    
C33   C37   S    
O9    C39   S    
C22   N1    A    
C2    C38   S    
C43   H35   S    
C13   H23   S    
C8    C12   A    
C50   H52   S    
C14   H24   S    
C33   C34   S    
Cu1   O3    S    
C32   C37   S    
C9    C11   A    
C16   H3    S    
C24   N1    A    
C3    H17   S    
C8    C10   A    
C20   C22   A    
C41   H29   S    
C44   H38   S    
C41   H30   S    
Cu2   N1    S    
C21   C23   A    
Cu1   N2    S    
C13   C16   A    
C45   C46   S    
C27   H12   S    
C43   C44   S    
C21   H6    S    
C46   H42   S    
C24   H9    S    
C7    C9    A    
C15   O4    A    
C23   H8    S    
C7    O11   S    
C35   H16   S    
O10   C42   S    
Cu1   O1    S    
C14   C19   A    
C25   N2    A    
C4    C38   S    
C40   C41   S    
C30   O6    A    
C25   C27   A    
C41   H31   S    
C26   C28   A    
C42   H33   S    
C2    C3    S    
C17   H4    S    
C48   H46   S    
C43   H34   S    
C12   C19   S    
C1    O1    A    
Cu2   O8    S    
Cu1   O7    S    
C35   H1    S    
C45   H40   S    
C10   C11   A    
C40   H27   S    
C3    H18   S    
C3    C37   S    
C16   C18   A    
C45   H39   S    
Cu2   O2    S    
C42   C43   S    
Cu1   O5    S    
C31   C36   S    
C46   C47   S    
C26   H11   S    
C47   H45   S    
