data_mof_unit_10201.cif
_audit_creation_date              2012-12-10T16:49:21-0500
_audit_creation_method            fapswitch 2.2
_symmetry_space_group_name_H-M    P1
_symmetry_Int_Tables_number       1
_space_group_crystal_system       triclinic
_cell_length_a                    7.745766
_cell_length_b                    8.645273
_cell_length_c                    12.847541
_cell_angle_alpha                 90.001405
_cell_angle_beta                  87.760867
_cell_angle_gamma                 93.278164
_cell_volume                      858.260410467

loop_
_atom_site_label
_atom_site_type_symbol
_atom_type_description
_atom_site_fract_x
_atom_site_fract_y
_atom_site_fract_z
_atom_type_partial_charge
C1    C     C_R   0.455482 0.205809 0.497734 0.913996
C2    C     C_R   0.717930 0.525949 0.139866 -0.199736
C3    C     C_R   0.592777 0.532079 0.868530 -0.270467
C4    C     C_R   0.407223 0.467921 0.131470 -0.270467
C5    C     C_R   0.581494 0.518146 0.975098 0.184825
C6    C     C_R   0.418506 0.481853 0.024902 0.184825
C7    C     C_2   0.432673 0.044687 0.512103 -0.246889
C8    C     C_2   0.567327 0.955313 0.487897 -0.246889
C9    C     C_1   0.274116 0.991384 0.569502 0.229596
C10   C     C_1   0.725883 0.008616 0.430498 0.229596
C11   C     C_R   0.544518 0.794191 0.502266 0.913996
C12   C     C_R   0.465826 0.504591 0.699835 0.880420
C13   C     C_R   0.534173 0.495409 0.300165 0.880421
C14   C     C_R   0.555466 0.493376 0.188940 -0.046689
C15   C     C_R   0.444534 0.506624 0.811060 -0.046689
C16   C     C_R   0.269095 0.461471 0.967584 -0.218709
C17   C     C_R   0.730905 0.538529 0.032416 -0.218708
C18   C     C_R   0.282070 0.474051 0.860134 -0.199736
H1    H     H_    0.281854 0.440116 0.169703 0.162647
H2    H     H_    0.718146 0.559884 0.830297 0.162647
H3    H     H_    0.833004 0.545846 0.184408 0.158828
H4    H     H_    0.166996 0.454154 0.815592 0.158828
H5    H     H_    0.143725 0.434012 0.005616 0.139705
H6    H     H_    0.856275 0.565987 0.994384 0.139705
H7    H     H_    0.998235 0.615644 0.422121 0.194696
H8    H     H_    0.001765 0.384356 0.577879 0.194696
N1    N     N_2   0.054030 0.541640 0.471970 -0.167882
N2    N     N_2   0.945970 0.458360 0.528030 -0.167882
N3    N     N_1   0.148160 0.949541 0.615047 -0.194517
N4    N     N_1   0.851840 0.050459 0.384952 -0.194517
O1    O     O_R   0.609680 0.261530 0.506880 -0.606167
O2    O     O_R   0.390320 0.738470 0.493120 -0.606167
O3    O     O_R   0.323330 0.288220 0.488910 -0.621898
O4    O     O_R   0.676670 0.711780 0.511090 -0.621898
O5    O     O_R   0.619510 0.488830 0.661140 -0.623805
O6    O     O_R   0.380490 0.511170 0.338860 -0.623805
O7    O     O_R   0.333160 0.515520 0.643180 -0.630495
O8    O     O_R   0.666840 0.484480 0.356820 -0.630495
Zn1   Zn    Zn3+2 0.691200 0.482180 0.511990 0.962542
Zn2   Zn    Zn3+2 0.308800 0.517820 0.488010 0.962542

loop_
_geom_bond_atom_site_label_1
_geom_bond_atom_site_label_2
_ccdc_geom_bond_type
C15   C18   A    
O5    Zn1   S    
H7    N1    S    
C10   N4    T    
H8    N2    S    
C12   C15   S    
C9    N3    T    
N1    Zn2   S    
C2    H3    S    
C1    O3    A    
C7    C8    D    
C18   H4    S    
C13   C14   S    
C2    C17   A    
C13   O8    A    
C5    C6    A    
C8    C11   S    
C8    C10   S    
O1    Zn1   S    
C11   O2    A    
C16   H5    S    
O2    Zn2   S    
C1    O1    A    
C4    C14   A    
O8    Zn1   S    
C2    C14   A    
C12   O5    A    
C17   H6    S    
C5    C17   A    
C6    C16   A    
O7    Zn2   S    
O3    Zn2   S    
C3    H2    S    
C3    C15   A    
C13   O6    A    
C16   C18   A    
C4    C6    A    
C12   O7    A    
N1    N2    D    
C7    C9    S    
O6    Zn2   S    
N2    Zn1   S    
C1    C7    S    
C4    H1    S    
C11   O4    A    
O4    Zn1   S    
C3    C5    A    
