data_mof_unit_20474.cif
_audit_creation_date              2012-12-10T18:42:35-0500
_audit_creation_method            fapswitch 2.2
_symmetry_space_group_name_H-M    P1
_symmetry_Int_Tables_number       1
_space_group_crystal_system       triclinic
_cell_length_a                    8.730766
_cell_length_b                    10.706252
_cell_length_c                    9.830242
_cell_angle_alpha                 90.599003
_cell_angle_beta                  98.652089
_cell_angle_gamma                 89.626535
_cell_volume                      908.352162007

loop_
_atom_site_label
_atom_site_type_symbol
_atom_type_description
_atom_site_fract_x
_atom_site_fract_y
_atom_site_fract_z
_atom_type_partial_charge
C1    C     C_R   0.503156 0.260090 0.499567 0.872054
C2    C     C_R   0.418400 0.068470 0.587763 -0.234733
C3    C     C_R   0.496130 0.872363 0.501715 -0.074830
C4    C     C_R   0.503870 0.127636 0.498285 -0.074830
C5    C     C_R   0.590124 0.581967 0.084900 -0.040952
C6    C     C_R   0.409876 0.418033 0.915100 -0.040952
C7    C     C_R   0.590133 0.581898 0.940931 -0.046869
C8    C     C_R   0.409867 0.418102 0.059069 -0.046869
C9    C     C_1   0.970303 0.443613 0.309984 0.254796
C10   C     C_1   0.029697 0.556388 0.690016 0.254796
C11   C     C_1   0.680511 0.117676 0.319249 0.175162
C12   C     C_R   0.496843 0.739910 0.500433 0.872055
C13   C     C_1   0.319489 0.882324 0.680750 0.175162
C14   C     C_R   0.201821 0.500079 0.464565 0.910883
C15   C     C_R   0.798179 0.499921 0.535434 0.910883
C16   C     C_2   0.039055 0.488806 0.446089 -0.266749
C17   C     C_2   0.960945 0.511194 0.553911 -0.266749
C18   C     C_R   0.586523 0.059670 0.409811 -0.004719
C19   C     C_R   0.413477 0.940330 0.590189 -0.004719
C20   C     C_R   0.581600 0.931530 0.412237 -0.234732
H1    H     H_    0.646512 0.877532 0.345894 0.154342
H2    H     H_    0.353488 0.122467 0.654105 0.154343
H3    H     H_    0.662321 0.647342 0.149881 0.127157
H4    H     H_    0.337679 0.352658 0.850118 0.127157
H5    H     H_    0.662246 0.647256 0.896619 0.134408
H6    H     H_    0.337754 0.352743 0.103381 0.134408
N1    N     N_R   0.499960 0.499970 0.857200 -0.085813
N2    N     N_R   0.500040 0.500030 0.142800 -0.085813
N3    N     N_1   0.917157 0.408394 0.201490 -0.181563
N4    N     N_1   0.082843 0.591606 0.798510 -0.181562
N5    N     N_1   0.755699 0.163482 0.246346 -0.183609
N6    N     N_1   0.244301 0.836518 0.753653 -0.183609
O1    O     O_R   0.499990 0.316750 0.614620 -0.627042
O2    O     O_R   0.500010 0.683250 0.385380 -0.627042
O3    O     O_R   0.499990 0.316780 0.385290 -0.618469
O4    O     O_R   0.500010 0.683220 0.614710 -0.618469
O5    O     O_R   0.271750 0.499990 0.587840 -0.613825
O6    O     O_R   0.728250 0.500010 0.412160 -0.613825
O7    O     O_R   0.271750 0.500010 0.358510 -0.620290
O8    O     O_R   0.728250 0.499990 0.641490 -0.620290
Zn1   Zn    Zn3+2 0.500000 0.499980 0.653120 0.970658
Zn2   Zn    Zn3+2 0.500000 0.500020 0.346880 0.970657

loop_
_geom_bond_atom_site_label_1
_geom_bond_atom_site_label_2
_ccdc_geom_bond_type
C2    H2    S    
C2    C4    A    
C15   O6    A    
C3    C19   A    
C12   O4    A    
C5    N2    A    
C8    H6    S    
C10   N4    T    
C13   N6    T    
C6    N1    A    
C5    H3    S    
C9    N3    T    
C1    C4    S    
C4    C18   A    
C14   O7    A    
C6    H4    S    
C3    C20   A    
C11   C18   S    
C20   H1    S    
C14   O5    A    
O4    Zn1   S    
N2    Zn2   S    
O8    Zn1   S    
C9    C16   S    
O6    Zn2   S    
O7    Zn2   S    
C18   C20   A    
O5    Zn1   S    
C8    N2    A    
C14   C16   S    
C15   O8    A    
O2    Zn2   S    
C13   C19   S    
C10   C17   S    
C11   N5    T    
C7    N1    A    
O1    Zn1   S    
C1    O3    A    
C5    C7    A    
C15   C17   S    
O3    Zn2   S    
N1    Zn1   S    
C6    C8    A    
C3    C12   S    
C2    C19   A    
C12   O2    A    
C1    O1    A    
C16   C17   D    
C7    H5    S    
