data_mof_unit_61980.cif
_audit_creation_date              2013-03-05T15:47:31-0500
_audit_creation_method            fapswitch 2.2
_symmetry_space_group_name_H-M    P1
_symmetry_Int_Tables_number       1
_space_group_crystal_system       triclinic
_cell_length_a                    19.019081
_cell_length_b                    18.987929
_cell_length_c                    19.026019
_cell_angle_alpha                 109.205663
_cell_angle_beta                  106.660389
_cell_angle_gamma                 109.756221
_cell_volume                      5460.43414951

loop_
_atom_site_label
_atom_site_type_symbol
_atom_site_description
_atom_site_fract_x
_atom_site_fract_y
_atom_site_fract_z
_atom_type_partial_charge
C1    C     C_R   0.008376 0.065724 0.735991 -0.126429
C2    C     C_R   0.983280 0.933115 0.262142 -0.122961
H1    H     H_    0.029993 0.129795 0.781657 0.109814
H2    H     H_    0.953893 0.867824 0.214827 0.109493
N1    N     N_R   0.996890 0.041250 0.656740 -0.044645
N2    N     N_R   0.003110 0.958750 0.343260 -0.044354
C3    C     C_R   0.170176 0.928144 0.444471 -0.123671
C4    C     C_R   0.828194 0.071263 0.550483 -0.123175
H3    H     H_    0.152986 0.862813 0.406728 0.102394
H4    H     H_    0.844075 0.136388 0.587130 0.103396
N3    N     N_R   0.116500 0.956710 0.456640 -0.042691
N4    N     N_R   0.883500 0.043290 0.543360 -0.043276
C5    C     C_R   0.946325 0.776533 0.519203 -0.126686
C6    C     C_R   0.053896 0.223646 0.481026 -0.125047
H5    H     H_    0.906919 0.755860 0.547188 0.100539
H6    H     H_    0.093503 0.244482 0.453276 0.101632
N5    N     N_R   0.955840 0.840160 0.499880 -0.042263
N6    N     N_R   0.044160 0.159840 0.500120 -0.042770
C7    C     C_R   0.238954 0.199095 0.666564 -0.131922
C8    C     C_R   0.769455 0.770588 0.341870 -0.133332
H7    H     H_    0.290334 0.211523 0.650785 0.107333
H8    H     H_    0.726925 0.747002 0.366038 0.105292
N7    N     N_R   0.157540 0.157800 0.613510 -0.042476
N8    N     N_R   0.842460 0.842200 0.386490 -0.041818
C9    C     C_R   0.020410 0.777870 0.447777 -0.121884
C10   C     C_R   0.979885 0.222359 0.552480 -0.124330
H9    H     H_    0.049634 0.758473 0.409578 0.103924
H10   H     H_    0.951003 0.242018 0.590962 0.102712
N9    N     N_R   0.000720 0.840930 0.456640 -0.043255
N10   N     N_R   0.999280 0.159070 0.543360 -0.043042
C11   C     C_R   0.164892 0.198034 0.738194 -0.100425
C12   C     C_R   0.843382 0.771759 0.270365 -0.112252
H11   H     H_    0.148035 0.209730 0.788683 0.124047
H12   H     H_    0.868579 0.749177 0.228863 0.118973
N11   N     N_R   0.112670 0.157030 0.656740 -0.047807
N12   N     N_R   0.887330 0.842970 0.343260 -0.045775
C13   C     C_R   0.239291 0.069327 0.511558 -0.130526
C14   C     C_R   0.758777 0.929628 0.479645 -0.122686
H13   H     H_    0.285175 0.133693 0.533271 0.102069
H14   H     H_    0.711201 0.864159 0.450193 0.106093
N13   N     N_R   0.159720 0.044030 0.499880 -0.042005
N14   N     N_R   0.840280 0.955970 0.500120 -0.043459
C15   C     C_R   0.941445 0.924683 0.667165 -0.125945
C16   C     C_R   0.054076 0.074647 0.331303 -0.123087
H15   H     H_    0.903908 0.859077 0.650070 0.100229
H16   H     H_    0.090799 0.140031 0.347224 0.102554
N15   N     N_R   0.953670 0.953920 0.613510 -0.042148
N16   N     N_R   0.046330 0.046080 0.386490 -0.043144
C17   C     C_R   0.977453 0.993883 0.745480 0.091530
C18   C     C_R   0.013211 0.004894 0.252149 0.088172
C19   C     C_R   0.248515 0.997770 0.480501 0.092050
C20   C     C_R   0.748974 0.001148 0.509245 0.088983
C21   C     C_R   0.988460 0.737399 0.488700 0.091825
C22   C     C_R   0.011862 0.262859 0.511599 0.090933
C23   C     C_R   0.244249 0.222027 0.745027 0.078229
C24   C     C_R   0.768856 0.725583 0.268360 0.084626
Ni1   Ni    Ni4+2 0.998100 0.099260 0.599150 0.221045
Ni2   Ni    Ni4+2 0.001900 0.900740 0.400850 0.219423
Ni3   Ni    Ni4+2 0.898980 0.898980 0.500000 0.216103
Ni4   Ni    Ni4+2 0.101020 0.101020 0.500000 0.218986
C25   C     C_3   0.588762 0.438272 0.009414 0.445452
C26   C     C_3   0.459242 0.413515 0.040756 0.445044
C27   C     C_3   0.532807 0.354725 0.005218 -0.278012
C28   C     C_3   0.514525 0.495831 0.044118 -0.294856
H17   H     H_    0.540002 0.296654 0.987745 0.170030
H18   H     H_    0.506361 0.553386 0.060667 0.169951
H19   H     H_    0.544813 0.394895 0.143490 0.169286
H20   H     H_    0.504345 0.458063 0.908048 0.168882
C29   C     C_1   0.318135 0.262688 0.819472 -0.010798
C30   C     C_1   0.711623 0.639690 0.211016 -0.023978
C31   C     C_3   0.512921 0.443876 0.961136 -0.296560
C32   C     C_3   0.535530 0.408180 0.089862 -0.281940
C33   C     C_3   0.456371 0.361541 0.958439 0.013815
C34   C     C_3   0.591475 0.490139 0.091631 0.015230
C35   C     C_1   0.380895 0.302196 0.882655 0.083560
C36   C     C_1   0.660067 0.569162 0.159696 0.088474
C37   C     C_1   0.324162 0.996763 0.480752 -0.038243
C38   C     C_1   0.671949 0.001668 0.504206 -0.037254
C39   C     C_1   0.388574 0.997111 0.483265 0.014170
C40   C     C_1   0.606856 0.001074 0.499184 0.014018
C41   C     C_1   0.464864 0.998365 0.488043 0.006570
C42   C     C_1   0.530196 0.999683 0.492988 0.006385
C43   C     C_1   0.009186 0.336662 0.508822 -0.038862
C44   C     C_1   0.991272 0.663691 0.491602 -0.037607
C45   C     C_1   0.006171 0.398095 0.505872 0.011639
C46   C     C_1   0.994345 0.602299 0.494603 0.012560
C47   C     C_1   0.002089 0.469693 0.501973 0.003966
C48   C     C_1   0.998456 0.530721 0.498526 0.004249
C49   C     C_1   0.978550 0.992806 0.821698 -0.032253
C50   C     C_1   0.008118 0.005446 0.174764 -0.035423
C51   C     C_1   0.982264 0.994195 0.886963 0.018979
C52   C     C_1   0.002410 0.003807 0.108956 0.015709
C53   C     C_1   0.988664 0.997375 0.964606 0.009994
C54   C     C_1   0.994921 0.000496 0.031029 0.008611
N17   N     N_R   0.660110 0.451345 0.991171 0.237105
O1    O     O_R   0.649093 0.402823 0.917957 -0.385723
O2    O     O_R   0.734923 0.510564 0.047690 -0.401127
N18   N     N_R   0.388304 0.401165 0.059667 0.237209
O3    O     O_R   0.399798 0.451328 0.132463 -0.386468
O4    O     O_R   0.313773 0.339708 0.004991 -0.404900

loop_
_geom_bond_atom_site_label_1
_geom_bond_atom_site_label_2
_geom_bond_distance
_ccdc_geom_bond_type
C47   C48   1.205572 T    
C27   H17   1.109943 S    
C53   C54   1.214297 T    
C32   C34   1.542957 S    
N5    N9    1.344526 A    
C6    N6    1.345587 A    
C7    N7    1.339249 A    
N17   O1    1.300346 A    
C8    C24   1.372754 A    
C41   C42   1.209877 T    
C3    N3    1.348053 A    
N1    N15   1.376736 A    
N8    N12   1.344218 A    
C34   C36   1.435245 S    
C21   C44   1.436812 S    
C1    N1    1.348605 A    
C12   N12   1.337125 A    
C7    H7    1.076875 S    
C9    C21   1.383938 A    
C14   N14   1.343947 A    
N12   Ni2   1.837464 S    
H20   C31   1.110680 S    
C13   C19   1.385058 A    
C38   C40   1.209923 T    
C14   C20   1.387215 A    
C16   C18   1.395317 A    
N10   Ni1   1.790665 S    
H19   C32   1.109976 S    
C28   C31   1.547301 S    
C25   C27   1.543447 S    
N2    Ni2   1.790463 S    
N4    N14   1.376589 A    
C2    C18   1.387732 A    
C26   N18   1.457638 S    
C18   C50   1.451313 S    
C8    N8    1.336347 A    
C26   C28   1.528797 S    
C11   H11   1.076673 S    
C26   C33   1.525587 S    
N3    N13   1.376586 A    
N6    N10   1.344523 A    
C49   C51   1.214281 T    
N3    Ni2   1.836310 S    
C4    C20   1.391766 A    
C25   C31   1.531012 S    
C45   C47   1.412144 S    
C33   C35   1.435291 S    
C2    N2    1.344992 A    
C20   C38   1.444022 S    
C10   C22   1.383752 A    
C22   C43   1.436889 S    
C16   H16   1.079816 S    
N16   Ni4   1.824933 S    
C5    C21   1.384417 A    
C37   C39   1.209893 T    
C9    N9    1.344942 A    
N7    Ni4   1.826314 S    
C46   C48   1.412130 S    
C40   C42   1.419072 S    
C39   C41   1.419051 S    
C15   C17   1.390732 A    
C27   C33   1.543819 S    
C1    H1    1.079617 S    
C28   H18   1.110825 S    
C2    H2    1.080981 S    
C19   C37   1.443987 S    
C51   C53   1.426161 S    
C50   C52   1.214313 T    
C4    N4    1.348713 A    
C52   C54   1.426184 S    
C26   C32   1.540361 S    
N9    Ni2   1.790662 S    
C15   H15   1.079978 S    
C23   C29   1.408100 S    
N2    N16   1.376733 A    
N5    Ni3   1.798094 S    
N4    Ni1   1.836308 S    
N6    Ni4   1.798096 S    
C43   C45   1.205638 T    
C8    H8    1.081732 S    
C10   N10   1.345194 A    
C24   C30   1.408297 S    
C5    H5    1.080158 S    
C30   C36   1.187959 T    
C6    H6    1.080140 S    
C31   C33   1.543503 S    
C7    C23   1.372893 A    
C3    H3    1.080055 S    
N17   O2    1.300315 A    
C6    C22   1.384184 A    
C10   H10   1.080076 S    
N13   Ni4   1.798318 S    
C17   C49   1.451268 S    
N14   Ni3   1.798318 S    
C25   N17   1.456868 S    
N1    Ni1   1.790464 S    
C25   C34   1.524908 S    
C9    H9    1.080132 S    
N7    N11   1.344220 A    
C5    N5    1.345403 A    
N11   Ni1   1.837465 S    
C3    C19   1.387115 A    
C13   H13   1.079832 S    
C14   H14   1.081028 S    
C15   N15   1.351310 A    
N8    Ni3   1.826317 S    
C29   C35   1.187940 T    
C11   N11   1.339837 A    
C13   N13   1.347560 A    
N18   O4    1.300295 A    
N15   Ni3   1.824930 S    
C27   C32   1.570866 S    
C4    H4    1.079817 S    
N18   O3    1.300366 A    
C28   C34   1.543805 S    
C44   C46   1.205618 T    
C11   C23   1.373360 A    
C1    C17   1.385579 A    
C12   C24   1.373354 A    
C16   N16   1.351953 A    
C12   H12   1.081727 S    
