data_mof_unit_53521.cif
_audit_creation_date              2012-12-11T18:37:14-0500
_audit_creation_method            fapswitch 2.2
_symmetry_space_group_name_H-M    P1
_symmetry_Int_Tables_number       1
_space_group_crystal_system       triclinic
_cell_length_a                    8.319793
_cell_length_b                    14.336713
_cell_length_c                    26.916596
_cell_angle_alpha                 93.077745
_cell_angle_beta                  92.685316
_cell_angle_gamma                 89.240741
_cell_volume                      3202.23396163

loop_
_atom_site_label
_atom_site_type_symbol
_atom_type_description
_atom_site_fract_x
_atom_site_fract_y
_atom_site_fract_z
_atom_type_partial_charge
Ba1   Ba    Ba6+2 0.849670 0.455410 0.524690 1.698381
Ba2   Ba    Ba6+2 0.340150 0.544510 0.475310 1.736060
C1    C     C_3   0.692965 0.118221 0.673994 0.240472
C2    C     C_R   0.899047 0.583688 0.175583 0.635513
C3    C     C_2   0.747413 0.528150 0.270059 -0.087238
C4    C     C_3   0.170498 0.207899 0.663756 0.252865
C5    C     C_3   0.705398 0.521370 0.323943 -0.117322
C6    C     C_1   0.983776 0.486821 0.344388 0.020884
C7    C     C_2   0.023890 0.487133 0.296974 -0.007223
C8    C     C_2   0.899934 0.509139 0.256499 0.245667
C9    C     C_R   0.018154 0.505542 0.102808 -0.094022
C10   C     C_R   0.062636 0.430348 0.132633 -0.029190
C11   C     C_R   0.146140 0.353638 0.111386 -0.054170
C12   C     C_3   0.665401 0.209337 0.648176 0.428028
C13   C     C_R   0.930880 0.582381 0.123796 -0.039687
C14   C     C_2   0.852779 0.530913 0.358306 -0.250941
C15   C     C_2   0.331086 0.461756 0.639030 -0.287514
C16   C     C_3   0.142692 0.173005 0.714910 -0.267150
C17   C     C_R   0.157186 0.415709 0.977662 0.022776
C18   C     C_R   0.079685 0.581566 0.972679 0.022467
C19   C     C_R   0.133869 0.496289 0.949394 0.037050
C20   C     C_R   0.200846 0.330816 0.952416 -0.099729
C21   C     C_R   0.225869 0.326134 0.901595 -0.046105
C22   C     C_R   0.210991 0.405990 0.873692 -0.025791
C23   C     C_3   0.534921 0.661313 0.623346 0.275009
C24   C     C_R   0.166478 0.491447 0.897581 -0.084339
C25   C     C_R   0.154722 0.571736 0.869672 -0.053462
C26   C     C_R   0.189855 0.565819 0.818389 0.600761
C27   C     C_R   0.239674 0.401460 0.822293 0.598419
C28   C     C_3   0.175549 0.242533 0.356401 0.932395
C29   C     C_2   0.408200 0.428544 0.728155 -0.082030
C30   C     C_3   0.429275 0.401994 0.673771 -0.059825
C31   C     C_1   0.206095 0.511041 0.655084 0.049522
C32   C     C_2   0.165020 0.515417 0.702542 -0.081410
C33   C     C_2   0.273740 0.475110 0.742515 0.195642
C34   C     C_3   0.522547 0.678737 0.679259 -0.338025
C35   C     C_R   0.133842 0.421927 0.029924 0.024439
C36   C     C_R   0.059381 0.502822 0.051640 0.050102
C37   C     C_R   0.022710 0.579960 0.022198 0.001763
C38   C     C_R   0.180514 0.349300 0.061228 -0.105129
C39   C     C_R   0.874653 0.653140 0.091625 0.062367
C40   C     C_3   0.075361 0.168410 0.326321 -0.306628
C41   C     C_R   0.087269 0.664302 0.945246 0.044095
C42   C     C_R   0.116905 0.657366 0.894183 -0.051464
C43   C     C_R   0.918861 0.649451 0.041801 -0.093249
C44   C     C_R   0.689557 0.058698 0.473368 0.091124
C45   C     C_3   0.198062 0.795013 0.340721 0.693921
C46   C     C_R   0.507217 0.194247 0.499529 0.093048
C47   C     C_R   0.367818 0.223802 0.522845 -0.222196
C48   C     C_R   0.273379 0.162922 0.547236 0.001684
C49   C     C_R   0.325406 0.069526 0.552008 -0.016828
C50   C     C_R   0.470788 0.038125 0.529887 -0.000666
C51   C     C_R   0.557860 0.098261 0.500571 -0.027086
C52   C     C_3   0.007193 0.747207 0.588623 0.326363
C53   C     C_R   0.662270 0.910469 0.511224 -0.020677
C54   C     C_R   0.758480 0.971678 0.486283 0.075698
C55   C     C_R   0.700966 0.814197 0.509741 0.056142
C56   C     C_3   0.258300 0.883109 0.318662 -0.296969
C57   C     C_R   0.837822 0.781266 0.486196 -0.225014
C58   C     C_R   0.946675 0.842276 0.468230 0.042968
C59   C     C_R   0.910645 0.938823 0.468921 -0.019666
C60   C     C_R   0.524068 0.945091 0.533904 -0.055898
C61   C     C_3   0.956888 0.839793 0.613999 -0.378949
C62   C     C_3   0.670847 0.336947 0.377839 0.390371
C63   C     C_3   0.745345 0.292715 0.330800 -0.237415
C64   C     C_3   0.641833 0.293895 0.282596 -0.355260
C65   C     C_3   0.761860 0.731503 0.107984 -0.320339
C66   C     C_3   0.091113 0.762053 0.969344 -0.413610
C67   C     C_3   0.677293 0.763588 0.336824 0.635441
C68   C     C_3   0.226127 0.002188 0.579048 -0.410472
C69   C     C_3   0.035049 0.004490 0.451470 -0.348947
C70   C     C_3   0.711002 0.083396 0.420092 -0.322309
C71   C     C_3   0.734671 0.826372 0.297547 -0.265613
C72   C     C_R   0.021639 0.432359 0.183008 0.586969
Cl1   Cl    Cl    0.586978 0.119298 0.729934 -0.674751
Cl2   Cl    Cl    0.122680 0.717495 0.291277 -0.698984
Cl3   Cl    Cl    0.609126 0.835892 0.387394 -0.773034
Cl4   Cl    Cl    0.283364 0.301094 0.311870 -0.746074
Cl5   Cl    Cl    0.304354 0.176801 0.395907 -0.765461
H1    H     H_    0.724869 0.203875 0.612105 0.027290
H2    H     H_    0.766315 0.373163 0.401241 -0.028456
H3    H     H_    0.574563 0.387810 0.368375 0.065307
H4    H     H_    0.648978 0.059336 0.648786 -0.010686
H5    H     H_    0.774837 0.218837 0.337151 0.129505
H6    H     H_    0.857705 0.328603 0.324376 0.056292
H7    H     H_    0.534056 0.217349 0.640130 -0.140771
H8    H     H_    0.418230 0.635382 0.607138 0.017813
H9    H     H_    0.629938 0.607758 0.616675 0.081708
H10   H     H_    0.421707 0.728032 0.687095 0.146900
H11   H     H_    0.500730 0.612236 0.696839 0.068169
H12   H     H_    0.004257 0.199208 0.295080 0.109079
H13   H     H_    0.636522 0.708688 0.695765 0.133714
H14   H     H_    0.822712 0.106673 0.683057 0.088611
H15   H     H_    0.251775 0.185431 0.739490 0.189792
H16   H     H_    0.299898 0.759032 0.360035 0.121107
H17   H     H_    0.350807 0.864633 0.291055 0.130912
H18   H     H_    0.156048 0.919730 0.299606 0.110586
H19   H     H_    0.312621 0.931288 0.348765 0.145308
H20   H     H_    0.781821 0.720623 0.349614 0.008443
H21   H     H_    0.831584 0.872423 0.313464 0.129460
H22   H     H_    0.634308 0.870362 0.283488 0.105427
H23   H     H_    0.155886 0.114065 0.308941 0.134133
H24   H     H_    0.182102 0.284989 0.667038 0.039404
H25   H     H_    0.781710 0.783133 0.265866 0.172256
H26   H     H_    0.146771 0.473773 0.287070 0.175975
H27   H     H_    0.184558 0.295629 0.133544 0.129531
H28   H     H_    0.491616 0.399623 0.755624 0.129926
H29   H     H_    0.258298 0.258993 0.884205 0.134290
H30   H     H_    0.211377 0.265591 0.970746 0.073509
H31   H     H_    0.247618 0.288724 0.048158 0.071894
H32   H     H_    0.652270 0.540343 0.242116 0.105520
H33   H     H_    0.282828 0.174404 0.650620 0.020406
H34   H     H_    0.995885 0.132370 0.350809 0.069462
H35   H     H_    0.117504 0.720820 0.873933 0.130789
H36   H     H_    0.051595 0.547575 0.712679 0.125838
H37   H     H_    0.864807 0.699743 0.017550 0.083285
H38   H     H_    0.848084 0.566713 0.394830 0.068719
H39   H     H_    0.347664 0.449489 0.599478 0.077245
H40   H     H_    0.328329 0.295661 0.520454 0.066611
H41   H     H_    0.862752 0.706947 0.483021 0.044943
H42   H     H_    0.038227 0.210418 0.731534 0.155354
H43   H     H_    0.457249 0.898506 0.554970 0.094219
H44   H     H_    0.118994 0.096707 0.711968 0.116206
H45   H     H_    0.897200 0.709099 0.575608 -0.003104
H46   H     H_    0.558264 0.234125 0.279896 0.206238
H47   H     H_    0.575430 0.360873 0.279417 0.159162
H48   H     H_    0.720489 0.284798 0.250371 0.127814
H49   H     H_    0.720214 0.774748 0.076641 0.082982
H50   H     H_    0.652567 0.701929 0.123188 0.143669
H51   H     H_    0.824197 0.779142 0.136412 0.162876
H52   H     H_    0.972715 0.797409 0.963145 0.122580
H53   H     H_    0.126082 0.762222 0.009619 0.127454
H54   H     H_    0.184163 0.804181 0.952653 0.125792
H55   H     H_    0.194312 0.940536 0.553795 0.100074
H56   H     H_    0.082282 0.760535 0.556791 -0.001248
H57   H     H_    0.296733 0.978978 0.612408 0.125120
H58   H     H_    0.110582 0.031173 0.591731 0.145962
H59   H     H_    0.008976 0.078371 0.462098 0.151286
H60   H     H_    0.154698 0.989306 0.469098 0.141530
H61   H     H_    0.043319 0.996352 0.410417 0.141890
H62   H     H_    0.594047 0.099614 0.401752 0.203732
H63   H     H_    0.798736 0.139846 0.417857 0.122780
H64   H     H_    0.754317 0.023164 0.396679 0.131526
H65   H     H_    0.864123 0.827790 0.641225 0.142104
H66   H     H_    0.907157 0.887923 0.586186 0.038995
H67   H     H_    0.061984 0.873329 0.634214 0.135782
N1    N     N_R   0.941815 0.508729 0.204223 -0.423073
N2    N     N_R   0.232818 0.481132 0.795070 -0.423294
O1    O     O_2   0.918080 0.549800 0.616640 -0.470896
O2    O     O_2   0.281481 0.832108 0.447734 -0.469462
O3    O     O_3   0.070511 0.819775 0.371553 -0.639834
O4    O     O_3   0.150070 0.549720 0.556460 -0.492530
O5    O     O_3   0.546340 0.387390 0.478340 -0.485090
O6    O     O_2   0.398940 0.728800 0.517420 -0.452499
O7    O     O_3   0.573434 0.745254 0.602734 -0.656950
O8    O     O_2   0.377491 0.563792 0.324375 -0.433223
O9    O     O_3   0.548165 0.709847 0.315991 -0.594974
O10   O     O_2   0.054972 0.365142 0.207826 -0.578387
O11   O     O_2   0.269693 0.325790 0.801658 -0.600280
O12   O     O_3   0.603522 0.265489 0.402776 -0.585528
O13   O     O_2   0.835867 0.652210 0.195562 -0.587677
O14   O     O_2   0.184681 0.636407 0.794847 -0.592641
O15   O     O_3   0.658250 0.379560 0.591530 -0.496989
O16   O     O_2   0.751812 0.467719 0.677880 -0.486599
O17   O     O_3   0.099153 0.697777 0.623030 -0.628550
O18   O     O_3   0.730031 0.284855 0.678044 -0.558095
O19   O     O_2   0.790750 0.271170 0.482550 -0.461150
O20   O     O_3   0.062300 0.331660 0.568480 -0.463537
O21   O     O_2   0.937695 0.167768 0.540091 -0.494080
O22   O     O_3   0.038851 0.183205 0.631713 -0.610117
O23   O     O_2   0.271610 0.450170 0.383330 -0.432317
O24   O     O_3   0.039630 0.450200 0.443530 -0.465194
O25   O     O_3   0.531440 0.620360 0.408460 -0.442724
O26   O     O_3   0.077283 0.299077 0.388505 -0.642248
O27   O     O_3   0.643350 0.612530 0.521650 -0.489413
O28   O     O_3   0.127390 0.668260 0.431510 -0.473823
P1    P     P_3+3 0.090020 0.577590 0.608380 0.993681
P2    P     P_3+3 0.614340 0.285150 0.467650 1.043770
P3    P     P_3+3 0.081131 0.210709 0.571242 0.951859
P4    P     P_3+3 0.099670 0.422330 0.391610 1.064948
P5    P     P_3+3 0.113875 0.790198 0.433136 0.969529
P6    P     P_3+3 0.643182 0.387429 0.656055 0.978830
P7    P     P_3+3 0.579575 0.726802 0.538102 0.951990
P8    P     P_3+3 0.542376 0.602272 0.343789 1.026000

loop_
_geom_bond_atom_site_label_1
_geom_bond_atom_site_label_2
_ccdc_geom_bond_type
C34   H10   S    
C71   H21   S    
C53   C54   A    
C57   H41   S    
C10   C72   A    
C23   O7    S    
O17   P1    S    
C67   Cl3   S    
O18   P6    S    
C55   P7    S    
C19   C24   A    
C27   N2    Am   
C46   P2    S    
O8    P8    D    
C26   O14   D    
C27   O11   D    
C64   H48   S    
C70   H63   S    
C24   C25   A    
Ba2   P4    S    
C5    P8    S    
C30   P6    S    
C66   H54   S    
C17   C19   A    
C22   C24   A    
C45   Cl2   S    
C32   C33   S    
C35   C38   A    
Ba2   O25   S    
C36   C37   A    
O7    P7    S    
C55   C57   A    
C52   C61   S    
Ba1   O19   S    
C7    H26   S    
C53   C60   A    
C23   H8    S    
O21   P3    D    
O28   P5    S    
Ba2   O23   S    
Ba1   O4    S    
Ba1   Ba2   S    
O4    P1    S    
C66   H53   S    
C56   H17   S    
C22   C27   A    
C11   C38   A    
C17   C35   A    
Ba2   O28   S    
C9    C13   A    
C25   C42   A    
C71   H25   S    
O25   P8    S    
C41   C66   S    
C56   H19   S    
C62   H3    S    
C67   O9    S    
C61   H65   S    
C67   C71   S    
C49   C68   S    
C12   H1    S    
C12   O18   S    
C1    Cl1   S    
C7    C8    S    
C61   H67   S    
C44   C70   S    
C8    N1    S    
C37   C43   A    
O24   P4    S    
C71   H22   S    
C42   H35   S    
C57   C58   A    
Ba2   O6    S    
O15   P6    S    
C68   H57   S    
C59   C69   S    
C65   H50   S    
C56   H18   S    
C15   C31   D    
C40   H23   S    
O3    P5    S    
C69   H59   S    
Ba2   O4    S    
C70   H62   S    
C4    C16   S    
C26   N2    Am   
C72   O10   D    
C31   P1    S    
C49   C50   A    
C72   N1    Am   
C17   C20   A    
C13   C39   A    
C39   C65   S    
C3    C5    S    
C18   C37   A    
C6    C7    D    
C63   H5    S    
C69   H60   S    
C3    H32   S    
Ba1   O20   S    
C32   H36   S    
C2    N1    Am   
C23   H9    S    
C64   H47   S    
C58   C59   A    
C28   Cl4   S    
C66   H52   S    
C41   C42   A    
C35   C36   A    
Ba2   O27   S    
Ba1   P2    S    
C6    P4    S    
C40   H34   S    
C29   C30   S    
C21   C22   A    
C20   H30   S    
O12   P2    S    
O6    P7    D    
C62   O12   S    
O1    P1    D    
C48   C49   A    
C1    H14   S    
C4    H24   S    
C10   C11   A    
Ba1   O5    S    
C12   H7    S    
C1    C12   S    
C15   H39   S    
C11   H27   S    
C28   Cl5   S    
C67   H20   S    
C46   C47   A    
O9    P8    S    
C45   O3    S    
C47   C48   A    
Ba2   O5    S    
C53   C55   A    
C1    H4    S    
C16   H15   S    
C29   C33   D    
O23   P4    D    
C65   H51   S    
C52   O17   S    
O26   P4    S    
C60   H43   S    
C18   C41   A    
C50   C51   A    
O27   P7    S    
C4    O22   S    
C34   H11   S    
C58   P5    S    
C52   H45   S    
O5    P2    S    
Ba1   O27   S    
C39   C43   A    
C54   C59   A    
C29   H28   S    
C5    C14   S    
Ba1   O1    S    
C38   H31   S    
C9    C10   A    
C63   H6    S    
C69   H61   S    
C46   C51   A    
O20   P3    S    
C16   H42   S    
C16   H44   S    
Ba1   O24   S    
C64   H46   S    
O22   P3    S    
C61   H66   S    
C62   C63   S    
C2    C13   A    
C48   P3    S    
C3    C8    D    
C50   C60   A    
C14   H38   S    
C45   C56   S    
C43   H37   S    
C34   H13   S    
C47   H40   S    
C70   H64   S    
O2    P5    D    
C21   H29   S    
C44   C51   A    
C31   C32   D    
C33   N2    S    
C2    O13   D    
C62   H2    S    
O16   P6    D    
C23   C34   S    
C52   H56   S    
O19   P2    D    
C18   C19   A    
Ba1   O15   S    
C68   H58   S    
C6    C14   D    
C63   C64   S    
C44   C54   A    
C25   C26   A    
C68   H55   S    
C15   C30   S    
C45   H16   S    
C20   C21   A    
C28   C40   S    
C9    C36   A    
C4    H33   S    
C65   H49   S    
Ba1   P1    S    
C28   O26   S    
C40   H12   S    
Ba2   O24   S    
