data_mof_unit_35179.cif
_audit_creation_date              2013-03-05T15:42:32-0500
_audit_creation_method            fapswitch 2.2
_symmetry_space_group_name_H-M    P1
_symmetry_Int_Tables_number       1
_space_group_crystal_system       triclinic
_cell_length_a                    6.929338
_cell_length_b                    14.768912
_cell_length_c                    16.172303
_cell_angle_alpha                 90.640308
_cell_angle_beta                  90.125356
_cell_angle_gamma                 90.111929
_cell_volume                      1654.94326088

loop_
_atom_site_label
_atom_site_type_symbol
_atom_site_description
_atom_site_fract_x
_atom_site_fract_y
_atom_site_fract_z
_atom_type_partial_charge
O1    O     O_R   0.494490 0.416160 0.413410 -0.556876
O2    O     O_R   0.823830 0.407240 0.585990 -0.567224
O3    O     O_R   0.994160 0.583840 0.586590 -0.563381
C1    C     C_R   0.654647 0.385727 0.614166 0.832760
O4    O     O_R   0.824200 0.405280 0.414020 -0.553466
O5    O     O_R   0.994530 0.581860 0.413390 -0.522518
C2    C     C_R   0.654420 0.382773 0.385937 0.910549
O6    O     O_R   0.494110 0.418140 0.586610 -0.568746
O7    O     O_3   0.660810 0.557940 0.500000 -0.263991
V1    V     V_3+5 0.935650 0.489250 0.500000 1.207428
O8    O     O_R   0.324250 0.592760 0.414010 -0.532936
C3    C     C_R   0.155235 0.612878 0.384390 0.924111
O9    O     O_R   0.323880 0.594720 0.585980 -0.580487
C4    C     C_R   0.154943 0.617163 0.614459 0.897913
V2    V     V_3+5 0.435660 0.510750 0.500000 1.204259
O10   O     O_3   0.160630 0.442060 0.500000 -0.289718
C5    C     C_3   0.118276 0.635781 0.770160 0.175098
H1    H     H_    0.258111 0.600320 0.780024 0.129226
C6    C     C_3   0.088640 0.704848 0.844781 0.500905
H2    H     H_    0.833600 0.716261 0.674129 0.059372
H3    H     H_    0.824084 0.833348 0.768335 0.114974
C7    C     C_3   0.973215 0.753618 0.672699 0.302568
C8    C     C_3   0.332468 0.742186 0.692571 -0.238818
C9    C     C_3   0.143020 0.685603 0.685502 -0.149089
H4    H     H_    0.357319 0.780222 0.634538 0.158558
H5    H     H_    0.459084 0.696905 0.700827 0.119361
C10   C     C_3   0.122954 0.804768 0.811304 -0.208165
C11   C     C_3   0.971907 0.826664 0.742730 -0.228703
C12   C     C_3   0.323008 0.809206 0.766666 -0.236032
H6    H     H_    0.443098 0.794805 0.809785 0.202203
H7    H     H_    0.349016 0.879007 0.743821 0.097303
H8    H     H_    0.005460 0.894307 0.716506 0.110089
C13   C     C_2   0.990473 0.689475 0.266344 0.281757
C14   C     C_2   0.144285 0.681598 0.318119 -0.260398
H9    H     H_    0.261900 0.730072 0.315420 0.098063
C15   C     C_2   0.968978 0.767237 0.208151 0.283318
C16   C     C_2   0.122994 0.806825 0.171174 -0.248497
H10   H     H_    0.267286 0.783042 0.185340 0.128944
C17   C     C_2   0.780427 0.207831 0.780729 -0.077719
C18   C     C_2   0.614691 0.176547 0.813523 -0.188667
H11   H     H_    0.917114 0.181954 0.803330 0.100480
H12   H     H_    0.476074 0.200458 0.792017 0.073598
C19   C     C_2   0.792057 0.276415 0.713946 -0.063359
C20   C     C_2   0.638533 0.318546 0.680740 -0.176789
H13   H     H_    0.935649 0.292645 0.691678 0.105301
H14   H     H_    0.493826 0.304333 0.702086 0.075827
C21   C     C_2   0.775937 0.191016 0.228001 0.332052
C22   C     C_2   0.620625 0.178774 0.177146 -0.227102
H15   H     H_    0.497977 0.223939 0.181713 0.091501
C23   C     C_2   0.789282 0.268070 0.288715 -0.101996
C24   C     C_2   0.636399 0.311999 0.320781 -0.229573
H16   H     H_    0.932055 0.285090 0.312049 0.146262
H17   H     H_    0.491222 0.293412 0.301974 0.104029
O11   O     O_R   0.770850 0.076180 0.907410 -0.582334
O12   O     O_R   0.440600 0.088970 0.079950 -0.543297
O13   O     O_R   0.270430 0.912340 0.080550 -0.526254
C25   C     C_R   0.609921 0.109341 0.110007 0.900483
O14   O     O_R   0.441120 0.087010 0.907980 -0.579781
O15   O     O_R   0.270950 0.910370 0.907350 -0.550201
C26   C     C_R   0.609799 0.108728 0.879929 0.810877
O16   O     O_R   0.770320 0.078150 0.080620 -0.530546
O17   O     O_3   0.604200 0.936340 0.994000 -0.227290
V3    V     V_3+5 0.329300 0.004970 0.993950 1.249234
O18   O     O_R   0.941240 0.899420 0.907920 -0.556071
C27   C     C_R   0.110459 0.876467 0.879826 0.866226
O19   O     O_R   0.940720 0.901380 0.079890 -0.503230
C28   C     C_R   0.109519 0.878815 0.107689 0.968051
V4    V     V_3+5 0.829310 0.983370 0.993880 1.283828
O20   O     O_3   0.104280 0.052120 0.993920 -0.288469
O21   O     O_3   0.979760 0.565592 0.769117 -0.664442
H18   H     H_    0.868946 0.583537 0.734401 0.327639
O22   O     O_3   0.990574 0.795274 0.595270 -0.725632
H19   H     H_    0.864574 0.824422 0.583526 0.309799
N1    N     N_R   0.840971 0.621631 0.266019 0.123011
O23   O     O_R   0.662166 0.643915 0.279491 -0.300255
O24   O     O_R   0.883198 0.537549 0.249471 -0.340746
N2    N     N_R   0.776615 0.795514 0.188327 0.124036
O25   O     O_R   0.681566 0.846081 0.240406 -0.327419
O26   O     O_R   0.686712 0.759076 0.125537 -0.241031
N3    N     N_R   0.935569 0.128816 0.225827 0.096513
O27   O     O_R   0.111559 0.159263 0.230934 -0.376777
O28   O     O_R   0.904679 0.042531 0.234799 -0.340012
N4    N     N_R   0.228016 0.679519 0.910347 0.082346
O29   O     O_R   0.221094 0.598159 0.940457 -0.248778
O30   O     O_R   0.348128 0.737126 0.943654 -0.313600
N5    N     N_R   0.892370 0.697834 0.880355 0.123040
O31   O     O_R   0.739508 0.691886 0.833789 -0.396925
O32   O     O_R   0.868461 0.702843 0.960119 -0.235555

loop_
_geom_bond_atom_site_label_1
_geom_bond_atom_site_label_2
_geom_bond_distance
_ccdc_geom_bond_type
O19   V4    2.008404 S    
C18   C26   1.477098 S    
C10   C12   1.565942 S    
C1    O6    1.292253 A    
C6    N5    1.481750 S    
C22   C25   1.486751 S    
C17   H11   1.086166 S    
O11   C26   1.295641 A    
N2    O25   1.300450 A    
O17   V3    2.159506 S    
N1    O24   1.301401 A    
O18   V4    2.010303 S    
C15   C16   1.358891 D    
C16   H10   1.085233 S    
C15   N2    1.434316 S    
O5    C3    1.294204 A    
N5    O32   1.302233 A    
O11   V4    2.010233 S    
O14   C26   1.295740 A    
V2    O10   2.157219 S    
C13   C15   1.500343 S    
C14   H9    1.084991 S    
C8    H5    1.112927 S    
C4    C9    1.524256 S    
O8    V2    2.008359 S    
C21   C22   1.363583 D    
V4    O20   2.157261 S    
O12   V3    2.005305 S    
C23   H16   1.086105 S    
C8    C9    1.558092 S    
O21   H18   0.988585 S    
O1    V2    2.009921 S    
C6    C10   1.595124 S    
O7    V1    2.159553 S    
C18   H12   1.082075 S    
O19   C28   1.297638 A    
C5    O21   1.411303 S    
C7    C11   1.555444 S    
O9    C4    1.301077 A    
C21   N3    1.439470 S    
C6    N4    1.484179 S    
C7    O22   1.406607 S    
C20   H14   1.082125 S    
C23   C24   1.345254 D    
C21   C23   1.497308 S    
N2    O26   1.300974 A    
C5    C9    1.571097 S    
N1    O23   1.300800 A    
V3    O20   1.708914 S    
C11   H8    1.113970 S    
N3    O28   1.301535 A    
C17   C18   1.348977 D    
O4    C2    1.301377 A    
N5    O31   1.300562 A    
O22   H19   0.993103 S    
C17   C19   1.491130 S    
C1    C20   1.476499 S    
C24   H17   1.084241 S    
O2    C1    1.298865 A    
C19   C20   1.347160 D    
C12   H6    1.106992 S    
C10   C27   1.526889 S    
N4    O29   1.302392 A    
C5    H1    1.114370 S    
O13   V3    2.010612 S    
C19   H13   1.086155 S    
O3    C4    1.295108 A    
C22   H15   1.083544 S    
N4    O30   1.300669 A    
H3    C11   1.109849 S    
H2    C7    1.113184 S    
O6    V2    2.009774 S    
O9    V2    2.010300 S    
C7    C9    1.563511 S    
C3    C14   1.486190 S    
O2    V1    2.009973 S    
C8    C12   1.547255 S    
O14   V3    2.010019 S    
O1    C2    1.291535 A    
N3    O27   1.301072 A    
O5    V1    2.010536 S    
O8    C3    1.300555 A    
C25   O16   1.293388 A    
O13   C28   1.298402 A    
O15   V3    2.007116 S    
O17   V4    1.706292 S    
O18   C27   1.302580 A    
O12   C25   1.302403 A    
O7    V2    1.707490 S    
C2    C24   1.480802 S    
O4    V1    2.005210 S    
C12   H7    1.113452 S    
O3    V1    2.007124 S    
V1    O10   1.708901 S    
O15   C27   1.294713 A    
O16   V4    2.013746 S    
C16   C28   1.489180 S    
C5    C6    1.585369 S    
C13   C14   1.359918 D    
C8    H4    1.112723 S    
C13   N1    1.439788 S    
C10   C11   1.560191 S    
