data_mof_unit_36734.cif
_audit_creation_date              2012-12-11T16:34:34-0500
_audit_creation_method            fapswitch 2.2
_symmetry_space_group_name_H-M    P1
_symmetry_Int_Tables_number       1
_space_group_crystal_system       triclinic
_cell_length_a                    8.462572
_cell_length_b                    17.233215
_cell_length_c                    26.782868
_cell_angle_alpha                 94.620674
_cell_angle_beta                  92.613869
_cell_angle_gamma                 83.91958
_cell_volume                      3868.63541756

loop_
_atom_site_label
_atom_site_type_symbol
_atom_type_description
_atom_site_fract_x
_atom_site_fract_y
_atom_site_fract_z
_atom_type_partial_charge
Ba1   Ba    Ba6+2 0.856110 0.463800 0.523550 1.720758
Ba2   Ba    Ba6+2 0.333710 0.536130 0.476450 1.702865
C1    C     C_3   0.709196 0.176663 0.666069 0.635159
C2    C     C_R   0.936103 0.598187 0.181871 0.597644
C3    C     C_2   0.769939 0.578794 0.277440 -0.129043
C4    C     C_3   0.199882 0.260390 0.659481 0.778323
C5    C     C_3   0.751877 0.597400 0.333164 -0.002263
C6    C     C_1   0.976584 0.495717 0.346108 -0.018086
C7    C     C_2   0.019547 0.501121 0.299178 -0.153052
C8    C     C_2   0.905413 0.537820 0.260966 0.236709
C9    C     C_R   0.018266 0.520243 0.105737 -0.092145
C10   C     C_R   0.022256 0.452307 0.132035 -0.020130
C11   C     C_R   0.063499 0.379302 0.106391 -0.068723
C12   C     C_3   0.679771 0.254635 0.641592 0.419021
C13   C     C_R   0.973450 0.593442 0.130745 -0.061067
C14   C     C_2   0.840170 0.533027 0.362682 -0.203749
C15   C     C_2   0.350123 0.481208 0.641242 -0.255094
C16   C     C_3   0.123058 0.297418 0.707472 0.284241
C17   C     C_R   0.175360 0.437901 0.981183 -0.115899
C18   C     C_R   0.058896 0.573091 0.973713 0.048896
C19   C     C_R   0.133745 0.501993 0.951430 -0.006715
C20   C     C_R   0.272523 0.372248 0.959973 0.372976
C21   C     C_R   0.297666 0.363671 0.908527 0.437734
C22   C     C_R   0.250507 0.426107 0.877642 -0.151822
C23   C     C_3   0.628472 0.655007 0.634008 0.283699
C24   C     C_R   0.168017 0.495322 0.899322 -0.164353
C25   C     C_R   0.119251 0.557882 0.869030 -0.010179
C26   C     C_R   0.166065 0.552562 0.818401 0.610089
C27   C     C_R   0.290659 0.422505 0.826462 0.609892
C28   C     C_3   0.178296 0.277289 0.352034 0.635738
C29   C     C_2   0.430380 0.446718 0.728066 -0.104785
C30   C     C_3   0.450810 0.425099 0.672803 -0.059953
C31   C     C_1   0.209040 0.511807 0.656992 0.042734
C32   C     C_2   0.166002 0.508242 0.704075 -0.133548
C33   C     C_2   0.286127 0.479328 0.743838 0.177539
C34   C     C_3   0.627250 0.678466 0.690421 -0.046336
C35   C     C_R   0.116896 0.441585 0.030670 0.042497
C36   C     C_R   0.058695 0.514860 0.054313 0.005893
C37   C     C_R   0.040581 0.582521 0.026818 0.019100
C38   C     C_R   0.108231 0.374013 0.056641 -0.105403
C39   C     C_R   0.971507 0.660976 0.104704 -0.115152
C40   C     C_3   0.055552 0.216115 0.343787 0.612340
C41   C     C_R   0.996648 0.630756 0.941755 -0.072069
C42   C     C_R   0.024329 0.623970 0.890367 0.190944
C43   C     C_R   0.007335 0.656769 0.053663 0.364351
C44   C     C_R   0.422521 0.285483 0.528020 -0.275337
C45   C     C_3   0.091694 0.710608 0.345382 0.288560
C46   C     C_R   0.565780 0.261232 0.504484 0.063401
C47   C     C_R   0.628643 0.182582 0.504003 -0.172557
C48   C     C_R   0.543056 0.127348 0.523461 0.006601
C49   C     C_R   0.394313 0.151207 0.544137 -0.035779
C50   C     C_R   0.333529 0.230318 0.546082 -0.016288
C51   C     C_R   0.595306 0.841456 0.519516 0.300266
C52   C     C_3   0.020898 0.702657 0.579726 0.336594
C53   C     C_R   0.637316 0.759902 0.511578 -0.040193
C54   C     C_R   0.870431 0.782083 0.467173 0.068303
C55   C     C_R   0.831368 0.863704 0.474414 0.274429
C56   C     C_3   0.082874 0.740100 0.293301 -0.322654
C57   C     C_R   0.691396 0.893278 0.500384 -0.079320
C58   C     C_1   0.643941 0.976516 0.508965 0.062115
C59   C     C_1   0.599170 0.045298 0.516223 0.036791
C60   C     C_R   0.768684 0.731625 0.483088 -0.326772
C61   C     C_3   0.022600 0.790808 0.591954 -0.051108
C62   C     C_3   0.664106 0.320651 0.358242 0.852225
C63   C     C_3   0.672328 0.257103 0.312858 0.154535
C64   C     C_3   0.893534 0.903412 0.640752 -0.178741
C65   C     C_3   0.535736 0.417390 0.300319 -0.199418
C66   C     C_3   0.348125 0.722817 0.709537 -0.145536
C67   C     C_3   0.575520 0.784060 0.344487 0.774505
C68   C     C_3   0.377674 0.881681 0.389914 -0.131041
C69   C     C_3   0.684718 0.844540 0.216988 -0.191749
C70   C     C_3   0.804294 0.664037 0.834656 -0.162995
C71   C     C_3   0.224946 0.268701 0.258857 -0.250149
C72   C     C_3   0.336429 0.195349 0.412365 -0.128577
C73   C     C_3   0.567483 0.788198 0.286494 0.419645
C74   C     C_R   0.981778 0.458736 0.183067 0.592221
H1    H     H_    0.731795 0.247947 0.603941 0.022055
H2    H     H_    0.601329 0.593309 0.626599 0.043553
H3    H     H_    0.748855 0.661700 0.622529 0.039404
H4    H     H_    0.648320 0.741074 0.697750 0.102985
H5    H     H_    0.727900 0.643455 0.708905 0.076712
H6    H     H_    0.678122 0.187304 0.706172 0.097644
H7    H     H_    0.216781 0.317749 0.733995 0.034348
H8    H     H_    0.205191 0.674963 0.351435 0.133651
H9    H     H_    0.995092 0.672963 0.347811 0.023644
H10   H     H_    0.141019 0.694676 0.266375 0.143977
H11   H     H_    0.956813 0.753865 0.281098 0.153708
H12   H     H_    0.965709 0.240372 0.317834 0.053106
H13   H     H_    0.141813 0.794467 0.293386 0.171751
H14   H     H_    0.269926 0.305611 0.646646 -0.206075
H15   H     H_    0.604561 0.729039 0.269306 0.070820
H16   H     H_    0.139718 0.481085 0.288239 0.086227
H17   H     H_    0.061690 0.325669 0.124772 0.119177
H18   H     H_    0.525313 0.428289 0.754470 0.135415
H19   H     H_    0.131425 0.315926 0.038455 0.137018
H20   H     H_    0.681476 0.602999 0.250883 0.094044
H21   H     H_    0.944394 0.717967 0.124368 0.109026
H22   H     H_    0.916291 0.679920 0.955438 0.134876
H23   H     H_    0.902976 0.689188 0.564665 -0.097498
H24   H     H_    0.044515 0.527216 0.714178 0.125148
H25   H     H_    0.799660 0.523466 0.399341 0.100977
H26   H     H_    0.392524 0.493804 0.605382 0.073712
H27   H     H_    0.323653 0.108284 0.556862 0.100279
H28   H     H_    0.736784 0.163250 0.484428 0.107948
H29   H     H_    0.371494 0.345668 0.527197 0.080335
H30   H     H_    0.041526 0.349653 0.698533 0.068019
H31   H     H_    0.800880 0.669207 0.476994 0.076236
H32   H     H_    0.036087 0.115915 0.305642 0.283938
H33   H     H_    0.922018 0.160385 0.383124 0.287387
H34   H     H_    0.107517 0.683555 0.550650 0.064292
H35   H     H_    0.784736 0.806505 0.611975 0.191157
H36   H     H_    0.870076 0.939283 0.608012 0.114190
H37   H     H_    0.009032 0.915476 0.659593 0.126092
H38   H     H_    0.798101 0.920294 0.667838 0.118512
H39   H     H_    0.840781 0.369704 0.336645 0.261373
H40   H     H_    0.433244 0.358160 0.350275 0.204532
H41   H     H_    0.428967 0.459394 0.297860 0.151197
H42   H     H_    0.519753 0.374782 0.267638 0.129319
H43   H     H_    0.644000 0.446980 0.296903 0.110991
H44   H     H_    0.887922 0.126530 0.628296 0.314345
H45   H     H_    0.010130 0.821186 0.556918 0.038304
H46   H     H_    0.738495 0.238468 0.244130 0.309664
H47   H     H_    0.624499 0.076228 0.662125 0.314162
H48   H     H_    0.452258 0.606728 0.705665 0.191016
H49   H     H_    0.251060 0.708058 0.732425 0.158851
H50   H     H_    0.302398 0.726073 0.670300 0.144630
H51   H     H_    0.383781 0.780685 0.724438 0.105498
H52   H     H_    0.799618 0.799701 0.353625 0.296241
H53   H     H_    0.620806 0.890978 0.386827 0.181072
H54   H     H_    0.358307 0.945627 0.400136 0.090151
H55   H     H_    0.373773 0.850593 0.424372 0.176572
H56   H     H_    0.139455 0.802196 0.610165 0.102158
H57   H     H_    0.281981 0.865981 0.362577 0.162983
H58   H     H_    0.663857 0.896743 0.289248 0.186025
H59   H     H_    0.788256 0.875609 0.209135 0.108152
H60   H     H_    0.574947 0.876476 0.201368 0.127634
H61   H     H_    0.700682 0.784680 0.198118 0.165737
H62   H     H_    0.385764 0.866258 0.277894 0.303957
H63   H     H_    0.305635 0.271878 0.863298 0.325925
H64   H     H_    0.388152 0.344524 0.020802 0.296308
H65   H     H_    0.241863 0.150795 0.673635 0.332350
H66   H     H_    0.939186 0.738494 0.878656 0.202350
H67   H     H_    0.730355 0.200150 0.324178 0.022115
H68   H     H_    0.823816 0.608130 0.810971 0.125583
H69   H     H_    0.712514 0.658819 0.862279 0.086714
H70   H     H_    0.760007 0.711030 0.809963 0.119616
H71   H     H_    0.999187 0.770784 0.055118 0.306254
H72   H     H_    0.399521 0.831520 0.553676 0.320414
H73   H     H_    0.893850 0.967275 0.464043 0.296415
H74   H     H_    0.113392 0.213391 0.750909 0.316124
H75   H     H_    0.092113 0.353843 0.298856 0.178676
H76   H     H_    0.263569 0.306974 0.231100 0.141196
H77   H     H_    0.116062 0.243181 0.243095 0.156677
H78   H     H_    0.551141 0.245964 0.300104 0.011832
H79   H     H_    0.320340 0.220586 0.263276 0.111939
H80   H     H_    0.379948 0.196774 0.338829 0.194000
H81   H     H_    0.460667 0.171507 0.420391 0.067980
H82   H     H_    0.265600 0.144302 0.408387 0.154384
H83   H     H_    0.291734 0.236360 0.443711 0.107315
H84   H     H_    0.548828 0.268336 0.636940 -0.061851
N1    N     N_R   0.941365 0.531365 0.207799 -0.419516
N2    N     N_2   0.330423 0.235055 0.366511 -0.429736
N3    N     N_R   0.247586 0.484932 0.797145 -0.424351
N4    N     N_2   0.895231 0.821178 0.624800 -0.417395
N5    N     N_2   0.538215 0.381121 0.347533 -0.416489
N6    N     N_2   0.481223 0.663214 0.712401 -0.427225
N7    N     N_2   0.531331 0.862827 0.368098 -0.479633
N8    N     N_2   0.674545 0.841766 0.270618 -0.468259
N9    N     N_2   0.950968 0.683298 0.860313 -0.383220
N10   N     N_2   0.190603 0.315624 0.305483 -0.489361
O1    O     O_2   0.910880 0.540430 0.617910 -0.476918
O2    O     O_2   0.199026 0.774762 0.471011 -0.463042
O3    O     O_3   0.079389 0.774383 0.381358 -0.579709
O4    O     O_3   0.142880 0.540370 0.557740 -0.488293
O5    O     O_3   0.562610 0.408580 0.475460 -0.474884
O6    O     O_2   0.365880 0.685750 0.523280 -0.456668
O7    O     O_3   0.519182 0.705132 0.608138 -0.662303
O8    O     O_2   0.419466 0.592082 0.317803 -0.550969
O9    O     O_3   0.468219 0.731723 0.358345 -0.580229
O10   O     O_2   0.980536 0.399590 0.205237 -0.598197
O11   O     O_2   0.366122 0.363754 0.808128 -0.586384
O12   O     O_3   0.624569 0.281872 0.399930 -0.662580
O13   O     O_2   0.899949 0.662231 0.203436 -0.640106
O14   O     O_2   0.138653 0.609264 0.793661 -0.588104
O15   O     O_3   0.675650 0.402220 0.588450 -0.488399
O16   O     O_2   0.768947 0.465851 0.677722 -0.501134
O17   O     O_3   0.058832 0.664689 0.623519 -0.640493
O18   O     O_3   0.749230 0.314066 0.671618 -0.581302
O19   O     O_2   0.823810 0.314230 0.476690 -0.381021
O20   O     O_3   0.086630 0.363340 0.564170 -0.472713
O21   O     O_2   0.006577 0.224011 0.528176 -0.475195
O22   O     O_3   0.124428 0.144062 0.321628 -0.783608
O23   O     O_3   0.080923 0.238378 0.624027 -0.587697
O24   O     O_3   0.987583 0.204925 0.389402 -0.686015
O25   O     O_3   0.807974 0.352487 0.368451 -0.719848
O26   O     O_3   0.869537 0.146452 0.663620 -0.683524
O27   O     O_3   0.746634 0.280778 0.271521 -0.765796
O28   O     O_3   0.612135 0.122650 0.642087 -0.756958
O29   O     O_3   0.731201 0.759088 0.360914 -0.821213
O30   O     O_3   0.411090 0.809371 0.269000 -0.746369
O31   O     O_3   0.376433 0.293969 0.890110 -0.626582
O32   O     O_3   0.354952 0.317231 0.988628 -0.681164
O33   O     O_3   0.305872 0.194937 0.669995 -0.746715
O34   O     O_2   0.278810 0.459550 0.382060 -0.491406
O35   O     O_3   0.024100 0.724688 0.031111 -0.740820
O36   O     O_3   0.465054 0.873094 0.546497 -0.718020
O37   O     O_3   0.933538 0.911701 0.456564 -0.709995
O38   O     O_3   0.036830 0.244827 0.729444 -0.654834
O39   O     O_3   0.046820 0.459570 0.442260 -0.426628
O40   O     O_3   0.514050 0.597710 0.411540 -0.426748
O41   O     O_3   0.129008 0.332608 0.393076 -0.566360
O42   O     O_3   0.627090 0.591350 0.524530 -0.472310
O43   O     O_3   0.103080 0.636600 0.435820 -0.512408
P1    P     P_3+3 0.078810 0.562990 0.610370 0.988529
P2    P     P_3+3 0.645380 0.325580 0.462150 1.100773
P3    P     P_3+3 0.128106 0.262087 0.564643 0.994470
P4    P     P_3+3 0.110900 0.436950 0.389630 1.043636
P5    P     P_3+3 0.061587 0.739712 0.440143 1.017978
P6    P     P_3+3 0.661786 0.404759 0.653381 0.955399
P7    P     P_3+3 0.543216 0.686806 0.543363 0.939183
P8    P     P_3+3 0.542438 0.631248 0.353181 0.982652

loop_
_geom_bond_atom_site_label_1
_geom_bond_atom_site_label_2
_ccdc_geom_bond_type
C19   C24   A    
C62   O25   S    
O15   P6    S    
C64   H37   S    
C27   N3    Am   
H47   O28   S    
C41   H22   S    
C50   P3    S    
C41   C42   A    
C56   H11   S    
H73   O37   S    
C47   H28   S    
C54   P5    S    
C51   C57   A    
C69   H61   S    
C73   O30   S    
C24   C25   A    
H44   O26   S    
H75   N10   S    
C27   O11   D    
C72   H83   S    
O9    P8    S    
C45   H9    S    
C17   C19   A    
C22   C24   A    
C32   C33   S    
C35   C38   A    
C69   H59   S    
C36   C37   A    
C63   H67   S    
C23   O7    S    
C55   C57   A    
C52   C61   S    
C63   O27   S    
C49   H27   S    
C70   H69   S    
C53   C60   A    
C44   C50   A    
C2    O13   D    
C68   H54   S    
C1    O28   S    
C54   C55   A    
C52   H34   S    
C16   O38   S    
Ba1   Ba2   S    
C12   H1    S    
C40   O24   S    
C42   N9    S    
C28   N10   S    
C11   C38   A    
C6    P4    S    
C17   C35   A    
Ba2   O6    S    
C22   C27   A    
O1    P1    D    
C9    C13   A    
C25   C42   A    
C6    C7    D    
Ba1   P2    S    
Ba2   P4    S    
C32   H24   S    
C21   C22   A    
O8    P8    D    
C73   N8    S    
O19   P2    D    
C7    C8    S    
C73   H15   S    
C37   C43   A    
C62   O12   S    
Ba1   O20   S    
C65   N5    S    
O17   P1    S    
H80   N2    S    
C57   C58   S    
C6    C14   D    
O40   P8    S    
Ba1   O42   S    
C74   N1    Am   
C15   C31   D    
C4    C16   S    
C56   H10   S    
C7    H16   S    
C61   H45   S    
C62   N5    S    
C48   C49   A    
C51   C53   A    
C61   N4    S    
O41   P4    S    
C44   C46   A    
Ba1   O4    S    
Ba2   O40   S    
C20   O32   S    
Ba1   O39   S    
C23   H2    S    
C17   C20   A    
Ba2   O34   S    
C13   C39   A    
C34   H4    S    
C69   H60   S    
C3    C5    S    
C18   C37   A    
C72   H82   S    
C60   H31   S    
O42   P7    S    
C51   O36   S    
C4    H14   S    
Ba1   O1    S    
C33   N3    S    
C49   C50   A    
H53   N7    S    
C11   H17   S    
C58   C59   T    
O4    P1    S    
O5    P2    S    
C9    C36   A    
C15   H26   S    
C16   H30   S    
C35   C36   A    
H64   O32   S    
O21   P3    D    
C68   H57   S    
C12   O18   S    
C29   C30   S    
C34   H5    S    
O43   P5    S    
C71   H79   S    
C1    H6    S    
C34   N6    S    
C16   H7    S    
C64   N4    S    
H33   O24   S    
C45   H8    S    
C18   C19   A    
O3    P5    S    
C65   H41   S    
C66   H51   S    
C45   O3    S    
C1    C12   S    
C61   H56   S    
H66   N9    S    
H48   N6    S    
C46   C47   A    
C21   O31   S    
C8    N1    S    
Ba1   O15   S    
C52   O17   S    
C10   C74   A    
Ba2   O5    S    
H63   O31   S    
O12   P2    S    
C39   H21   S    
H40   N5    S    
C40   H12   S    
C28   N2    S    
O7    P7    S    
C71   H77   S    
C66   H50   S    
C28   O41   S    
C3    H20   S    
O2    P5    D    
O23   P3    S    
C72   N2    S    
O18   P6    S    
C70   H68   S    
H39   O25   S    
Ba1   O5    S    
Ba2   O39   S    
C43   O35   S    
C64   H38   S    
C72   H81   S    
C23   H3    S    
C28   C40   S    
C48   C59   S    
C5    C14   S    
H35   N4    S    
H65   O33   S    
C74   O10   D    
C31   P1    S    
C53   P7    S    
H72   O36   S    
C29   H18   S    
O16   P6    D    
C55   O37   S    
Ba2   O42   S    
C1    O26   S    
O34   P4    D    
C69   N8    S    
O39   P4    S    
C62   C63   S    
C2    C13   A    
C26   O14   D    
H52   O29   S    
H74   O38   S    
C3    C8    D    
C71   H76   S    
C68   N7    S    
Ba2   O4    S    
C45   C56   S    
C70   N9    S    
C44   H29   S    
O20   P3    S    
C67   O29   S    
C5    P8    S    
C29   C33   D    
C68   H55   S    
C31   C32   D    
C56   H13   S    
C67   C73   S    
C54   C60   A    
C2    N1    Am   
H46   O27   S    
C52   H23   S    
C65   H42   S    
C18   C41   A    
C46   P2    S    
C30   P6    S    
C23   C34   S    
H62   O30   S    
C40   O22   S    
C14   H25   S    
C4    O33   S    
C10   C11   A    
C26   N3    Am   
Ba2   O43   S    
H71   O35   S    
C47   C48   A    
O6    P7    D    
C12   H84   S    
Ba1   P1    S    
C70   H70   S    
C15   C30   S    
C39   C43   A    
C20   C21   A    
H32   O22   S    
C67   N7    S    
C38   H19   S    
C63   H78   S    
C64   H36   S    
C71   N10   S    
H58   N8    S    
C65   H43   S    
C66   H49   S    
C4    O23   S    
C67   O9    S    
C9    C10   A    
Ba1   O19   S    
C25   C26   A    
C66   N6    S    
