data_mof_unit_17711.cif
_audit_creation_date              2012-12-11T15:07:05-0500
_audit_creation_method            fapswitch 2.2
_symmetry_space_group_name_H-M    P1
_symmetry_Int_Tables_number       1
_space_group_crystal_system       triclinic
_cell_length_a                    19.635615
_cell_length_b                    11.353558
_cell_length_c                    18.710253
_cell_angle_alpha                 90.022004
_cell_angle_beta                  90.088159
_cell_angle_gamma                 89.791611
_cell_volume                      4171.12047186

loop_
_atom_site_label
_atom_site_type_symbol
_atom_type_description
_atom_site_fract_x
_atom_site_fract_y
_atom_site_fract_z
_atom_type_partial_charge
C1    C     C_R   0.761279 0.523466 0.639211 0.538900
C2    C     C_R   0.238692 0.523660 0.360807 0.539083
C3    C     C_R   0.261279 0.023466 0.639211 0.538896
C4    C     C_R   0.738692 0.023660 0.360807 0.539084
C5    C     C_3   0.810796 0.130383 0.449011 -0.260332
C6    C     C_3   0.188963 0.130531 0.551021 -0.260418
C7    C     C_3   0.310796 0.630381 0.449010 -0.260324
C8    C     C_3   0.688966 0.630540 0.551022 -0.260423
C9    C     C_3   0.747037 0.056752 0.436738 0.066913
C10   C     C_3   0.252858 0.056615 0.563290 0.066710
C11   C     C_3   0.247037 0.556750 0.436738 0.066913
C12   C     C_3   0.752858 0.556615 0.563290 0.066722
C13   C     C_3   0.760117 0.090673 0.574171 0.066621
C14   C     C_3   0.239876 0.090691 0.425842 0.066497
C15   C     C_3   0.260118 0.590674 0.574171 0.066625
C16   C     C_3   0.739878 0.590692 0.425843 0.066489
C17   C     C_3   0.753629 0.958579 0.561883 -0.262320
C18   C     C_3   0.246634 0.958539 0.438070 -0.262017
C19   C     C_3   0.253635 0.458576 0.561885 -0.262295
C20   C     C_3   0.746646 0.458545 0.438073 -0.262063
C21   C     C_3   0.823084 0.133366 0.529985 -0.216129
C22   C     C_3   0.176804 0.133710 0.470015 -0.216013
C23   C     C_3   0.323084 0.633367 0.529983 -0.216131
C24   C     C_3   0.676804 0.633709 0.470016 -0.216012
C25   C     C_3   0.003824 0.205494 0.458870 -0.232638
C26   C     C_3   0.996161 0.205343 0.540868 -0.233040
C27   C     C_3   0.503822 0.705492 0.458868 -0.232636
C28   C     C_3   0.496159 0.705342 0.540866 -0.233040
C29   C     C_3   0.064568 0.405787 0.474407 -0.213045
C30   C     C_3   0.935291 0.405962 0.525667 -0.213051
C31   C     C_3   0.564564 0.905785 0.474403 -0.213044
C32   C     C_3   0.435291 0.905963 0.525668 -0.213047
C33   C     C_3   0.941473 0.390698 0.444549 -0.262530
C34   C     C_3   0.058463 0.390048 0.555468 -0.262282
C35   C     C_3   0.441469 0.890697 0.444550 -0.262529
C36   C     C_3   0.558463 0.890046 0.555465 -0.262286
C37   C     C_3   0.010500 0.333429 0.430905 0.064945
C38   C     C_3   0.989501 0.333189 0.569056 0.064542
C39   C     C_3   0.510495 0.833427 0.430903 0.064944
C40   C     C_3   0.489502 0.833188 0.569056 0.064537
C41   C     C_3   0.818919 0.015760 0.046776 0.178789
C42   C     C_3   0.187073 0.001461 0.956498 0.174242
C43   C     C_3   0.318919 0.515760 0.046776 0.178789
C44   C     C_3   0.687073 0.501461 0.956498 0.174242
C45   C     C_R   0.774097 0.121053 0.649472 0.538081
C46   C     C_R   0.225887 0.121188 0.350530 0.536665
C47   C     C_R   0.274101 0.621064 0.649471 0.538106
C48   C     C_R   0.725887 0.621189 0.350530 0.536669
C49   C     C_3   0.824328 0.035670 0.966938 -0.183480
C50   C     C_3   0.182566 0.014699 0.037010 -0.184587
C51   C     C_3   0.324328 0.535670 0.966938 -0.183479
C52   C     C_3   0.682565 0.514700 0.037010 -0.184588
C53   C     C_3   0.692832 0.015168 0.032299 -0.267693
C54   C     C_3   0.316967 0.033344 0.968467 -0.266772
C55   C     C_3   0.192832 0.515168 0.032299 -0.267693
C56   C     C_3   0.816967 0.533343 0.968467 -0.266772
C57   C     C_3   0.751477 0.201642 0.061558 -0.246016
C58   C     C_3   0.240060 0.196716 0.939015 -0.241703
C59   C     C_3   0.251477 0.701642 0.061558 -0.246016
C60   C     C_3   0.740060 0.696716 0.939015 -0.241703
C61   C     C_3   0.751285 0.070395 0.075767 0.080129
C62   C     C_3   0.251110 0.066427 0.925882 0.077837
C63   C     C_3   0.251285 0.570396 0.075767 0.080129
C64   C     C_3   0.751110 0.566426 0.925882 0.077838
C65   C     C_3   0.761664 0.104038 0.936530 0.033286
C66   C     C_3   0.239213 0.097773 0.065081 0.029361
C67   C     C_3   0.261664 0.604038 0.936530 0.033286
C68   C     C_3   0.739213 0.597773 0.065081 0.029361
C69   C     C_3   0.700427 0.025392 0.949973 -0.279958
C70   C     C_3   0.307141 0.037985 0.050554 -0.276529
C71   C     C_3   0.200427 0.525392 0.949973 -0.279958
C72   C     C_3   0.807141 0.537984 0.050554 -0.276529
C73   C     C_3   0.747581 0.218785 0.979818 -0.233220
C74   C     C_3   0.237458 0.212083 0.020988 -0.235099
C75   C     C_3   0.247581 0.718785 0.979818 -0.233220
C76   C     C_3   0.737459 0.712083 0.020988 -0.235100
C77   C     C_3   0.996862 0.483467 0.041918 -0.230094
C78   C     C_3   0.991303 0.482921 0.960920 -0.222809
C79   C     C_3   0.496862 0.983467 0.041918 -0.230093
C80   C     C_3   0.491303 0.982921 0.960920 -0.222809
C81   C     C_3   0.067575 0.298951 0.025384 -0.228260
C82   C     C_3   0.938023 0.274440 0.973929 -0.205408
C83   C     C_3   0.567575 0.798950 0.025385 -0.228260
C84   C     C_3   0.438023 0.774440 0.973929 -0.205407
C85   C     C_3   0.946023 0.287416 0.055380 -0.235217
C86   C     C_3   0.057703 0.303133 0.943600 -0.261680
C87   C     C_3   0.446023 0.787417 0.055380 -0.235218
C88   C     C_3   0.557703 0.803133 0.943601 -0.261681
C89   C     C_R   0.969068 0.342125 0.645038 0.537091
C90   C     C_R   0.030950 0.342320 0.354957 0.537319
C91   C     C_R   0.469069 0.842125 0.645039 0.537087
C92   C     C_R   0.530946 0.842320 0.354955 0.537309
C93   C     C_3   0.009858 0.356169 0.069481 0.034075
C94   C     C_3   0.987747 0.354512 0.931015 0.047890
C95   C     C_3   0.509858 0.856169 0.069481 0.034075
C96   C     C_3   0.487747 0.854512 0.931015 0.047890
C97   C     C_R   0.760365 0.533135 0.848981 0.547472
C98   C     C_R   0.240662 0.536012 0.152347 0.552417
C99   C     C_R   0.260365 0.033135 0.848981 0.547472
C100  C     C_R   0.740662 0.036012 0.152347 0.552418
C101  C     C_R   0.774447 0.132908 0.859112 0.535579
C102  C     C_R   0.226430 0.129767 0.142156 0.532055
C103  C     C_R   0.274446 0.632908 0.859112 0.535581
C104  C     C_R   0.726430 0.629767 0.142156 0.532056
C105  C     C_R   0.967131 0.353910 0.854537 0.536593
C106  C     C_R   0.031562 0.354222 0.146096 0.533971
C107  C     C_R   0.467131 0.853910 0.854537 0.536593
C108  C     C_R   0.531562 0.854222 0.146096 0.533970
C109  C     C_3   0.687128 0.132183 0.465259 -0.234535
C110  C     C_3   0.312503 0.132023 0.534867 -0.234367
C111  C     C_3   0.187127 0.632182 0.465258 -0.234535
C112  C     C_3   0.812505 0.632019 0.534867 -0.234364
C113  C     C_3   0.692500 0.145566 0.546436 -0.231423
C114  C     C_3   0.307287 0.145222 0.453686 -0.231577
C115  C     C_3   0.192497 0.645558 0.546435 -0.231410
C116  C     C_3   0.807285 0.645229 0.453686 -0.231592
C117  C     C_3   0.756640 0.939580 0.480593 -0.217374
C118  C     C_3   0.243525 0.939533 0.519346 -0.217346
C119  C     C_3   0.256638 0.439577 0.480592 -0.217369
C120  C     C_3   0.743520 0.439534 0.519345 -0.217359
Cr1   Cr    Cr6+3 0.885690 0.492860 0.745310 0.989181
Cr2   Cr    Cr6+3 0.114310 0.492860 0.254690 0.989459
Cr3   Cr    Cr6+3 0.385690 0.992860 0.745310 0.989180
Cr4   Cr    Cr6+3 0.614310 0.992860 0.254690 0.989459
Cr5   Cr    Cr6+3 0.729880 0.332270 0.748190 0.994647
Cr6   Cr    Cr6+3 0.270120 0.332270 0.251810 0.995384
Cr7   Cr    Cr6+3 0.229880 0.832270 0.748190 0.994644
Cr8   Cr    Cr6+3 0.770120 0.832270 0.251810 0.995385
Cr9   Cr    Cr6+3 0.888120 0.178590 0.753010 0.992845
Cr10  Cr    Cr6+3 0.111880 0.178590 0.246990 0.990560
Cr11  Cr    Cr6+3 0.388120 0.678590 0.753010 0.992842
Cr12  Cr    Cr6+3 0.611880 0.678590 0.246990 0.990560
H1    H     H_    0.638136 0.095586 0.450447 0.131171
H2    H     H_    0.361626 0.095851 0.549923 0.131382
H3    H     H_    0.138136 0.595589 0.450442 0.131172
H4    H     H_    0.861626 0.595838 0.549918 0.131382
H5    H     H_    0.863888 0.067981 0.540399 0.126328
H6    H     H_    0.136229 0.068491 0.459515 0.126635
H7    H     H_    0.363890 0.567985 0.540401 0.126321
H8    H     H_    0.636234 0.568481 0.459522 0.126637
H9    H     H_    0.809193 0.909091 0.469609 0.125296
H10   H     H_    0.191027 0.909369 0.530216 0.125118
H11   H     H_    0.309189 0.409084 0.469606 0.125291
H12   H     H_    0.691012 0.409392 0.530197 0.125118
H13   H     H_    0.795907 0.910563 0.588752 0.120558
H14   H     H_    0.204529 0.910676 0.411107 0.120608
H15   H     H_    0.295926 0.410570 0.588747 0.120558
H16   H     H_    0.704566 0.410663 0.411096 0.120609
H17   H     H_    0.046270 0.150989 0.441930 0.130898
H18   H     H_    0.953559 0.151504 0.557590 0.130599
H19   H     H_    0.546271 0.650986 0.441930 0.130897
H20   H     H_    0.453555 0.651510 0.557586 0.130599
H21   H     H_    0.959146 0.162388 0.434209 0.107846
H22   H     H_    0.040757 0.161515 0.565498 0.107948
H23   H     H_    0.459146 0.662385 0.434206 0.107847
H24   H     H_    0.540753 0.661509 0.565496 0.107947
H25   H     H_    0.616498 0.890937 0.455768 0.111727
H26   H     H_    0.383409 0.890876 0.544216 0.112254
H27   H     H_    0.116506 0.390946 0.455776 0.111722
H28   H     H_    0.883405 0.390878 0.544209 0.112252
H29   H     H_    0.600330 0.834597 0.576596 0.104851
H30   H     H_    0.399686 0.835645 0.423252 0.104839
H31   H     H_    0.100330 0.334600 0.576601 0.104851
H32   H     H_    0.899694 0.335640 0.423248 0.104839
H33   H     H_    0.938190 0.477657 0.417639 0.121647
H34   H     H_    0.061755 0.476877 0.582565 0.121837
H35   H     H_    0.438186 0.977656 0.417640 0.121643
H36   H     H_    0.561756 0.976876 0.582562 0.121838
H37   H     H_    0.947425 0.499536 0.536090 0.130181
H38   H     H_    0.052282 0.499541 0.464203 0.129632
H39   H     H_    0.447425 0.999538 0.536091 0.130182
H40   H     H_    0.552281 0.999539 0.464198 0.129636
H41   H     H_    0.815445 0.921306 0.054426 0.117119
H42   H     H_    0.194323 0.909921 0.944083 0.123690
H43   H     H_    0.315445 0.421306 0.054426 0.117119
H44   H     H_    0.694323 0.409921 0.944083 0.123690
H45   H     H_    0.687354 0.220275 0.439849 0.106999
H46   H     H_    0.311796 0.220166 0.560210 0.107080
H47   H     H_    0.187357 0.720277 0.439851 0.106996
H48   H     H_    0.811804 0.720160 0.560213 0.107081
H49   H     H_    0.871465 0.079923 0.954935 0.153868
H50   H     H_    0.130951 0.046380 0.050552 0.160375
H51   H     H_    0.371465 0.579923 0.954935 0.153868
H52   H     H_    0.630951 0.546381 0.050552 0.160375
H53   H     H_    0.828999 0.948701 0.939670 0.078070
H54   H     H_    0.187015 0.927769 0.063166 0.073314
H55   H     H_    0.328999 0.448701 0.939670 0.078070
H56   H     H_    0.687014 0.427770 0.063166 0.073315
H57   H     H_    0.698185 0.924869 0.047202 0.092985
H58   H     H_    0.338300 0.949305 0.951025 0.111926
H59   H     H_    0.198185 0.424869 0.047202 0.092985
H60   H     H_    0.838300 0.449304 0.951025 0.111925
H61   H     H_    0.708303 0.937640 0.925247 0.109419
H62   H     H_    0.307795 0.948369 0.073824 0.107381
H63   H     H_    0.208303 0.437641 0.925247 0.109419
H64   H     H_    0.807794 0.448368 0.073824 0.107381
H65   H     H_    0.706755 0.242368 0.088212 0.100435
H66   H     H_    0.282264 0.249534 0.915907 0.093207
H67   H     H_    0.206755 0.742368 0.088212 0.100435
H68   H     H_    0.782265 0.749533 0.915907 0.093207
H69   H     H_    0.797981 0.242289 0.083890 0.149268
H70   H     H_    0.192403 0.227881 0.913329 0.156885
H71   H     H_    0.297981 0.742289 0.083890 0.149268
H72   H     H_    0.692404 0.727881 0.913329 0.156885
H73   H     H_    0.779654 0.291593 0.962629 0.095486
H74   H     H_    0.190486 0.251466 0.034822 0.115443
H75   H     H_    0.279654 0.791593 0.962629 0.095485
H76   H     H_    0.690487 0.751466 0.034822 0.115443
H77   H     H_    0.693569 0.240459 0.968787 0.113411
H78   H     H_    0.281489 0.262337 0.037475 0.112956
H79   H     H_    0.193569 0.740460 0.968787 0.113411
H80   H     H_    0.781490 0.762337 0.037475 0.112956
H81   H     H_    0.643729 0.052801 0.049361 0.136870
H82   H     H_    0.354189 0.102784 0.955365 0.127281
H83   H     H_    0.143729 0.552802 0.049361 0.136870
H84   H     H_    0.854189 0.602784 0.955365 0.127281
H85   H     H_    0.687501 0.237717 0.561738 0.137844
H86   H     H_    0.312121 0.237267 0.438343 0.137788
H87   H     H_    0.187488 0.737710 0.561741 0.137830
H88   H     H_    0.812107 0.737271 0.438348 0.137798
H89   H     H_    0.653637 0.064009 0.925937 0.117599
H90   H     H_    0.348142 0.090321 0.076010 0.120102
H91   H     H_    0.153637 0.564009 0.925937 0.117599
H92   H     H_    0.848142 0.590320 0.076010 0.120102
H93   H     H_    0.037002 0.546175 0.057458 0.129350
H94   H     H_    0.948768 0.537364 0.944150 0.133433
H95   H     H_    0.537002 0.046175 0.057458 0.129350
H96   H     H_    0.448768 0.037364 0.944150 0.133433
H97   H     H_    0.949842 0.518981 0.065998 0.115713
H98   H     H_    0.036194 0.528951 0.938085 0.112837
H99   H     H_    0.449842 0.018981 0.065998 0.115713
H100  H     H_    0.536194 0.028951 0.938085 0.112837
H101  H     H_    0.608592 0.854322 0.037899 0.118280
H102  H     H_    0.385353 0.784275 0.956908 0.112948
H103  H     H_    0.108592 0.354324 0.037899 0.118280
H104  H     H_    0.885353 0.284275 0.956908 0.112948
H105  H     H_    0.597429 0.857185 0.917337 0.104260
H106  H     H_    0.401260 0.830806 0.079830 0.112637
H107  H     H_    0.097429 0.357185 0.917337 0.104260
H108  H     H_    0.901259 0.330805 0.079830 0.112638
H109  H     H_    0.953816 0.201774 0.080735 0.196413
H110  H     H_    0.060675 0.214341 0.919974 0.191194
H111  H     H_    0.453815 0.701774 0.080736 0.196414
H112  H     H_    0.560675 0.714341 0.919974 0.191194
H113  H     H_    0.953645 0.183153 0.961158 0.131019
H114  H     H_    0.076442 0.207469 0.042829 0.144960
H115  H     H_    0.453645 0.683153 0.961158 0.131020
H116  H     H_    0.576441 0.707469 0.042829 0.144960
H117  H     H_    0.648483 0.102398 0.572349 0.106761
H118  H     H_    0.351423 0.101813 0.427866 0.106830
H119  H     H_    0.148482 0.602376 0.572346 0.106760
H120  H     H_    0.851422 0.601842 0.427863 0.106831
H121  H     H_    0.722261 0.869581 0.463741 0.108651
H122  H     H_    0.277882 0.869241 0.536258 0.108536
H123  H     H_    0.222264 0.369577 0.463738 0.108645
H124  H     H_    0.777865 0.369221 0.536265 0.108545
H125  H     H_    0.705322 0.924836 0.584366 0.104786
H126  H     H_    0.295034 0.924582 0.415620 0.104704
H127  H     H_    0.205333 0.424816 0.584379 0.104779
H128  H     H_    0.795051 0.424616 0.415648 0.104736
H129  H     H_    0.855180 0.090014 0.421513 0.124239
H130  H     H_    0.144696 0.090281 0.578445 0.124168
H131  H     H_    0.355181 0.590010 0.421513 0.124239
H132  H     H_    0.644699 0.590300 0.578449 0.124163
H133  H     H_    0.804175 0.220475 0.427370 0.105001
H134  H     H_    0.195378 0.220524 0.572788 0.104751
H135  H     H_    0.304175 0.720472 0.427367 0.104997
H136  H     H_    0.695386 0.720535 0.572783 0.104756
H137  H     H_    0.841635 0.219275 0.547643 0.112353
H138  H     H_    0.158205 0.219761 0.452402 0.112894
H139  H     H_    0.341630 0.719280 0.547638 0.112343
H140  H     H_    0.658192 0.719749 0.452395 0.112894
O1    O     O_R   0.957210 0.449410 0.665480 -0.533177
O2    O     O_R   0.042790 0.449410 0.334520 -0.533748
O3    O     O_R   0.457210 0.949410 0.665480 -0.533177
O4    O     O_R   0.542790 0.949410 0.334520 -0.533748
O5    O     O_R   0.736260 0.212010 0.826560 -0.515071
O6    O     O_R   0.263740 0.212010 0.173440 -0.514881
O7    O     O_R   0.236260 0.712010 0.826560 -0.515071
O8    O     O_R   0.763740 0.712010 0.173440 -0.514881
O9    O     O_R   0.832520 0.095300 0.836000 -0.537885
O10   O     O_R   0.167480 0.095300 0.164000 -0.539466
O11   O     O_R   0.332520 0.595300 0.836000 -0.537885
O12   O     O_R   0.667480 0.595300 0.164000 -0.539466
O13   O     O_R   0.946380 0.253940 0.826940 -0.512802
O14   O     O_R   0.053620 0.253940 0.173060 -0.514056
O15   O     O_R   0.446380 0.753940 0.826940 -0.512802
O16   O     O_R   0.553620 0.753940 0.173060 -0.514056
O17   O     O_3   0.834560 0.334570 0.748840 -0.277452
O18   O     O_3   0.165440 0.334570 0.251160 -0.274339
O19   O     O_3   0.334560 0.834570 0.748840 -0.277455
O20   O     O_3   0.665440 0.834570 0.251160 -0.274339
O21   O     O_R   0.820730 0.541240 0.668250 -0.514988
O22   O     O_R   0.179270 0.541240 0.331750 -0.515782
O23   O     O_R   0.320730 0.041240 0.668250 -0.514988
O24   O     O_R   0.679270 0.041240 0.331750 -0.515780
O25   O     O_R   0.714240 0.455060 0.663710 -0.532246
O26   O     O_R   0.285760 0.455060 0.336290 -0.532182
O27   O     O_R   0.214240 0.955060 0.663710 -0.532251
O28   O     O_R   0.785760 0.955060 0.336290 -0.532181
O29   O     O_R   0.736780 0.204870 0.675910 -0.516573
O30   O     O_R   0.263220 0.204870 0.324090 -0.517132
O31   O     O_R   0.236780 0.704870 0.675910 -0.516580
O32   O     O_R   0.763220 0.704870 0.324090 -0.517133
O33   O     O_R   0.833070 0.087590 0.673490 -0.529807
O34   O     O_R   0.166930 0.087590 0.326510 -0.530152
O35   O     O_R   0.333070 0.587590 0.673490 -0.529818
O36   O     O_R   0.666930 0.587590 0.326510 -0.530147
O37   O     O_R   0.946890 0.246800 0.676300 -0.510670
O38   O     O_R   0.053110 0.246800 0.323700 -0.510414
O39   O     O_R   0.446890 0.746800 0.676300 -0.510670
O40   O     O_R   0.553110 0.746800 0.323700 -0.510414
O41   O     O_R   0.956650 0.457120 0.827980 -0.531619
O42   O     O_R   0.043350 0.457120 0.172020 -0.530006
O43   O     O_R   0.456650 0.957120 0.827980 -0.531619
O44   O     O_R   0.543350 0.957120 0.172020 -0.530007
O45   O     O_R   0.820220 0.548390 0.818890 -0.519395
O46   O     O_R   0.179780 0.548390 0.181110 -0.520804
O47   O     O_R   0.320220 0.048390 0.818890 -0.519394
O48   O     O_R   0.679780 0.048390 0.181110 -0.520804
O49   O     O_R   0.713680 0.462770 0.826210 -0.495605
O50   O     O_R   0.286320 0.462770 0.173790 -0.496002
O51   O     O_R   0.213680 0.962770 0.826210 -0.495606
O52   O     O_R   0.786320 0.962770 0.173790 -0.496001
O53   O     O_3   0.876306 0.057880 0.084506 -0.583900
C121  C     C_3   0.928980 0.972042 0.085795 -0.150102
H141  H     H_    0.944863 0.947040 0.030801 0.082644
H142  H     H_    0.913217 0.892625 0.116296 0.135638
H143  H     H_    0.974073 0.008943 0.113539 0.135398
O54   O     O_3   0.126411 0.042751 0.923318 -0.585392
C122  C     C_3   0.076042 0.953998 0.921589 -0.147123
H144  H     H_    0.066542 0.916261 0.975490 0.078518
H145  H     H_    0.090601 0.882850 0.883672 0.142255
H146  H     H_    0.027572 0.993467 0.902442 0.133283
O55   O     O_3   0.376306 0.557880 0.084506 -0.583900
C123  C     C_3   0.428980 0.472042 0.085795 -0.150103
H147  H     H_    0.444862 0.447037 0.030801 0.082643
H148  H     H_    0.413217 0.392626 0.116297 0.135640
H149  H     H_    0.474073 0.508943 0.113538 0.135398
O56   O     O_3   0.626412 0.542751 0.923318 -0.585392
C124  C     C_3   0.576042 0.453999 0.921589 -0.147125
H150  H     H_    0.566540 0.416268 0.975491 0.078521
H151  H     H_    0.590602 0.382847 0.883677 0.142251
H152  H     H_    0.527573 0.493467 0.902439 0.133286

loop_
_geom_bond_atom_site_label_1
_geom_bond_atom_site_label_2
_ccdc_geom_bond_type
C78   H94   S    
C5    H133  S    
C82   C94   S    
C119  H11   S    
C85   C93   S    
C120  H12   S    
C21   H5    S    
C53   C69   S    
C104  O8    A    
C56   H60   S    
C43   C63   S    
C44   C64   S    
Cr6   O6    S    
Cr11  O35   S    
C84   H115  S    
C112  H4    S    
C63   C98   S    
C51   H51   S    
Cr2   O2    S    
C19   H127  S    
C35   C39   S    
C31   H40   S    
C28   C40   S    
C72   H92   S    
C36   H36   S    
C30   C38   S    
C113  H85   S    
C75   H75   S    
C56   C72   S    
C121  H141  S    
C45   O33   A    
C8    H132  S    
C18   C118  S    
C81   C86   S    
C5    H129  S    
C83   C88   S    
C87   H106  S    
C48   O32   A    
C89   O1    A    
C41   C49   S    
Cr8   O28   S    
Cr1   O45   S    
Cr2   O42   S    
O54   C122  S    
Cr3   O47   S    
Cr4   O48   S    
O56   C124  S    
C26   C38   S    
Cr10  O34   S    
C14   C114  S    
Cr11  O39   S    
C60   C76   S    
C24   H8    S    
Cr8   O52   S    
C55   H59   S    
C30   H37   S    
C88   H112  S    
C54   C70   S    
C48   O36   A    
C68   C72   S    
C23   H139  S    
C121  H143  S    
C69   H61   S    
C13   C21   S    
C99   O47   A    
C79   H99   S    
C31   H25   S    
C64   C97   S    
C36   H29   S    
C15   C115  S    
C43   O55   S    
C20   C120  S    
C101  O5    A    
C54   H82   S    
C57   H65   S    
C59   C63   S    
C52   H52   S    
C123  H147  S    
Cr4   O20   S    
C72   H64   S    
C57   C61   S    
C82   C85   S    
Cr6   O50   S    
C77   H97   S    
Cr11  O19   S    
C60   C64   S    
Cr9   O13   S    
C13   C45   S    
C102  O6    A    
C78   C94   S    
C91   O3    A    
C69   H89   S    
C109  H1    S    
C95   C108  S    
C60   H68   S    
C62   C99   S    
C107  O43   A    
C5    C21   S    
C58   H70   S    
C79   H95   S    
C110  H46   S    
C31   C36   S    
C47   O35   A    
C4    O28   A    
C97   O45   A    
Cr5   O17   S    
C90   O38   A    
Cr1   O21   S    
C84   H102  S    
Cr2   O18   S    
C65   C101  S    
Cr10  O14   S    
Cr3   O23   S    
Cr11  O11   S    
C67   C103  S    
C66   C70   S    
C37   C90   S    
C24   H140  S    
C73   H77   S    
C55   H83   S    
C115  H119  S    
C66   C74   S    
C113  H117  S    
C25   H17   S    
C57   C73   S    
C117  H121  S    
C60   H72   S    
C83   H101  S    
C55   C63   S    
C6    H134  S    
C56   C64   S    
C7    H131  S    
Cr7   O51   S    
C116  H88   S    
C42   C62   S    
C112  H48   S    
Cr5   O29   S    
C76   H80   S    
C50   H50   S    
C1    C12   S    
Cr9   O33   S    
C114  H86   S    
C123  H149  S    
C2    C11   S    
Cr3   O3    S    
C124  H151  S    
C6    H130  S    
C42   H42   S    
Cr9   O37   S    
C44   O56   S    
C25   C26   S    
C105  O13   A    
O55   C123  S    
C107  O15   A    
C5    C9    S    
C108  O16   A    
C109  H45   S    
C93   C106  S    
C122  H145  S    
C71   H63   S    
C8    C12   S    
C90   O2    A    
C51   C67   S    
C7    H135  S    
C42   C50   S    
C49   H49   S    
Cr2   O46   S    
Cr3   O43   S    
C110  H2    S    
C61   C100  S    
C67   C75   S    
C17   H125  S    
C50   H54   S    
C112  C116  S    
C58   C74   S    
Cr10  O38   S    
C41   H41   S    
C53   H81   S    
C54   H58   S    
C81   H114  S    
C33   H33   S    
C44   H44   S    
C68   C76   S    
C1    O21   A    
C98   O46   A    
C85   H108  S    
C14   C22   S    
C3    O23   A    
C27   C39   S    
C7    C23   S    
C8    C24   S    
C40   C91   S    
C122  H146  S    
C101  O9    A    
C56   H84   S    
Cr7   O27   S    
C99   O51   A    
Cr8   O20   S    
C49   H53   S    
C57   H69   S    
C121  H142  S    
C52   H56   S    
Cr7   O7    S    
C4    C9    S    
Cr4   O24   S    
C53   H57   S    
Cr8   O8    S    
C86   H110  S    
C58   C62   S    
C111  H47   S    
C88   C96   S    
C94   C105  S    
C77   H93   S    
C82   H104  S    
C80   H100  S    
C12   C112  S    
C21   H137  S    
C14   C46   S    
C77   C78   S    
C15   C19   S    
C75   H79   S    
C1    O25   A    
C92   O40   A    
C6    C22   S    
C66   C102  S    
C73   H73   S    
Cr6   O18   S    
Cr2   O22   S    
C103  O7    A    
Cr3   O19   S    
C46   O34   A    
C82   H113  S    
C17   C117  S    
C19   C119  S    
C27   H23   S    
C81   H103  S    
C2    O22   A    
Cr12  O36   S    
C16   C116  S    
C76   H76   S    
C9    C109  S    
C25   H21   S    
C26   H18   S    
C123  H148  S    
C105  O41   A    
C54   C62   S    
C18   H14   S    
C11   C111  S    
C29   C34   S    
C108  O44   A    
C33   C37   S    
C41   C61   S    
C30   H28   S    
C122  H144  S    
C79   C95   S    
Cr5   O25   S    
Cr6   O30   S    
C70   H62   S    
C85   H109  S    
C86   H107  S    
C80   H96   S    
Cr12  O12   S    
C32   H39   S    
C91   O39   A    
C100  O52   A    
C39   C92   S    
C27   H19   S    
C106  O14   A    
C14   C18   S    
C68   C104  S    
C119  H123  S    
C17   H13   S    
C6    C10   S    
C13   C17   S    
C78   H98   S    
C22   H6    S    
Cr5   O49   S    
C19   H15   S    
C104  O12   A    
C43   C51   S    
Cr5   O5    S    
C65   C69   S    
C77   C93   S    
C70   H90   S    
C10   C110  S    
C67   C71   S    
O53   C121  S    
C111  H3    S    
Cr1   O1    S    
C18   H126  S    
C51   H55   S    
C3    O27   A    
C59   H71   S    
C29   C37   S    
C34   H34   S    
C43   H43   S    
C9    C117  S    
C102  O10   A    
C117  H9    S    
C84   C87   S    
C15   C47   S    
C8    H136  S    
C11   C119  S    
C16   C48   S    
C29   H27   S    
C124  H150  S    
C7    C11   S    
C38   C89   S    
C49   C65   S    
C74   H78   S    
C23   H7    S    
Cr7   O31   S    
Cr8   O32   S    
Cr1   O41   S    
C114  H118  S    
C65   C73   S    
C41   O53   S    
C84   C96   S    
Cr4   O44   S    
C118  H122  S    
C25   C37   S    
C12   C120  S    
C59   H67   S    
C83   H116  S    
C35   H35   S    
Cr12  O20   S    
C55   C71   S    
C29   H38   S    
C80   C96   S    
C86   C94   S    
C52   C68   S    
C16   C20   S    
C22   H138  S    
C15   C23   S    
Cr9   O17   S    
C16   C24   S    
C115  H87   S    
C53   C61   S    
C2    O26   A    
C103  O11   A    
C32   H26   S    
C35   H30   S    
C71   H91   S    
C120  H124  S    
C32   C35   S    
C36   C40   S    
C33   H32   S    
C34   H31   S    
C97   O49   A    
Cr7   O19   S    
C116  H120  S    
C87   C95   S    
C46   O30   A    
C10   C118  S    
C81   C93   S    
C87   H111  S    
C83   C95   S    
Cr10  O18   S    
C20   H16   S    
Cr12  O40   S    
Cr9   O9    S    
C50   C66   S    
C100  O48   A    
C20   H128  S    
C28   H20   S    
C45   O29   A    
C26   H22   S    
C92   O4    A    
C59   C75   S    
C106  O42   A    
C74   H74   S    
C124  H152  S    
C110  C114  S    
C58   H66   S    
C30   C33   S    
C34   C38   S    
C96   C107  S    
C47   O31   A    
C4    O24   A    
C118  H10   S    
C89   O37   A    
Cr6   O26   S    
C109  C113  S    
Cr1   O17   S    
Cr10  O10   S    
C3    C10   S    
Cr11  O15   S    
Cr4   O4    S    
C44   C52   S    
Cr12  O16   S    
C88   H105  S    
C31   C39   S    
C32   C40   S    
C42   O54   S    
C79   C80   S    
C98   O50   A    
C27   C28   S    
C28   H24   S    
C111  C115  S    
C13   C113  S    
