data_mof_unit_31483.cif
_audit_creation_date              2012-10-26T20:21:46-0400
_audit_creation_method            fapswitch 2.2
_symmetry_space_group_name_H-M    P1
_symmetry_Int_Tables_number       1
_space_group_crystal_system       triclinic
_cell_length_a                    15.37709
_cell_length_b                    15.350815
_cell_length_c                    9.520269
_cell_angle_alpha                 90.436345
_cell_angle_beta                  89.907073
_cell_angle_gamma                 90.606548
_cell_volume                      2247.07396388

loop_
_atom_site_label
_atom_site_type_symbol
_atom_type_description
_atom_site_fract_x
_atom_site_fract_y
_atom_site_fract_z
_atom_type_partial_charge
C1    C     C_R   0.118816 0.381229 0.499644 0.560516
C2    C     C_R   0.018470 0.574353 0.926541 0.055228
C3    C     C_R   0.017666 0.574576 0.075235 0.051054
C4    C     C_R   0.982955 0.425257 0.924767 0.033827
C5    C     C_R   0.481540 0.925644 0.073459 0.055231
C6    C     C_R   0.516884 0.074771 0.926484 0.035554
C7    C     C_R   0.517034 0.074745 0.075233 0.033828
C8    C     C_R   0.482345 0.925421 0.924765 0.051060
C9    C     C_R   0.732048 0.331812 0.440866 -0.048074
C10   C     C_R   0.265589 0.668840 0.434337 -0.043357
C11   C     C_R   0.169601 0.766630 0.566126 -0.049872
C12   C     C_R   0.880717 0.618424 0.500391 0.552388
C13   C     C_R   0.832189 0.233301 0.559402 -0.043126
C14   C     C_R   0.262666 0.327602 0.578110 -0.037381
C15   C     C_R   0.768420 0.703726 0.374759 -0.045404
C16   C     C_R   0.793830 0.731210 0.626260 -0.041648
C17   C     C_R   0.173310 0.236852 0.420928 -0.034449
C18   C     C_R   0.234411 0.831159 0.565661 -0.043358
C19   C     C_R   0.767948 0.168192 0.559152 -0.048079
C20   C     C_R   0.667811 0.266699 0.440598 -0.043124
C21   C     C_R   0.330400 0.733368 0.433872 -0.049871
C22   C     C_R   0.731581 0.796274 0.625241 -0.045416
C23   C     C_R   0.880761 0.381862 0.499801 0.554884
C24   C     C_R   0.237334 0.172399 0.421889 -0.037382
C25   C     C_R   0.326690 0.263147 0.579072 -0.034449
C26   C     C_R   0.706174 0.768792 0.373738 -0.041645
C27   C     C_R   0.185557 0.685809 0.500565 -0.020045
C28   C     C_R   0.814000 0.314656 0.499692 -0.019624
C29   C     C_R   0.813305 0.684969 0.500790 -0.025935
C30   C     C_R   0.186010 0.314355 0.499143 -0.011287
C31   C     C_R   0.686000 0.185344 0.500309 -0.019624
C32   C     C_R   0.314443 0.814190 0.499434 -0.020045
C33   C     C_R   0.313990 0.185644 0.500857 -0.011287
C34   C     C_R   0.118369 0.619021 0.500252 0.554003
C35   C     C_R   0.686696 0.815032 0.499209 -0.025942
C36   C     C_1   0.712323 0.417259 0.386256 0.234247
C37   C     C_1   0.282064 0.584278 0.370532 0.240185
C38   C     C_1   0.085717 0.784663 0.629397 0.218564
C39   C     C_1   0.917468 0.216026 0.617988 0.229504
C40   C     C_1   0.277086 0.408793 0.654374 0.247265
C41   C     C_1   0.783307 0.655757 0.244097 0.282320
C42   C     C_1   0.836857 0.714238 0.759224 0.283574
C43   C     C_1   0.093106 0.221956 0.343584 0.242777
C44   C     C_1   0.217936 0.915720 0.629468 0.240185
C45   C     C_R   0.619283 0.881576 0.499609 0.552382
C46   C     C_1   0.787662 0.082758 0.613824 0.234242
C47   C     C_1   0.582533 0.283974 0.382010 0.229507
C48   C     C_1   0.414284 0.715336 0.370602 0.218566
C49   C     C_1   0.716690 0.844239 0.755905 0.282316
C50   C     C_1   0.222915 0.091208 0.345621 0.247263
C51   C     C_1   0.406894 0.278044 0.656415 0.242775
C52   C     C_1   0.663151 0.785768 0.240771 0.283569
C53   C     C_R   0.381184 0.118771 0.500356 0.560517
C54   C     C_R   0.381632 0.880978 0.499748 0.554004
C55   C     C_R   0.619239 0.118138 0.500199 0.554880
C56   C     C_R   0.983105 0.425231 0.073516 0.035554
Cu1   Cu    Cu3+1 0.000000 0.500000 0.640660 1.011890
Cu2   Cu    Cu3+1 0.000000 0.500000 0.359340 1.010312
Cu3   Cu    Cu3+1 0.500000 1.000000 0.640660 1.010314
Cu4   Cu    Cu3+1 0.500000 0.000000 0.359340 1.011888
H1    H     H_    0.969780 0.365238 0.128663 0.142353
H2    H     H_    0.033462 0.633982 0.871436 0.144389
H3    H     H_    0.031239 0.634566 0.131696 0.127660
H4    H     H_    0.969568 0.365241 0.868266 0.137418
H5    H     H_    0.466556 0.866013 0.128564 0.144391
H6    H     H_    0.530200 0.134767 0.871337 0.142354
H7    H     H_    0.530411 0.134764 0.131735 0.137419
H8    H     H_    0.468780 0.865429 0.868304 0.127660
N1    N     N_R   1.000000 0.500000 0.852070 -0.234602
N2    N     N_1   0.794633 0.617908 0.140131 -0.226470
N3    N     N_1   0.869976 0.701946 0.866144 -0.261529
N4    N     N_1   0.029155 0.210018 0.282109 -0.281334
N5    N     N_1   0.204861 0.983090 0.680195 -0.250801
N6    N     N_1   0.804257 0.014767 0.657111 -0.255773
N7    N     N_1   0.514644 0.297705 0.335291 -0.269236
N8    N     N_1   0.481056 0.700450 0.320261 -0.268660
N9    N     N_1   0.705361 0.882085 0.859873 -0.226453
N10   N     N_1   0.211472 0.026465 0.285001 -0.257539
N11   N     N_1   0.470845 0.289982 0.717890 -0.281338
N12   N     N_R   0.000000 0.500000 0.147930 -0.232300
N13   N     N_1   0.630038 0.798064 0.133849 -0.261535
N14   N     N_R   0.500000 0.000000 0.852070 -0.232300
N15   N     N_R   0.500000 0.000000 0.147930 -0.234603
N16   N     N_1   0.695719 0.485261 0.343024 -0.255795
N17   N     N_1   0.295142 0.516908 0.319808 -0.250802
N18   N     N_1   0.018947 0.799550 0.679738 -0.268664
N19   N     N_1   0.985358 0.202295 0.664705 -0.269234
N20   N     N_1   0.288531 0.473537 0.714990 -0.257541
O1    O     O_R   0.090170 0.409820 0.618740 -0.491883
O2    O     O_R   0.409830 0.090180 0.381260 -0.491886
O3    O     O_R   0.409830 0.090180 0.618740 -0.490702
O4    O     O_R   0.590170 0.909820 0.381260 -0.492267
O5    O     O_R   0.409830 0.909820 0.381260 -0.501193
O6    O     O_R   0.590170 0.090180 0.618740 -0.499728
O7    O     O_R   0.590170 0.090180 0.381260 -0.508120
O8    O     O_R   0.409830 0.909820 0.618740 -0.510759
O9    O     O_R   0.909830 0.590180 0.381260 -0.496781
O10   O     O_R   0.909830 0.590180 0.618740 -0.492265
O11   O     O_R   0.090170 0.409820 0.381260 -0.490699
O12   O     O_R   0.909830 0.409820 0.381260 -0.499732
O13   O     O_R   0.090170 0.590180 0.618740 -0.501196
O14   O     O_R   0.090170 0.590180 0.381260 -0.510764
O15   O     O_R   0.909830 0.409820 0.618740 -0.508124
O16   O     O_R   0.590170 0.909820 0.618740 -0.496782

loop_
_geom_bond_atom_site_label_1
_geom_bond_atom_site_label_2
_ccdc_geom_bond_type
C10   C27   A    
C7    N15   A    
C11   C18   A    
C43   N4    T    
C6    N14   A    
C12   C29   S    
C48   N8    T    
Cu3   N14   S    
C39   N19   T    
C19   C31   A    
C1    O11   A    
C25   C51   S    
C19   C46   S    
C22   C35   A    
C34   O14   A    
Cu1   O1    S    
C38   N18   T    
C10   C37   S    
C8    N14   A    
Cu3   O16   S    
C37   N17   T    
C26   C52   S    
C5    N15   A    
Cu4   N15   S    
C45   O4    A    
C1    C30   S    
C54   O5    A    
C23   O15   A    
C53   O3    A    
C9    C36   S    
C1    O1    A    
C13   C28   A    
Cu2   O14   S    
Cu3   O6    S    
C2    N1    A    
C54   O8    A    
Cu2   N12   S    
C21   C48   S    
Cu4   O5    S    
C23   O12   A    
Cu3   Cu4   S    
C10   C21   A    
C4    C56   A    
C33   C53   S    
C17   C30   A    
C44   N5    T    
Cu2   O9    S    
C14   C30   A    
C55   O6    A    
C3    N12   A    
C50   N10   T    
C32   C54   S    
C4    N1    A    
C15   C29   A    
Cu4   O4    S    
C27   C34   S    
C24   C50   S    
Cu1   O15   S    
C21   C32   A    
C17   C24   A    
C13   C19   A    
C34   O13   A    
Cu2   O12   S    
C15   C41   S    
C55   O7    A    
C15   C26   A    
C16   C29   A    
C7    H7    S    
C11   C38   S    
C17   C43   S    
C45   O16   A    
C18   C44   S    
C9    C20   A    
C11   C27   A    
Cu3   O3    S    
C23   C28   S    
C12   O9    A    
C22   C49   S    
C5    H5    S    
C8    H8    S    
Cu4   O2    S    
C18   C32   A    
Cu3   O8    S    
C35   C45   S    
C16   C42   S    
C46   N6    T    
C16   C22   A    
C12   O10   A    
Cu2   O11   S    
C5    C8    A    
C6    C7    A    
C3    H3    S    
Cu1   O13   S    
C4    H4    S    
C24   C33   A    
C56   N12   A    
C31   C55   S    
C40   N20   T    
C2    C3    A    
C47   N7    T    
Cu1   Cu2   S    
C36   N16   T    
Cu1   O10   S    
C42   N3    T    
C49   N9    T    
C14   C25   A    
C52   N13   T    
C51   N11   T    
C13   C39   S    
C20   C47   S    
C14   C40   S    
Cu4   O7    S    
C26   C35   A    
C6    H6    S    
C53   O2    A    
C56   H1    S    
Cu1   N1    S    
C2    H2    S    
C9    C28   A    
C25   C33   A    
C41   N2    T    
C20   C31   A    
