data_mof_unit_35611.cif
_audit_creation_date              2012-12-10T19:10:04-0500
_audit_creation_method            fapswitch 2.2
_symmetry_space_group_name_H-M    P1
_symmetry_Int_Tables_number       1
_space_group_crystal_system       triclinic
_cell_length_a                    11.04813
_cell_length_b                    10.937994
_cell_length_c                    9.609759
_cell_angle_alpha                 89.739864
_cell_angle_beta                  90.917641
_cell_angle_gamma                 90.274607
_cell_volume                      1161.11152319

loop_
_atom_site_label
_atom_site_type_symbol
_atom_type_description
_atom_site_fract_x
_atom_site_fract_y
_atom_site_fract_z
_atom_type_partial_charge
C1    C     C_R   0.492904 0.262740 0.500302 0.805692
C2    C     C_R   0.200512 0.493447 0.968119 -0.241818
C3    C     C_R   0.931556 0.533874 0.382014 -0.222887
C4    C     C_R   0.871314 0.498928 0.503247 -0.108288
C5    C     C_R   0.941402 0.459606 0.619302 0.014467
C6    C     C_R   0.067157 0.469548 0.615513 -0.219720
C7    C     C_R   0.127548 0.502054 0.495019 -0.077158
C8    C     C_R   0.057576 0.528018 0.374217 0.003474
C9    C     C_R   0.903556 0.444331 0.870749 -0.215414
C10   C     C_R   0.889888 0.374861 0.991437 -0.137800
C11   C     C_R   0.879397 0.248351 0.982864 -0.209040
C12   C     C_R   0.262052 0.500780 0.498318 0.781325
C13   C     C_R   0.872022 0.192121 0.852940 -0.142072
C14   C     C_R   0.874824 0.261541 0.729985 0.408812
C15   C     C_R   0.893529 0.390165 0.738840 0.025383
C16   C     C_R   0.467740 0.059237 0.620725 0.071565
C17   C     C_R   0.477017 0.129874 0.499274 -0.126001
C18   C     C_R   0.472599 0.065634 0.371406 -0.199348
C19   C     C_R   0.476671 0.936746 0.369391 -0.162129
C20   C     C_R   0.494006 0.870672 0.494544 -0.093296
C21   C     C_R   0.494973 0.937902 0.615717 0.037861
C22   C     C_3   0.548263 0.929638 0.757948 -0.071035
C23   C     C_R   0.500740 0.737484 0.498871 0.814908
C24   C     C_3   0.494667 0.058522 0.775465 0.561414
C25   C     C_R   0.538214 0.600491 0.074542 0.193998
C26   C     C_R   0.461166 0.401944 0.074014 -0.054109
C27   C     C_R   0.461464 0.402020 0.926009 -0.044206
C28   C     C_R   0.538410 0.600268 0.926664 0.171018
C29   C     C_3   0.664069 0.648337 0.924772 -0.587717
C30   C     C_3   0.664098 0.649863 0.081739 0.212281
C31   C     C_R   0.737594 0.498273 0.501315 0.789337
C32   C     C_R   0.172598 0.610110 0.016038 -0.195198
C33   C     C_R   0.125884 0.626308 0.148889 0.444057
C34   C     C_R   0.108821 0.522148 0.234468 -0.016331
C35   C     C_R   0.136347 0.405353 0.184722 -0.222635
C36   C     C_R   0.180844 0.389336 0.051100 0.302703
Cu1   Cu    Cu3+1 0.499990 0.499980 0.640670 0.950091
Cu2   Cu    Cu3+1 0.500010 0.500020 0.359330 0.968691
H1    H     H_    0.242451 0.485571 0.868628 0.181220
H2    H     H_    0.875787 0.193762 0.076940 0.162611
H3    H     H_    0.865146 0.093674 0.847568 0.172833
H4    H     H_    0.469225 0.114325 0.273261 0.150869
H5    H     H_    0.471101 0.890192 0.270401 0.167707
H6    H     H_    0.508505 0.856490 0.823564 0.122059
H7    H     H_    0.429011 0.322140 0.128840 0.157224
H8    H     H_    0.189074 0.688698 0.949951 0.168499
H9    H     H_    0.429302 0.322795 0.871286 0.212518
H10   H     H_    0.725494 0.581724 0.879296 0.213385
H11   H     H_    0.670170 0.738444 0.878128 0.219059
H12   H     H_    0.730077 0.585758 0.129546 0.149002
H13   H     H_    0.122143 0.326095 0.250789 0.139434
H14   H     H_    0.880408 0.557913 0.289284 0.157717
H15   H     H_    0.118908 0.440123 0.704128 0.149553
H16   H     H_    0.926696 0.540353 0.880155 0.157364
H17   H     H_    0.894389 0.418349 0.092025 0.142548
N1    N     N_R   0.500790 0.500930 0.147930 -0.214256
N2    N     N_R   0.500790 0.500890 0.852020 -0.191129
O1    O     O_R   0.500000 0.319640 0.618810 -0.581071
O2    O     O_R   0.500010 0.319680 0.381230 -0.597633
O3    O     O_R   0.319640 0.499990 0.618790 -0.605797
O4    O     O_R   0.319650 0.500030 0.381210 -0.569789
O5    O     O_R   0.499990 0.680320 0.618770 -0.584971
O6    O     O_R   0.500000 0.680360 0.381190 -0.559424
O7    O     O_R   0.680350 0.499970 0.618790 -0.576314
O8    O     O_R   0.680360 0.500010 0.381210 -0.586484
O9    O     O_3   0.869224 0.198702 0.605695 -0.746061
H18   H     H_    0.862900 0.257162 0.527309 0.318830
N3    N     N_2   0.680814 0.934703 0.758967 -0.440978
H19   H     H_    0.719935 0.931061 0.856810 0.253469
C37   C     C_3   0.748692 0.870810 0.653991 -0.597344
H20   H     H_    0.846933 0.876647 0.679632 0.223456
H21   H     H_    0.734565 0.914703 0.550701 0.255276
H22   H     H_    0.722410 0.772951 0.649371 0.219295
O10   O     O_3   0.385404 0.058263 0.848509 -0.757880
H23   H     H_    0.396201 0.005709 0.932190 0.308279
N4    N     N_2   0.577519 0.152583 0.824368 -0.394773
H24   H     H_    0.649504 0.170249 0.760891 0.281274
C38   C     C_3   0.604367 0.152659 0.972742 -0.706560
H25   H     H_    0.666369 0.077422 0.002279 0.217366
H26   H     H_    0.520939 0.143915 0.034164 0.226192
H27   H     H_    0.646351 0.240991 0.002004 0.245055
O11   O     O_3   0.671121 0.768042 0.138944 -0.707007
H28   H     H_    0.609380 0.820403 0.092108 0.308757
O12   O     O_3   0.100715 0.744042 0.190556 -0.735041
H29   H     H_    0.073288 0.743285 0.288036 0.330863
N5    N     N_2   0.213333 0.269475 0.006547 -0.453459
H30   H     H_    0.200951 0.200699 0.078870 0.252961
C39   C     C_3   0.180630 0.234654 0.865844 -0.588816
H31   H     H_    0.093820 0.274785 0.835603 0.223105
H32   H     H_    0.170604 0.133853 0.858501 0.261609
H33   H     H_    0.249572 0.266077 0.791278 0.234522

loop_
_geom_bond_atom_site_label_1
_geom_bond_atom_site_label_2
_ccdc_geom_bond_type
C16   C21   A    
C19   C20   A    
C25   N1    A    
C13   H3    S    
Cu1   O5    S    
C7    C8    A    
C29   H11   S    
C28   N2    A    
C25   C28   A    
C26   C27   A    
Cu1   Cu2   S    
C28   C29   S    
N4    C38   S    
C18   C19   A    
C18   H4    S    
C5    C6    A    
N5    C39   S    
C2    C36   A    
C2    C32   A    
C34   C35   A    
C26   H7    S    
C2    H1    S    
C23   O5    A    
C22   H6    S    
C35   C36   A    
N3    H19   S    
C39   H33   S    
C37   H20   S    
C9    C10   A    
Cu1   O1    S    
Cu2   O4    S    
C39   H31   S    
C23   O6    A    
O9    H18   S    
C30   H12   S    
C16   C24   S    
C21   C22   S    
C19   H5    S    
C33   C34   A    
C7    C12   S    
O10   H23   S    
C29   H10   S    
Cu1   O3    S    
N4    H24   S    
C3    C8    A    
C27   N2    A    
C38   H25   S    
C24   N4    S    
C36   N5    S    
C20   C23   S    
C30   O11   S    
C29   C30   S    
Cu2   O8    S    
C37   H22   S    
C17   C18   A    
C14   O9    S    
C8    C34   S    
O12   H29   S    
C10   H17   S    
C22   N3    S    
C39   H32   S    
C35   H13   S    
C22   C24   S    
C6    H15   S    
C3    C4    A    
Cu1   O7    S    
Cu2   O6    S    
C27   H9    S    
C25   C30   S    
C31   O8    A    
N5    H30   S    
C32   H8    S    
C31   O7    A    
C4    C5    A    
C26   N1    A    
C3    H14   S    
C6    C7    A    
C1    C17   S    
C32   C33   A    
C1    O2    A    
C9    C15   A    
C1    O1    A    
C12   O4    A    
C11   C13   A    
C38   H27   S    
C24   O10   S    
C16   C17   A    
C38   H26   S    
C11   H2    S    
C33   O12   S    
C5    C15   S    
C4    C31   S    
C10   C11   A    
Cu2   O2    S    
C12   O3    A    
Cu2   N1    S    
C20   C21   A    
N3    C37   S    
O11   H28   S    
C14   C15   A    
C37   H21   S    
C9    H16   S    
C13   C14   A    
Cu1   N2    S    
