data_mof_unit_57800.cif
_audit_creation_date              2013-03-05T15:49:56-0500
_audit_creation_method            fapswitch 2.2
_symmetry_space_group_name_H-M    P1
_symmetry_Int_Tables_number       1
_space_group_crystal_system       triclinic
_cell_length_a                    12.058688
_cell_length_b                    12.874842
_cell_length_c                    14.934999
_cell_angle_alpha                 90.389213
_cell_angle_beta                  85.357595
_cell_angle_gamma                 92.94669
_cell_volume                      2308.04295259

loop_
_atom_site_label
_atom_site_type_symbol
_atom_site_description
_atom_site_fract_x
_atom_site_fract_y
_atom_site_fract_z
_atom_type_partial_charge
O1    O     O_R   0.421700 0.658830 0.504450 -0.594944
O2    O     O_R   0.578300 0.341170 0.495550 -0.599655
O3    O     O_R   0.609310 0.646410 0.493750 -0.635120
O4    O     O_R   0.390690 0.353590 0.506250 -0.633444
C1    C     C_R   0.521781 0.700167 0.498254 0.927956
C2    C     C_R   0.478243 0.299808 0.500828 0.948651
O5    O     O_R   0.406180 0.506230 0.637500 -0.608620
O6    O     O_R   0.593820 0.493770 0.362500 -0.610264
O7    O     O_R   0.593800 0.493820 0.626800 -0.598866
O8    O     O_R   0.406200 0.506180 0.373200 -0.592807
C3    C     C_R   0.499367 0.498613 0.672924 0.933176
C4    C     C_R   0.500703 0.502751 0.327253 0.919655
Zn1   Zn    Zn3+2 0.374730 0.508290 0.507150 1.032945
Zn2   Zn    Zn3+2 0.625270 0.491710 0.492850 1.029645
C5    C     C_R   0.532117 0.416998 0.185232 -0.188934
C6    C     C_R   0.455642 0.578310 0.816252 -0.186719
C7    C     C_R   0.500537 0.505231 0.232024 -0.148542
C8    C     C_R   0.497390 0.494418 0.768513 -0.155573
C9    C     C_R   0.465396 0.592904 0.189146 0.276195
C10   C     C_R   0.538209 0.409120 0.811110 0.272501
C11   C     C_R   0.456035 0.588941 0.095770 -0.096760
C12   C     C_R   0.530777 0.405998 0.905723 -0.101379
C13   C     C_R   0.492810 0.499343 0.047625 0.019956
C14   C     C_R   0.492708 0.495022 0.953986 0.022539
C15   C     C_R   0.530369 0.413931 0.093106 0.089531
C16   C     C_R   0.454920 0.580320 0.908538 0.088447
C17   C     C_R   0.412012 0.670689 0.048525 0.314656
C18   C     C_R   0.560108 0.318217 0.954085 0.314751
C19   C     C_R   0.414677 0.666272 0.955412 -0.208070
C20   C     C_R   0.562466 0.324670 0.046838 -0.206976
H1    H     H_    0.557667 0.350350 0.221188 0.163187
H2    H     H_    0.427230 0.643975 0.780751 0.169080
H3    H     H_    0.381609 0.729274 0.919564 0.194936
H4    H     H_    0.585976 0.257794 0.083444 0.193271
C21   C     C_R   0.465117 0.188663 0.499417 -0.119047
C22   C     C_R   0.535185 0.811260 0.498233 -0.123328
C23   C     C_R   0.640404 0.967599 0.534509 0.329437
C24   C     C_R   0.360394 0.032451 0.461890 0.329142
C25   C     C_R   0.633038 0.860429 0.524621 -0.231260
C26   C     C_R   0.367485 0.139606 0.472491 -0.239873
C27   C     C_R   0.445794 0.867662 0.476925 -0.083068
C28   C     C_R   0.554791 0.132187 0.519922 -0.074387
C29   C     C_R   0.451491 0.974741 0.482930 -0.013104
C30   C     C_R   0.549294 0.025211 0.513425 -0.016133
H5    H     H_    0.629786 0.172803 0.539509 0.245793
H6    H     H_    0.370674 0.826939 0.457724 0.246851
H7    H     H_    0.299088 0.184945 0.455044 0.196616
H8    H     H_    0.701354 0.815201 0.542425 0.196686
N1    N     N_R   0.207800 0.519350 0.516680 -0.153016
N2    N     N_R   0.792200 0.480650 0.483320 -0.154470
C31   C     C_R   0.959126 0.408708 0.410025 -0.151081
C32   C     C_R   0.040797 0.591363 0.589811 -0.152228
C33   C     C_R   0.841737 0.416141 0.419882 0.059028
C34   C     C_R   0.158154 0.583818 0.580088 0.062820
C35   C     C_R   0.855891 0.538594 0.538026 0.029871
C36   C     C_R   0.144123 0.461538 0.461825 0.029635
C37   C     C_R   0.973816 0.532744 0.532543 0.004181
C38   C     C_R   0.026164 0.467378 0.467265 0.003811
H9    H     H_    0.186509 0.410127 0.414633 0.157290
H10   H     H_    0.813506 0.590051 0.585173 0.157803
C39   C     C_2   0.010032 0.340381 0.339037 0.912462
O9    O     O_2   0.078593 0.377029 0.281468 -0.577976
O10   O     O_R   0.977673 0.234607 0.337390 -0.717533
H11   H     H_    0.017524 0.196318 0.285758 0.380014
C40   C     C_2   0.989870 0.659770 0.660745 0.913692
O11   O     O_2   0.921190 0.623218 0.718271 -0.576135
O12   O     O_R   0.022460 0.765491 0.662437 -0.718943
H12   H     H_    0.982628 0.803839 0.714042 0.379752
N3    N     N_R   0.452564 0.687958 0.239009 0.210642
O13   O     O_R   0.524425 0.765930 0.223681 -0.326041
O14   O     O_R   0.372808 0.695275 0.302449 -0.312223
N4    N     N_R   0.592113 0.330325 0.757756 0.234797
O15   O     O_R   0.698675 0.320239 0.759868 -0.283703
O16   O     O_R   0.537280 0.275716 0.700762 -0.363782
N5    N     N_R   0.355828 0.754255 0.093256 0.250050
O17   O     O_R   0.264871 0.733704 0.144358 -0.267982
O18   O     O_R   0.379786 0.849561 0.067114 -0.287129
N6    N     N_R   0.578245 0.219243 0.912333 0.249480
O19   O     O_R   0.497930 0.171410 0.872748 -0.287680
O20   O     O_R   0.663019 0.167288 0.931383 -0.283989
N7    N     N_R   0.738611 0.015528 0.568874 0.208294
O21   O     O_R   0.836363 0.985365 0.539540 -0.287513
O22   O     O_R   0.729817 0.072645 0.641083 -0.287212
N8    N     N_R   0.262346 0.984619 0.427192 0.208725
O23   O     O_R   0.164518 0.015085 0.455969 -0.287850
O24   O     O_R   0.271475 0.927069 0.355260 -0.284400
C41   C     C_2   0.225457 0.641040 0.644019 0.990826
O25   O     O_2   0.230278 0.605953 0.719350 -0.614617
O26   O     O_R   0.272593 0.739830 0.622085 -0.759495
H13   H     H_    0.314005 0.772452 0.672507 0.339186
C42   C     C_2   0.774088 0.358180 0.356528 0.993690
O27   O     O_2   0.766998 0.393351 0.281510 -0.607226
O28   O     O_R   0.728885 0.258788 0.378702 -0.762170
H14   H     H_    0.686871 0.225748 0.328791 0.339610

loop_
_geom_bond_atom_site_label_1
_geom_bond_atom_site_label_2
_geom_bond_distance
_ccdc_geom_bond_type
C26   H7    1.084093 S    
C41   O25   1.222056 D    
C3    C8    1.427226 S    
O28   H14   1.013874 S    
C17   C19   1.389258 A    
C31   C39   1.487356 S    
O7    Zn2   2.006079 S    
N7    O21   1.301295 A    
O5    C3    1.288612 A    
O1    C1    1.290294 A    
C9    C11   1.408578 A    
N8    O24   1.301420 A    
C34   C41   1.472237 S    
N6    O20   1.301295 A    
C5    C15   1.378041 A    
N1    C34   1.375779 A    
C1    C22   1.431131 S    
C19   H3    1.085034 S    
C2    C21   1.431792 S    
N3    O14   1.300822 A    
O4    Zn1   2.010687 S    
C39   O10   1.397819 S    
C21   C28   1.388978 A    
C40   O12   1.397830 S    
C4    C7    1.422983 S    
C33   C42   1.473215 S    
C27   H6    1.081135 S    
C18   N6    1.433962 S    
C39   O9    1.222996 D    
C11   C17   1.419716 A    
C12   C18   1.420429 A    
C35   H10   1.079898 S    
C27   C29   1.379473 A    
C23   N7    1.437219 S    
C22   C27   1.389133 A    
O2    C2    1.290227 A    
C28   C30   1.378623 A    
C17   N5    1.433458 S    
N7    O22   1.301459 A    
C32   C34   1.419135 A    
C6    C16   1.377694 A    
N2    C33   1.375867 A    
C20   H4    1.084978 S    
O12   H12   1.013789 S    
N8    O23   1.301312 A    
N4    O16   1.300483 A    
C42   O27   1.222299 D    
N6    O19   1.301218 A    
C31   C33   1.419372 A    
C28   H5    1.081199 S    
N5    O17   1.301123 A    
C42   O28   1.396119 S    
N5    O18   1.301289 A    
O6    C4    1.288869 A    
C31   C38   1.412530 A    
O7    C3    1.286369 A    
O3    Zn2   2.010687 S    
O8    C4    1.284391 A    
Zn1   N1    2.018749 S    
O4    C2    1.288897 A    
C10   C12   1.409347 A    
C11   C13   1.426215 A    
C29   C30   1.422930 A    
C12   C14   1.425943 A    
C9    N3    1.436893 S    
O1    Zn1   1.990846 S    
C15   C20   1.392719 A    
C5    C7    1.383652 A    
O6    Zn2   2.013882 S    
C24   N8    1.437250 S    
C22   C25   1.394093 A    
C14   C16   1.409272 A    
N4    O15   1.301092 A    
O3    C1    1.288629 A    
O8    Zn1   2.006079 S    
C5    H1    1.086189 S    
C6    H2    1.085587 S    
N1    C36   1.359993 A    
N2    C35   1.359536 A    
C36   H9    1.079927 S    
C23   C30   1.413992 A    
C35   C37   1.423586 A    
C21   C26   1.394073 A    
C24   C29   1.414391 A    
C23   C25   1.385749 A    
C24   C26   1.386643 A    
C37   C38   1.414579 A    
Zn2   N2    2.018749 S    
C18   C20   1.389689 A    
C7    C9    1.402398 A    
C36   C38   1.423999 A    
C8    C10   1.403142 A    
C13   C15   1.409586 A    
N3    O13   1.301026 A    
O2    Zn2   1.990846 S    
C32   C37   1.412055 A    
C13   C14   1.399318 A    
O10   H11   1.013790 S    
O5    Zn1   2.013880 S    
C16   C19   1.392797 A    
C6    C8    1.384099 A    
C40   O11   1.223003 D    
C41   O26   1.396179 S    
C10   N4    1.435129 S    
O26   H13   1.013845 S    
C32   C40   1.487534 S    
C25   H8    1.084120 S    
