data_mof_unit_61690.cif
_audit_creation_date              2012-12-10T18:47:31-0500
_audit_creation_method            fapswitch 2.2
_symmetry_space_group_name_H-M    P1
_symmetry_Int_Tables_number       1
_space_group_crystal_system       triclinic
_cell_length_a                    19.459478
_cell_length_b                    18.145808
_cell_length_c                    11.720084
_cell_angle_alpha                 90.000136
_cell_angle_beta                  90.203244
_cell_angle_gamma                 90.001391
_cell_volume                      4138.42881479

loop_
_atom_site_label
_atom_site_type_symbol
_atom_type_description
_atom_site_fract_x
_atom_site_fract_y
_atom_site_fract_z
_atom_type_partial_charge
C1    C     C_R   0.367527 0.499999 0.499823 0.788385
C2    C     C_R   0.632473 0.500001 0.500177 0.788385
C3    C     C_R   0.072104 0.499979 0.499732 0.092542
C4    C     C_R   0.927896 0.500021 0.500268 0.092542
C5    C     C_R   0.455381 0.721038 0.431247 0.056972
C6    C     C_R   0.544619 0.278962 0.568753 0.056972
C7    C     C_R   0.544619 0.721041 0.568753 0.056983
C8    C     C_R   0.455381 0.278959 0.431247 0.056983
C9    C     C_R   0.454520 0.798450 0.430006 -0.190572
C10   C     C_R   0.545480 0.201550 0.569994 -0.190571
C11   C     C_R   0.545481 0.798453 0.569994 -0.190502
C12   C     C_R   0.454519 0.201547 0.430006 -0.190503
C13   C     C_R   0.500000 0.838485 0.500000 0.262080
C14   C     C_R   0.500000 0.161515 0.500000 0.262080
C15   C     C_R   0.561885 0.961243 0.490510 0.487150
C16   C     C_R   0.438115 0.038756 0.509490 0.487150
C17   C     C_R   0.438115 0.961240 0.509490 0.487219
C18   C     C_R   0.561885 0.038760 0.490510 0.487219
C19   C     C_R   0.500000 0.078708 0.500000 -0.337157
C20   C     C_R   0.500000 0.921292 0.500000 -0.337157
C21   C     C_R   0.499971 0.500000 0.283730 0.830550
C22   C     C_R   0.500029 0.500000 0.716269 0.830550
C23   C     C_1   0.499974 0.500000 0.162175 -0.174598
C24   C     C_1   0.500025 0.500000 0.837825 -0.174598
C25   C     C_1   0.499988 0.500000 0.059823 0.012181
C26   C     C_1   0.500011 0.500000 0.940177 0.012181
C27   C     C_R   0.744349 0.433185 0.500390 -0.172585
C28   C     C_R   0.255651 0.566815 0.499610 -0.172585
C29   C     C_R   0.255655 0.433170 0.499355 -0.172320
C30   C     C_R   0.744345 0.566830 0.500645 -0.172320
C31   C     C_R   0.815911 0.433214 0.500454 -0.155694
C32   C     C_R   0.184089 0.566786 0.499546 -0.155694
C33   C     C_R   0.184094 0.433189 0.499377 -0.156028
C34   C     C_R   0.815906 0.566811 0.500623 -0.156028
C35   C     C_R   0.852231 0.500015 0.500484 0.097421
C36   C     C_R   0.147769 0.499985 0.499516 0.097421
C37   C     C_R   0.707967 0.500005 0.500412 -0.042648
C38   C     C_R   0.292033 0.499995 0.499588 -0.042647
C39   C     C_R   0.963990 0.548758 0.429391 -0.162245
C40   C     C_R   0.036010 0.451242 0.570609 -0.162245
C41   C     C_R   0.035548 0.548738 0.429126 -0.163743
C42   C     C_R   0.964452 0.451262 0.570874 -0.163744
Cu1   Cu    Cu3+1 0.500000 0.573360 0.500000 0.958249
Cu2   Cu    Cu3+1 0.500000 0.426640 0.500000 0.958249
H1    H     H_    0.717602 0.380840 0.500008 0.161090
H2    H     H_    0.282398 0.619160 0.499992 0.161090
H3    H     H_    0.282405 0.380829 0.498931 0.160941
H4    H     H_    0.717595 0.619171 0.501069 0.160941
H5    H     H_    0.842882 0.381014 0.499006 0.140643
H6    H     H_    0.157118 0.618985 0.500994 0.140643
H7    H     H_    0.157118 0.380987 0.497925 0.140449
H8    H     H_    0.842882 0.619013 0.502074 0.140449
H9    H     H_    0.936840 0.586109 0.372991 0.138545
H10   H     H_    0.063160 0.413891 0.627009 0.138545
H11   H     H_    0.062327 0.586081 0.372540 0.137533
H12   H     H_    0.937673 0.413919 0.627460 0.137533
H13   H     H_    0.420330 0.690820 0.376795 0.128847
H14   H     H_    0.579670 0.309180 0.623205 0.128847
H15   H     H_    0.579670 0.690824 0.623205 0.129032
H16   H     H_    0.420329 0.309176 0.376796 0.129032
H17   H     H_    0.419091 0.826784 0.373677 0.176301
H18   H     H_    0.580909 0.173216 0.626323 0.176300
H19   H     H_    0.580909 0.826788 0.626322 0.176423
H20   H     H_    0.419091 0.173211 0.373678 0.176423
N1    N     N_R   0.500000 0.683620 0.500000 -0.172645
N2    N     N_R   0.500000 0.316380 0.500000 -0.172645
O1    O     O_R   0.400190 0.561980 0.499980 -0.587188
O2    O     O_R   0.599810 0.438020 0.500020 -0.587188
O3    O     O_R   0.599810 0.561980 0.500020 -0.587226
O4    O     O_R   0.400190 0.438020 0.499980 -0.587226
O5    O     O_R   0.500010 0.561950 0.337200 -0.574588
O6    O     O_R   0.499990 0.438050 0.662800 -0.574589
O7    O     O_R   0.499990 0.561950 0.662800 -0.574459
O8    O     O_R   0.500010 0.438050 0.337200 -0.574459
F1    F     F_    0.622519 0.925224 0.477738 -0.602699
F2    F     F_    0.377480 0.074776 0.522262 -0.602699
F3    F     F_    0.377481 0.925217 0.522262 -0.602637
F4    F     F_    0.622519 0.074783 0.477738 -0.602637

loop_
_geom_bond_atom_site_label_1
_geom_bond_atom_site_label_2
_ccdc_geom_bond_type
Cu1   O7    S    
C15   C18   A    
C15   F1    S    
C8    N2    A    
C6    H14   S    
Cu2   N2    S    
Cu1   N1    S    
C17   C20   A    
C39   C41   A    
C7    C11   A    
C28   H2    S    
C29   H3    S    
C9    H17   S    
C32   C36   A    
C30   H4    S    
C24   C26   T    
C34   C35   A    
C11   H19   S    
C12   H20   S    
C29   C33   A    
C33   C36   A    
C18   C19   A    
C22   O6    A    
C9    C13   A    
C41   H11   S    
C42   H12   S    
C16   C17   A    
C29   C38   A    
Cu2   O4    S    
C2    O3    A    
C18   F4    S    
C27   H1    S    
C40   C42   A    
C4    C35   S    
Cu1   O3    S    
C10   H18   S    
C31   H5    S    
C7    H15   S    
C15   C20   A    
C30   C34   A    
C27   C31   A    
C28   C32   A    
C5    N1    A    
C10   C14   A    
C25   C26   S    
C21   O8    A    
C30   C37   A    
Cu1   Cu2   S    
C5    C9    A    
C7    N1    A    
C4    C39   A    
C28   C38   A    
C8    C12   A    
C17   F3    S    
Cu2   O8    S    
C32   H6    S    
C1    C38   S    
C12   C14   A    
C3    C40   A    
C40   H10   S    
C21   C23   S    
C31   C35   A    
Cu2   O2    S    
C21   O5    A    
C3    C41   A    
Cu1   O5    S    
C13   C20   S    
C16   F2    S    
C34   H8    S    
C14   C19   S    
C6    C10   A    
C33   H7    S    
C2    O2    A    
C1    O4    A    
C5    H13   S    
C8    H16   S    
C11   C13   A    
C2    C37   S    
C39   H9    S    
C4    C42   A    
C3    C36   S    
C27   C37   A    
C16   C19   A    
C1    O1    A    
Cu2   O6    S    
C22   C24   S    
C23   C25   T    
C6    N2    A    
Cu1   O1    S    
C22   O7    A    
