data_mof_unit_63984.cif
_audit_creation_date              2012-12-11T17:02:54-0500
_audit_creation_method            fapswitch 2.2
_symmetry_space_group_name_H-M    P1
_symmetry_Int_Tables_number       1
_space_group_crystal_system       triclinic
_cell_length_a                    8.288371
_cell_length_b                    14.98826
_cell_length_c                    16.3558
_cell_angle_alpha                 97.186564
_cell_angle_beta                  93.531151
_cell_angle_gamma                 97.352633
_cell_volume                      1993.08731158

loop_
_atom_site_label
_atom_site_type_symbol
_atom_type_description
_atom_site_fract_x
_atom_site_fract_y
_atom_site_fract_z
_atom_type_partial_charge
Ba1   Ba    Ba6+2 0.163630 0.544320 0.462600 1.633374
Ba2   Ba    Ba6+2 0.646550 0.455670 0.537340 1.631900
C1    C     C_3   0.589846 0.854828 0.219631 -0.198352
C2    C     C_R   0.886748 0.792174 0.515877 0.071987
C3    C     C_R   0.079551 0.232153 0.514388 -0.260825
C4    C     C_3   0.970808 0.790736 0.290497 0.395680
C5    C     C_R   0.170715 0.170414 0.544855 0.040601
C6    C     C_R   0.107639 0.077935 0.537282 -0.161247
C7    C     C_R   0.949656 0.045188 0.497697 0.015149
C8    C     C_R   0.863467 0.109534 0.462490 -0.047432
C9    C     C_R   0.874926 0.951428 0.491109 -0.000161
C10   C     C_R   0.710064 0.925680 0.454086 -0.029240
C11   C     C_R   0.625579 0.995715 0.427066 0.007379
C12   C     C_3   0.478318 0.772445 0.242137 0.396172
C13   C     C_R   0.711368 0.080062 0.420896 -0.047728
C14   C     C_R   0.956445 0.883695 0.523949 -0.137731
C15   C     C_R   0.733713 0.766977 0.473170 -0.276088
C16   C     C_3   0.013767 0.886037 0.268038 -0.389407
C17   C     C_R   0.927427 0.203609 0.472786 0.020376
C18   C     C_R   0.626010 0.536674 0.269618 -0.268782
C19   C     C_R   0.472755 0.488808 0.241787 0.019854
C20   C     C_R   0.417691 0.482200 0.158200 -0.152582
C21   C     C_R   0.518678 0.519822 0.101210 0.251894
C22   C     C_R   0.676627 0.562623 0.129585 -0.169259
C23   C     C_3   0.594623 0.739357 0.696256 0.332632
C24   C     C_R   0.730421 0.570519 0.213435 -0.014354
C25   C     C_R   0.382903 0.513919 0.852905 -0.126711
C26   C     C_R   0.333167 0.507103 0.769060 0.019905
C27   C     C_R   0.276737 0.477075 0.908310 0.245288
C28   C     C_3   0.760628 0.346866 0.287427 0.293321
C29   C     C_R   0.179872 0.462053 0.738729 -0.278321
C30   C     C_R   0.069682 0.429151 0.792642 0.017569
C31   C     C_R   0.118039 0.436438 0.877516 -0.168290
C32   C     C_3   0.726405 0.322602 0.194248 -0.420785
C33   C     C_3   0.087445 0.694428 0.726349 0.335247
C34   C     C_3   0.686945 0.814384 0.760602 -0.354559
C35   C     C_3   0.182442 0.762361 0.795914 -0.318678
C36   C     C_3   0.184321 0.262571 0.263782 0.356704
C37   C     C_3   0.183459 0.255742 0.168448 -0.204074
C38   C     C_3   0.379708 0.719408 0.165287 -0.271870
C39   C     C_3   0.972722 0.626296 0.764161 -0.329999
C40   C     C_3   0.164669 0.168889 0.293594 -0.334793
C41   C     C_3   0.500079 0.923626 0.179924 -0.398055
C42   C     C_3   0.066364 0.176525 0.120243 -0.475468
C43   C     C_3   0.509747 0.781149 0.628265 -0.315634
C44   C     C_3   0.679005 0.040885 0.673092 -0.431536
C45   C     C_3   0.819097 0.205346 0.692877 0.351314
C46   C     C_3   0.214946 0.236387 0.764678 -0.351233
C47   C     C_3   0.499703 0.276407 0.910268 -0.450425
C48   C     C_3   0.442550 0.993201 0.417193 -0.338499
C49   C     C_3   0.828404 0.107207 0.709581 -0.255739
C50   C     C_3   0.396786 0.235929 0.756800 0.353992
C51   C     C_3   0.472893 0.203324 0.834613 -0.196552
C52   C     C_R   0.640840 0.831420 0.445008 -0.017415
H1    H     H_    0.630886 0.262590 0.179655 0.126531
H2    H     H_    0.684700 0.698371 0.668617 0.069397
H3    H     H_    0.735363 0.784774 0.814346 0.109244
H4    H     H_    0.791227 0.851252 0.733750 0.100246
H5    H     H_    0.661538 0.890561 0.276351 0.085940
H6    H     H_    0.979275 0.936787 0.316992 0.068513
H7    H     H_    0.707325 0.210101 0.654756 0.126440
H8    H     H_    0.921994 0.225326 0.656062 -0.038793
H9    H     H_    0.935882 0.083040 0.681196 0.087970
H10   H     H_    0.457431 0.305318 0.751431 0.094058
H11   H     H_    0.395149 0.142552 0.850172 0.095826
H12   H     H_    0.839514 0.307698 0.165967 0.114204
H13   H     H_    0.045720 0.785976 0.347957 0.104172
H14   H     H_    0.592127 0.181239 0.821917 0.162255
H15   H     H_    0.681202 0.696383 0.467039 0.072146
H16   H     H_    0.074448 0.900134 0.557565 0.085017
H17   H     H_    0.129868 0.303181 0.521087 0.080999
H18   H     H_    0.502386 0.550121 0.874618 0.101610
H19   H     H_    0.757711 0.589311 0.086322 0.086741
H20   H     H_    0.033471 0.409615 0.919183 0.087197
H21   H     H_    0.668435 0.542120 0.334186 0.069719
H22   H     H_    0.651160 0.368762 0.314168 0.046653
H23   H     H_    0.173829 0.658677 0.690017 0.049516
H24   H     H_    0.864062 0.402888 0.300240 0.055111
H25   H     H_    0.318904 0.654380 0.180961 0.144259
H26   H     H_    0.283968 0.757839 0.142674 0.138105
H27   H     H_    0.460409 0.704697 0.115014 0.052850
H28   H     H_    0.684528 0.379756 0.166345 0.066422
H29   H     H_    0.927892 0.568305 0.716043 0.131820
H30   H     H_    0.036259 0.602286 0.817078 0.042116
H31   H     H_    0.867588 0.657357 0.787871 0.119573
H32   H     H_    0.263491 0.814470 0.769775 0.112281
H33   H     H_    0.188433 0.176685 0.361711 0.089566
H34   H     H_    0.257903 0.727300 0.836761 0.095885
H35   H     H_    0.038701 0.133114 0.277759 0.081273
H36   H     H_    0.253627 0.126650 0.266143 0.103657
H37   H     H_    0.589188 0.983200 0.171815 0.117600
H38   H     H_    0.406571 0.947846 0.219395 0.134496
H39   H     H_    0.441581 0.893649 0.118049 0.119370
H40   H     H_    0.146404 0.319091 0.149757 0.077398
H41   H     H_    0.054680 0.185929 0.053957 0.136724
H42   H     H_    0.114439 0.111314 0.124638 0.135395
H43   H     H_    0.943569 0.172631 0.144015 0.139408
H44   H     H_    0.464988 0.727251 0.576242 0.137733
H45   H     H_    0.097019 0.797634 0.833965 0.097034
H46   H     H_    0.405958 0.814217 0.651234 0.119865
H47   H     H_    0.595732 0.833316 0.605710 0.028404
H48   H     H_    0.604556 0.863383 0.783366 0.102110
H49   H     H_    0.709198 0.971150 0.671686 0.115391
H50   H     H_    0.575272 0.047321 0.711990 0.165234
H51   H     H_    0.643822 0.051206 0.608787 0.164477
H52   H     H_    0.845720 0.103892 0.777036 0.132749
H53   H     H_    0.153350 0.165679 0.758966 0.105084
H54   H     H_    0.190401 0.271717 0.825067 0.090858
H55   H     H_    0.165718 0.271683 0.715443 0.045599
H56   H     H_    0.081466 0.296740 0.285432 0.065903
H57   H     H_    0.381825 0.291729 0.933213 0.136584
H58   H     H_    0.569850 0.251672 0.960873 0.130031
H59   H     H_    0.569971 0.339625 0.895464 0.178212
H60   H     H_    0.404750 0.060328 0.409550 0.106714
H61   H     H_    0.387727 0.950019 0.361058 0.137080
H62   H     H_    0.389621 0.975332 0.474396 0.138810
H63   H     H_    0.184015 0.034229 0.563594 0.071086
H64   H     H_    0.649051 0.125936 0.388987 0.118086
H65   H     H_    0.296858 0.448156 0.137866 0.098744
H66   H     H_    0.839949 0.780315 0.302493 -0.102212
H67   H     H_    0.308553 0.250349 0.149149 0.108444
H68   H     H_    0.142215 0.457820 0.673644 0.073264
H69   H     H_    0.146452 0.900576 0.262222 0.138316
H70   H     H_    0.949044 0.892862 0.208253 0.110566
H71   H     H_    0.557591 0.725383 0.266170 -0.047013
H72   H     H_    0.677056 0.829950 0.176144 0.078912
N1    N     N_2   0.468543 0.515053 0.015443 -0.241494
N2    N     N_2   0.323611 0.481194 0.994548 -0.238618
O1    O     O_2   0.162570 0.722330 0.548140 -0.467395
O2    O     O_2   0.728795 0.425408 0.788922 -0.498163
O3    O     O_3   0.824515 0.263740 0.767867 -0.628637
O4    O     O_3   0.890730 0.608900 0.545420 -0.487147
O5    O     O_3   0.431610 0.453580 0.401830 -0.446196
O6    O     O_2   0.628250 0.544210 0.698290 -0.469429
O7    O     O_3   0.476210 0.689173 0.736265 -0.657326
O8    O     O_2   0.499129 0.175477 0.536837 -0.499791
O9    O     O_3   0.420650 0.174324 0.687480 -0.630254
O10   O     O_3   0.394120 0.666550 0.400060 -0.459163
O11   O     O_2   0.298973 0.818940 0.453184 -0.496808
O12   O     O_3   0.334643 0.308858 0.300847 -0.628414
O13   O     O_3   0.993851 0.742923 0.678607 -0.655192
O14   O     O_3   0.368583 0.801187 0.299208 -0.594601
O15   O     O_2   0.182040 0.455740 0.301680 -0.485497
O16   O     O_3   0.971530 0.620720 0.357690 -0.484312
O17   O     O_2   0.061364 0.557830 0.210626 -0.482662
O18   O     O_3   0.003889 0.726404 0.225622 -0.593944
O19   O     O_2   0.647720 0.277620 0.451840 -0.437301
O20   O     O_3   0.919570 0.391090 0.454510 -0.493476
O21   O     O_3   0.416180 0.333440 0.599870 -0.472950
O22   O     O_3   0.798334 0.269729 0.320183 -0.650427
O23   O     O_3   0.378690 0.546410 0.598100 -0.465743
O24   O     O_3   0.838770 0.379270 0.642240 -0.487943
P1    P     P_3+3 0.987060 0.708150 0.571770 0.970684
P2    P     P_3+3 0.349540 0.428350 0.313090 0.990167
P3    P     P_3+3 0.941273 0.617709 0.250780 0.959273
P4    P     P_3+3 0.823240 0.291840 0.428170 0.977282
P5    P     P_3+3 0.864098 0.376769 0.748898 0.931946
P6    P     P_3+3 0.429898 0.782875 0.399784 0.934238
P7    P     P_3+3 0.453429 0.572422 0.701566 0.935555
P8    P     P_3+3 0.375708 0.214565 0.593120 0.930250

loop_
_geom_bond_atom_site_label_1
_geom_bond_atom_site_label_2
_ccdc_geom_bond_type
C47   H59   S    
C12   O14   S    
C15   H15   S    
C25   C27   A    
O17   P3    D    
C35   H34   S    
C23   H2    S    
Ba1   O4    S    
C32   H12   S    
C45   H8    S    
C1    H72   S    
C5    C6    A    
C1    C41   S    
Ba2   O6    S    
C12   H71   S    
O2    P5    D    
Ba1   O15   S    
C33   C35   S    
C22   C24   A    
C48   H61   S    
C34   H4    S    
C8    C13   A    
C36   C37   S    
C4    O18   S    
C22   H19   S    
C28   O22   S    
C46   H53   S    
Ba2   O20   S    
C39   H29   S    
C44   H51   S    
C27   C31   A    
C34   H48   S    
Ba1   Ba2   S    
C42   H43   S    
O3    P5    S    
C51   H14   S    
O18   P3    S    
O11   P6    D    
O20   P4    S    
C6    C7    A    
Ba2   O4    S    
C21   C22   A    
C38   H26   S    
C36   H56   S    
C51   H11   S    
C7    C8    A    
C16   H69   S    
C47   H57   S    
Ba2   O21   S    
C46   H55   S    
C32   H1    S    
O22   P4    S    
C19   C20   A    
C17   P4    S    
C24   P3    S    
O14   P6    S    
Ba1   O5    S    
C4    H66   S    
C6    H63   S    
O4    P1    S    
Ba2   O24   S    
C20   H65   S    
C4    C16   S    
C2    P1    S    
Ba2   O5    S    
O7    P7    S    
C28   C32   S    
O5    P2    S    
C35   H32   S    
C14   H16   S    
C34   H3    S    
C50   H10   S    
C3    C5    A    
O15   P2    D    
C45   C49   S    
C5    P8    S    
Ba2   O19   S    
C39   H30   S    
C44   H50   S    
C44   C49   S    
C33   H23   S    
C26   P7    S    
C41   H37   S    
C18   H21   S    
C45   O3    S    
C48   H60   S    
O23   P7    S    
C2    C14   A    
C37   H40   S    
C42   H42   S    
C52   P6    S    
C28   H22   S    
C9    C14   A    
O10   P6    S    
C29   C30   A    
C8    C17   A    
C19   P2    S    
C50   O9    S    
C38   H25   S    
C49   H9    S    
C10   C11   A    
Ba1   P1    S    
O19   P4    D    
C7    C9    A    
C1    C12   S    
C43   H47   S    
C33   O13   S    
C47   H58   S    
C2    C15   A    
C16   H6    S    
C4    H13   S    
C11   C13   A    
C27   N2    S    
N1    N2    D    
C23   C43   S    
C35   H45   S    
C50   C51   S    
C21   N1    S    
C30   P5    S    
Ba2   O23   S    
O24   P5    S    
Ba2   P4    S    
O9    P8    S    
C38   H27   S    
C26   C29   A    
C29   H68   S    
C43   H46   S    
C45   H7    S    
C9    C10   A    
C36   C40   S    
C37   C42   S    
C3    C17   A    
C39   H31   S    
C44   H49   S    
Ba1   O1    S    
C41   H38   S    
C37   H67   S    
C13   H64   S    
C43   H44   S    
O8    P8    D    
C30   C31   A    
C40   H35   S    
O16   P3    S    
C3    H17   S    
Ba1   O16   S    
O1    P1    D    
O13   P1    S    
C46   H54   S    
C18   C24   A    
C49   H52   S    
C47   C51   S    
C41   H39   S    
Ba1   O23   S    
C48   H62   S    
Ba1   P2    S    
C33   C39   S    
O21   P8    S    
C25   H18   S    
C23   C34   S    
C12   C38   S    
C11   C48   S    
C28   H24   S    
C31   H20   S    
C46   C50   S    
O6    P7    D    
C18   C19   A    
C23   O7    S    
C16   H70   S    
C25   C26   A    
C42   H41   S    
C36   O12   S    
C20   C21   A    
Ba1   O20   S    
C40   H33   S    
C32   H28   S    
C40   H36   S    
C15   C52   A    
C10   C52   A    
Ba1   O10   S    
O12   P2    S    
C1    H5    S    
