data_mof_unit_13038.cif
_audit_creation_date              2012-12-11T15:36:50-0500
_audit_creation_method            fapswitch 2.2
_symmetry_space_group_name_H-M    P1
_symmetry_Int_Tables_number       1
_space_group_crystal_system       triclinic
_cell_length_a                    15.06836
_cell_length_b                    15.055971
_cell_length_c                    34.703026
_cell_angle_alpha                 91.256448
_cell_angle_beta                  91.996623
_cell_angle_gamma                 60.101884
_cell_volume                      6820.99800883

loop_
_atom_site_label
_atom_site_type_symbol
_atom_type_description
_atom_site_fract_x
_atom_site_fract_y
_atom_site_fract_z
_atom_type_partial_charge
C1    C     C_R   0.610792 0.302383 0.443943 0.539708
C2    C     C_R   0.748518 0.658823 0.180312 0.060006
C3    C     C_R   0.608699 0.131595 0.827640 0.039217
C4    C     C_R   0.687075 0.144989 0.844596 -0.155517
C5    C     C_R   0.719404 0.116205 0.882598 -0.142671
C6    C     C_R   0.553346 0.236438 0.768581 -0.119180
C7    C     C_R   0.552860 0.247268 0.728713 0.171308
C8    C     C_R   0.603907 0.158966 0.705209 0.024011
C9    C     C_R   0.645378 0.060009 0.721500 0.058862
C10   C     C_R   0.635992 0.051074 0.761629 0.198470
C11   C     C_R   0.596364 0.139694 0.785229 -0.015250
C12   C     C_R   0.550086 0.173637 0.634790 -0.029163
C13   C     C_R   0.805420 0.582395 0.153350 -0.092345
C14   C     C_R   0.553898 0.206656 0.597827 -0.156900
C15   C     C_R   0.694803 0.232523 0.617518 -0.105702
C16   C     C_R   0.694906 0.197714 0.654986 0.135759
C17   C     C_R   0.618898 0.172409 0.664045 0.011694
C18   C     C_R   0.622199 0.240884 0.589421 -0.021965
C19   C     C_R   0.045329 0.739347 0.048788 0.535422
C20   C     C_R   0.746632 0.744828 0.063606 0.576279
C21   C     C_R   0.750876 0.041008 0.050479 0.541677
C22   C     C_R   0.017680 0.722348 0.939943 0.543992
C23   C     C_R   0.716749 0.729417 0.955173 0.556998
C24   C     C_R   0.798842 0.605868 0.114066 0.012409
C25   C     C_R   0.721264 0.024003 0.941739 0.541773
C26   C     C_R   0.721939 0.567930 0.235677 0.017929
C27   C     C_R   0.718577 0.558680 0.275603 -0.147415
C28   C     C_R   0.743347 0.616605 0.301266 0.010060
C29   C     C_R   0.779330 0.678762 0.287326 -0.120393
C30   C     C_R   0.785753 0.686866 0.247763 -0.152207
C31   C     C_R   0.754055 0.634919 0.221572 0.035269
C32   C     C_R   0.608050 0.688736 0.348269 -0.131433
C33   C     C_R   0.593680 0.610779 0.449414 0.549600
C34   C     C_R   0.568372 0.695094 0.384834 0.102120
C35   C     C_R   0.743223 0.577551 0.408934 0.135951
C36   C     C_R   0.781300 0.575387 0.372063 0.167249
C37   C     C_R   0.711951 0.626626 0.341427 -0.029489
C38   C     C_R   0.635701 0.632724 0.414907 -0.004698
C39   C     C_R   0.101348 0.730730 0.085578 0.014417
C40   C     C_R   0.147875 0.637968 0.105896 -0.125797
C41   C     C_R   0.172020 0.636434 0.145105 -0.129037
C42   C     C_R   0.150371 0.727408 0.164589 0.038828
C43   C     C_R   0.113669 0.818152 0.143650 -0.089125
C44   C     C_R   0.301111 0.592463 0.442742 0.560441
C45   C     C_R   0.089720 0.819761 0.104305 -0.126509
C46   C     C_R   0.209368 0.764150 0.229201 0.152889
C47   C     C_R   0.210394 0.759762 0.269670 -0.103804
C48   C     C_R   0.156232 0.719974 0.288082 0.004750
C49   C     C_R   0.095150 0.691137 0.265890 -0.137916
C50   C     C_R   0.093181 0.695705 0.225909 -0.155991
C51   C     C_R   0.152010 0.729342 0.207133 0.057569
C52   C     C_R   0.197656 0.597614 0.341389 -0.166740
C53   C     C_R   0.226359 0.566432 0.379522 -0.020963
C54   C     C_R   0.199996 0.736630 0.395802 0.127527
C55   C     C_R   0.605859 0.299641 0.553656 0.540476
C56   C     C_R   0.171864 0.765596 0.357069 -0.120799
C57   C     C_R   0.174315 0.695148 0.329569 -0.007454
C58   C     C_R   0.237575 0.633117 0.406578 0.052822
C59   C     C_R   0.720345 0.104286 0.085696 -0.005202
C60   C     C_R   0.790654 0.124090 0.106231 -0.084175
C61   C     C_R   0.771423 0.162021 0.144178 0.056541
C62   C     C_R   0.680042 0.179960 0.161264 -0.001393
C63   C     C_R   0.605962 0.169703 0.139336 -0.153151
C64   C     C_R   0.625803 0.132282 0.101846 -0.134914
C65   C     C_R   0.597085 0.289618 0.219684 -0.001443
C66   C     C_R   0.589105 0.607599 0.558485 0.512444
C67   C     C_R   0.587158 0.297696 0.260403 0.158418
C68   C     C_R   0.647294 0.210042 0.283565 -0.020754
C69   C     C_R   0.715846 0.116774 0.266656 -0.143887
C70   C     C_R   0.725586 0.107353 0.226895 0.129633
C71   C     C_R   0.666775 0.193486 0.203290 -0.040056
C72   C     C_R   0.731108 0.191838 0.348040 -0.090710
C73   C     C_R   0.725985 0.208216 0.387858 0.138426
C74   C     C_R   0.544234 0.262850 0.383648 -0.164533
C75   C     C_R   0.551285 0.243652 0.344155 -0.134508
C76   C     C_R   0.642987 0.214725 0.325890 -0.005601
C77   C     C_R   0.298746 0.588998 0.551849 0.536103
C78   C     C_R   0.629397 0.251883 0.405662 0.028274
C79   C     C_R   0.691296 0.687490 0.920188 0.011826
C80   C     C_R   0.771991 0.605439 0.900809 -0.122472
C81   C     C_R   0.760762 0.583940 0.862078 0.005515
C82   C     C_R   0.667162 0.647367 0.842336 -0.042467
C83   C     C_R   0.583007 0.720634 0.862818 -0.129537
C84   C     C_R   0.593056 0.738783 0.902054 0.128640
C85   C     C_R   0.589607 0.624190 0.779817 0.155643
C86   C     C_R   0.583757 0.629256 0.739449 -0.068578
C87   C     C_R   0.646437 0.654953 0.719113 -0.024493
C88   C     C_R   0.739107 0.709773 0.102183 0.037136
C89   C     C_R   0.714764 0.677630 0.739128 -0.145888
C90   C     C_R   0.720131 0.674700 0.779235 -0.155824
C91   C     C_R   0.659097 0.646996 0.799854 0.017692
C92   C     C_R   0.683714 0.550563 0.660625 -0.143326
C93   C     C_R   0.670442 0.538751 0.621599 -0.142991
C94   C     C_R   0.595412 0.722794 0.612142 0.025820
C95   C     C_R   0.601493 0.735667 0.652843 0.041962
C96   C     C_R   0.646321 0.648037 0.676745 -0.029467
C97   C     C_R   0.622295 0.624067 0.597267 -0.032172
C98   C     C_R   0.068976 0.699074 0.902957 -0.018732
C99   C     C_R   0.680917 0.785066 0.129553 -0.151442
C100  C     C_R   0.106915 0.760967 0.890084 -0.171061
C101  C     C_R   0.135713 0.755984 0.851929 -0.023537
C102  C     C_R   0.124623 0.687557 0.826082 0.032006
C103  C     C_R   0.094701 0.618796 0.839952 0.117795
C104  C     C_R   0.068143 0.624627 0.878440 -0.117843
C105  C     C_R   0.220332 0.605150 0.767887 -0.108179
C106  C     C_R   0.230512 0.597824 0.728379 -0.158901
C107  C     C_R   0.157858 0.675242 0.704596 -0.009116
C108  C     C_R   0.073911 0.762932 0.720263 0.170878
C109  C     C_R   0.063117 0.771188 0.760815 0.089609
C110  C     C_R   0.685167 0.759729 0.168087 -0.126791
C111  C     C_R   0.137460 0.690274 0.784338 0.037197
C112  C     C_R   0.220884 0.718092 0.647688 -0.123266
C113  C     C_R   0.252523 0.699251 0.609910 -0.130942
C114  C     C_R   0.195680 0.574228 0.603381 -0.125056
C115  C     C_R   0.161977 0.594944 0.641132 -0.122981
C116  C     C_R   0.176402 0.665562 0.663426 0.021716
C117  C     C_R   0.243600 0.624475 0.587893 0.019105
C118  C     C_R   0.672791 0.074886 0.904711 -0.019931
C119  C     C_R   0.587276 0.071022 0.889040 -0.095138
C120  C     C_R   0.554982 0.097915 0.850290 0.177216
Cr1   Cr    Cr6+3 0.426010 0.422500 0.497000 1.048656
Cr2   Cr    Cr6+3 0.651300 0.426310 0.501970 0.993208
Cr3   Cr    Cr6+3 0.422670 0.651170 0.501050 1.031594
Cr4   Cr    Cr6+3 0.905130 0.911420 0.992650 1.019152
Cr5   Cr    Cr6+3 0.911860 0.682710 0.002320 1.064895
Cr6   Cr    Cr6+3 0.682710 0.906840 0.004710 1.026130
H1    H     H_    0.635005 0.864905 0.121498 0.130205
H2    H     H_    0.852934 0.503963 0.162960 0.108611
H3    H     H_    0.158387 0.568102 0.092249 0.131958
H4    H     H_    0.053705 0.892602 0.089501 0.142189
H5    H     H_    0.148022 0.843155 0.348351 0.097630
H6    H     H_    0.258357 0.781599 0.286569 0.091493
H7    H     H_    0.201481 0.565419 0.160842 0.115326
H8    H     H_    0.051292 0.661934 0.279512 0.112536
H9    H     H_    0.046579 0.671305 0.209437 0.110352
H10   H     H_    0.195725 0.544059 0.320422 0.093419
H11   H     H_    0.096079 0.889170 0.158255 0.160596
H12   H     H_    0.863068 0.104072 0.093586 0.169577
H13   H     H_    0.569688 0.119007 0.086436 0.131849
H14   H     H_    0.484128 0.255437 0.327585 0.118782
H15   H     H_    0.761807 0.050239 0.284591 0.114143
H16   H     H_    0.803567 0.164665 0.334128 0.123252
H17   H     H_    0.535639 0.183781 0.152273 0.108696
H18   H     H_    0.470064 0.292674 0.396398 0.142107
H19   H     H_    0.846259 0.561951 0.915145 0.184579
H20   H     H_    0.689224 0.511922 0.286837 0.106074
H21   H     H_    0.532222 0.610649 0.723565 0.109798
H22   H     H_    0.764626 0.696191 0.723703 0.156448
H23   H     H_    0.773009 0.692835 0.794444 0.107663
H24   H     H_    0.717581 0.483499 0.678909 0.117322
H25   H     H_    0.692919 0.462498 0.610846 0.136646
H26   H     H_    0.510264 0.766873 0.847815 0.112976
H27   H     H_    0.109963 0.816740 0.909576 0.115965
H28   H     H_    0.039864 0.575759 0.888342 0.160875
H29   H     H_    0.128964 0.552919 0.653532 0.119825
H30   H     H_    0.295413 0.531278 0.716161 0.149941
H31   H     H_    0.276369 0.543144 0.785815 0.136919
H32   H     H_    0.235569 0.770013 0.665261 0.124797
H33   H     H_    0.290542 0.738109 0.598979 0.144107
H34   H     H_    0.640295 0.819470 0.188639 0.106946
H35   H     H_    0.188646 0.515855 0.587016 0.133576
H36   H     H_    0.548567 0.043136 0.906613 0.141328
H37   H     H_    0.784554 0.121328 0.893982 0.148623
H38   H     H_    0.518439 0.303962 0.786857 0.128404
H39   H     H_    0.796938 0.725239 0.306879 0.110750
H40   H     H_    0.498624 0.211515 0.575897 0.123413
H41   H     H_    0.728415 0.170947 0.827421 0.133950
H42   H     H_    0.747435 0.258431 0.610451 0.125655
H43   H     H_    0.811469 0.737367 0.237410 0.098535
H44   H     H_    0.558380 0.731114 0.324175 0.127335
O1    O     O_R   0.324990 0.503440 0.453910 -0.467618
O2    O     O_R   0.639980 0.519500 0.542640 -0.499722
O3    O     O_R   0.500750 0.673190 0.545480 -0.529520
O4    O     O_R   0.336260 0.640450 0.538210 -0.506972
O5    O     O_3   0.499990 0.499990 0.500010 -0.242871
O6    O     O_R   0.834210 0.019400 0.034570 -0.516077
O7    O     O_R   0.002210 0.824620 0.031030 -0.503861
O8    O     O_R   0.024400 0.669340 0.039790 -0.513341
O9    O     O_R   0.830490 0.694950 0.045870 -0.457273
O10   O     O_R   0.675430 0.831160 0.051290 -0.526053
O11   O     O_R   0.698870 0.998880 0.039560 -0.503000
O12   O     O_R   0.522030 0.339050 0.458320 -0.502021
O13   O     O_R   0.811290 0.006780 0.950620 -0.509657
O14   O     O_R   0.980960 0.812920 0.953200 -0.499727
O15   O     O_R   0.001480 0.656720 0.955830 -0.512564
O16   O     O_R   0.809240 0.683250 0.968050 -0.497089
O17   O     O_R   0.652500 0.818540 0.967340 -0.478082
O18   O     O_R   0.677620 0.987170 0.961730 -0.501927
O19   O     O_3   0.833240 0.833660 0.999890 -0.252087
O20   O     O_R   0.676180 0.324490 0.458320 -0.521198
O21   O     O_R   0.643570 0.521510 0.464260 -0.496883
O22   O     O_R   0.504630 0.675350 0.460920 -0.496855
O23   O     O_R   0.339850 0.642450 0.459830 -0.461567
O24   O     O_R   0.321120 0.501280 0.538470 -0.511355
O25   O     O_R   0.518440 0.337050 0.536710 -0.495360
O26   O     O_R   0.672300 0.322330 0.542880 -0.524563
N1    N     N_2   0.461721 0.761877 0.391657 -0.474718
H45   H     H_    0.448202 0.813183 0.413927 0.268613
C121  C     C_3   0.390181 0.806127 0.359305 -0.305678
H46   H     H_    0.311181 0.848854 0.369882 0.138614
H47   H     H_    0.395785 0.744837 0.339398 0.154873
H48   H     H_    0.404523 0.861487 0.343915 0.123979
N2    N     N_2   0.813829 0.525814 0.440085 -0.501374
H49   H     H_    0.792179 0.556392 0.467308 0.245039
C122  C     C_3   0.872038 0.414894 0.438238 -0.246655
H50   H     H_    0.848797 0.381878 0.461523 0.137994
H51   H     H_    0.954704 0.389165 0.442343 0.161145
H52   H     H_    0.860329 0.384956 0.410095 0.157681
N3    N     N_2   0.268472 0.800364 0.211061 -0.543229
H53   H     H_    0.274427 0.856263 0.226749 0.243589
C123  C     C_3   0.367155 0.720234 0.198439 -0.247170
H54   H     H_    0.406169 0.754805 0.183251 0.161116
H55   H     H_    0.358034 0.667143 0.178122 0.205552
H56   H     H_    0.415900 0.676656 0.223665 0.181155
C124  C     C_2   0.852647 0.518984 0.086904 0.245790
H57   H     H_    0.917267 0.447690 0.097204 0.101082
O27   O     O_2   0.822384 0.523585 0.053516 -0.485241
C125  C     C_2   0.243867 0.463239 0.388736 0.217606
H58   H     H_    0.282771 0.400680 0.368388 0.077075
O28   O     O_2   0.207873 0.449057 0.417386 -0.496933
N4    N     N_2   0.190545 0.811898 0.423603 -0.490042
H59   H     H_    0.184532 0.877261 0.412064 0.235614
C126  C     C_3   0.113187 0.836210 0.451910 -0.291531
H60   H     H_    0.036377 0.868973 0.437495 0.124795
H61   H     H_    0.112766 0.893402 0.472771 0.132326
H62   H     H_    0.129181 0.766975 0.468248 0.157663
N5    N     N_2   0.522482 0.394609 0.278121 -0.470392
H63   H     H_    0.549353 0.409461 0.303786 0.247942
C127  C     C_3   0.413475 0.430374 0.276933 -0.253101
H64   H     H_    0.371200 0.511614 0.267645 0.191390
H65   H     H_    0.387763 0.426442 0.306097 0.098774
H66   H     H_    0.393556 0.384517 0.256560 0.146173
C128  C     C_2   0.539416 0.380427 0.193925 0.227347
H67   H     H_    0.540240 0.370956 0.162877 0.122967
O29   O     O_2   0.491886 0.467487 0.206638 -0.512071
N6    N     N_2   0.888740 0.518341 0.365891 -0.506336
H68   H     H_    0.908722 0.485751 0.338870 0.248452
C129  C     C_3   0.944165 0.570088 0.378056 -0.271793
H69   H     H_    0.027020 0.518930 0.373211 0.171789
H70   H     H_    0.933947 0.589572 0.409227 0.193188
H71   H     H_    0.917359 0.641163 0.361139 0.119744
C130  C     C_2   0.848306 0.178549 0.166212 0.235331
H72   H     H_    0.832499 0.211037 0.195059 0.105834
O30   O     O_2   0.930219 0.156566 0.152355 -0.526334
N7    N     N_2   0.797200 0.011071 0.210665 -0.503311
H73   H     H_    0.864209 0.972330 0.226907 0.249824
C131  C     C_3   0.754750 0.946054 0.200239 -0.301927
H74   H     H_    0.814503 0.874433 0.186696 0.144070
H75   H     H_    0.689821 0.984924 0.179204 0.165270
H76   H     H_    0.727778 0.925995 0.226311 0.126634
N8    N     N_2   0.818643 0.182517 0.408603 -0.523765
H77   H     H_    0.824192 0.243702 0.419527 0.266195
C132  C     C_3   0.854754 0.096867 0.434601 -0.300103
H78   H     H_    0.931537 0.077421 0.446628 0.133360
H79   H     H_    0.861515 0.028777 0.418860 0.147954
H80   H     H_    0.801681 0.116223 0.458792 0.155431
N9    N     N_2   0.505468 0.812046 0.922303 -0.497249
H81   H     H_    0.445079 0.862155 0.904803 0.232814
C133  C     C_3   0.472364 0.768579 0.951514 -0.275309
H82   H     H_    0.407139 0.831114 0.966990 0.143198
H83   H     H_    0.446980 0.717115 0.937927 0.132595
H84   H     H_    0.535136 0.724764 0.972941 0.174269
C134  C     C_2   0.553114 0.838970 0.671188 0.291782
H85   H     H_    0.584550 0.851460 0.697961 0.112942
O31   O     O_2   0.474315 0.909962 0.657666 -0.442855
N10   N     N_2   0.531201 0.589294 0.799484 -0.557587
H86   H     H_    0.555927 0.563493 0.827203 0.259941
C135  C     C_3   0.421324 0.653529 0.795549 -0.281721
H87   H     H_    0.383510 0.621369 0.812877 0.155291
H88   H     H_    0.395436 0.656832 0.765012 0.167965
H89   H     H_    0.397704 0.732091 0.806179 0.185093
C136  C     C_2   0.847684 0.497364 0.842287 0.207041
H90   H     H_    0.837956 0.476257 0.813009 0.117346
O32   O     O_2   0.931225 0.447817 0.858529 -0.527648
C137  C     C_2   0.569789 0.808195 0.584889 0.258546
H91   H     H_    0.544411 0.806156 0.555497 0.120638
O33   O     O_2   0.583180 0.879447 0.594147 -0.489584
C138  C     C_2   0.684702 0.511422 0.210668 0.227238
H92   H     H_    0.685645 0.444233 0.221894 0.124964
O34   O     O_2   0.649039 0.540572 0.178280 -0.488416
C139  C     C_2   0.172069 0.827050 0.840601 0.189861
H93   H     H_    0.178457 0.877061 0.862166 0.107997
O35   O     O_2   0.195189 0.831477 0.807649 -0.538725
N11   N     N_2   0.996355 0.837329 0.695326 -0.437152
H94   H     H_    0.978873 0.807381 0.671135 0.259466
C140  C     C_3   0.006653 0.925386 0.686782 -0.247934
H95   H     H_    0.932192 0.987227 0.675318 0.161779
H96   H     H_    0.064324 0.906192 0.664466 0.111987
H97   H     H_    0.028799 0.954201 0.713020 0.194597
C141  C     C_2   0.974077 0.860659 0.779006 0.254254
H98   H     H_    0.963207 0.862165 0.809727 0.082393
O36   O     O_2   0.911178 0.934253 0.760320 -0.491287
N12   N     N_2   0.089391 0.544591 0.815170 -0.511337
H99   H     H_    0.101170 0.479147 0.828757 0.282610
C142  C     C_3   0.006215 0.583183 0.786608 -0.282144
H100  H     H_    0.959186 0.546150 0.790087 0.149873
H101  H     H_    0.038392 0.564700 0.757345 0.164823
H102  H     H_    0.955294 0.667381 0.789046 0.127480
N13   N     N_2   0.765483 0.193991 0.684680 -0.529026
H103  H     H_    0.785509 0.138977 0.705541 0.273888
C143  C     C_3   0.846147 0.215374 0.675799 -0.321993
H104  H     H_    0.892731 0.207808 0.702332 0.155383
H105  H     H_    0.812859 0.295154 0.665361 0.142278
H106  H     H_    0.897016 0.160261 0.653879 0.139275
N14   N     N_2   0.497229 0.347240 0.712386 -0.517675
H107  H     H_    0.473752 0.350663 0.683936 0.264265
C144  C     C_3   0.537239 0.414990 0.721317 -0.311372
H108  H     H_    0.485122 0.490876 0.708285 0.131103
H109  H     H_    0.614379 0.384275 0.709173 0.177336
H110  H     H_    0.541459 0.425533 0.752935 0.176301
N15   N     N_2   0.468572 0.092956 0.834451 -0.502650
H111  H     H_    0.443991 0.122395 0.807137 0.273102
C145  C     C_3   0.465400 0.999870 0.840828 -0.295172
H112  H     H_    0.399763 0.002579 0.824209 0.152033
H113  H     H_    0.453861 0.992568 0.871665 0.147194
H114  H     H_    0.536971 0.931857 0.831221 0.164426
C146  C     C_2   0.700196 0.967603 0.696479 0.252053
H115  H     H_    0.687367 0.973314 0.665476 0.138811
O37   O     O_2   0.762804 0.884555 0.709896 -0.517727
N16   N     N_2   0.655035 0.956326 0.777580 -0.490395
H116  H     H_    0.635980 0.911262 0.760409 0.269652
C147  C     C_3   0.745071 0.900548 0.802218 -0.250276
H117  H     H_    0.804508 0.834254 0.786192 0.167697
H118  H     H_    0.724797 0.871662 0.827673 0.123288
H119  H     H_    0.776961 0.949302 0.812568 0.177327
C148  C     C_2   0.468750 0.147344 0.641434 0.257682
H120  H     H_    0.420605 0.147738 0.617345 0.132122
O38   O     O_2   0.453401 0.125641 0.673251 -0.483744

loop_
_geom_bond_atom_site_label_1
_geom_bond_atom_site_label_2
_ccdc_geom_bond_type
C100  H27   S    
C89   H22   S    
C147  H118  S    
C126  H60   S    
C86   H21   S    
C114  C115  A    
C126  H62   S    
Cr2   O21   S    
C143  H104  S    
C72   H16   S    
N2    C122  S    
C16   N13   S    
C112  H32   S    
C66   C97   S    
Cr6   O17   S    
C21   C59   S    
C75   H14   S    
C24   C124  S    
C143  H106  S    
C147  H119  S    
C106  C107  A    
C56   C57   A    
N1    C121  S    
C12   C148  S    
C129  H69   S    
C35   C36   A    
C136  H90   S    
Cr5   O9    S    
C130  O30   D    
Cr6   O10   S    
C148  H120  S    
C108  N11   S    
C1    O20   A    
C95   C134  S    
C121  H46   S    
N7    H73   S    
C102  C111  S    
Cr4   O19   S    
C109  C141  S    
C129  H70   S    
N8    H77   S    
C6    C11   A    
C4    C5    A    
C114  H35   S    
C94   C97   A    
C99   C110  A    
C82   C91   S    
C32   C34   A    
C75   C76   A    
C30   H43   S    
C127  H64   S    
N5    H63   S    
C119  C120  A    
C44   O23   A    
C135  H88   S    
C87   C89   A    
C120  N15   S    
Cr1   O24   S    
C26   C138  S    
Cr3   O4    S    
C83   H26   S    
C131  H76   S    
C134  O31   D    
N11   H94   S    
C140  H97   S    
C33   C38   S    
C72   C73   A    
C133  H83   S    
C23   O16   A    
C53   C58   A    
C6    C7    A    
C8    C17   S    
C33   O21   A    
C140  H96   S    
Cr1   O5    S    
C69   C70   A    
C88   C99   A    
C3    C11   S    
C70   N7    S    
C2    C31   S    
N9    C133  S    
Cr3   O22   S    
C60   H12   S    
Cr1   O12   S    
C15   C18   A    
C40   H3    S    
C77   O4    A    
C22   C98   S    
C41   H7    S    
C145  H112  S    
C48   C57   S    
C142  H101  S    
C85   C86   A    
C108  C109  A    
C29   C30   A    
C5    H37   S    
C36   C37   A    
Cr4   O14   S    
C127  H66   S    
C45   H4    S    
C109  C111  A    
C79   C84   A    
C145  H113  S    
C115  C116  A    
C92   C96   A    
N6    H68   S    
Cr5   O15   S    
N9    H81   S    
C22   O14   A    
N14   C144  S    
C121  H48   S    
C107  C108  A    
C14   H40   S    
C9    C10   A    
C19   O7    A    
C39   C45   A    
C55   O26   A    
C20   O9    A    
C122  H51   S    
C102  C103  A    
C56   H5    S    
C84   N9    S    
C35   C38   A    
C39   C40   A    
C68   C69   A    
C54   N4    S    
C46   C51   A    
C81   C136  S    
N16   C147  S    
N12   H99   S    
N13   C143  S    
C125  O28   D    
C83   C84   A    
C67   N5    S    
N3    H53   S    
C32   C37   A    
C113  H33   S    
C43   C45   A    
Cr4   O7    S    
N10   C135  S    
C18   C55   S    
C113  C117  A    
N5    C127  S    
C82   C83   A    
C106  H30   S    
N15   C145  S    
C52   H10   S    
C3    C4    A    
C93   C97   A    
C112  C116  A    
C110  H34   S    
C52   C53   A    
Cr1   O1    S    
C85   N10   S    
C132  H80   S    
Cr3   O5    S    
C126  H61   S    
Cr4   O6    S    
C139  O35   D    
C101  C139  S    
C5    C118  A    
C144  H110  S    
N11   C140  S    
C23   O17   A    
C28   C37   S    
C100  C101  A    
C62   C71   S    
C61   C62   A    
C107  C116  S    
C114  C117  A    
C10   C11   A    
C63   C64   A    
C59   C60   A    
C123  H56   S    
C7    N14   S    
C136  O32   D    
C49   C50   A    
Cr5   O8    S    
C63   H17   S    
C138  H92   S    
Cr6   O11   S    
C148  O38   D    
C73   N8    S    
C101  C102  A    
C41   C42   A    
C137  H91   S    
C49   H8    S    
C25   C118  S    
C134  H85   S    
C129  H71   S    
C26   C27   A    
C65   C128  S    
C28   C29   A    
C50   H9    S    
C54   C58   A    
C30   C31   A    
C69   H15   S    
C141  H98   S    
C29   H39   S    
C146  O37   D    
C105  H31   S    
C44   C58   S    
C16   C17   A    
C65   C67   A    
C12   C17   A    
C103  N12   S    
C70   C71   A    
C143  H105  S    
C147  H117  S    
C105  C111  A    
C1    C78   S    
C119  H36   S    
Cr3   O3    S    
Cr2   O20   S    
C131  H75   S    
C67   C68   A    
C7    C8    A    
C142  H100  S    
C86   C87   A    
C99   H1    S    
C144  H108  S    
C60   C61   A    
N13   H103  S    
C62   C63   A    
C123  H54   S    
C130  H72   S    
C24   C88   A    
C9    C146  S    
C80   H19   S    
C6    H38   S    
C98   C100  A    
N7    C131  S    
C92   H24   S    
C93   H25   S    
C36   N6    S    
C42   C43   A    
C94   C137  S    
C61   C130  S    
C74   H18   S    
C46   C47   A    
C2    C110  A    
C1    O12   A    
C46   N3    S    
C105  C106  A    
C4    H41   S    
C47   H6    S    
C44   O1    A    
C127  H65   S    
C90   C91   A    
C132  H78   S    
C27   H20   S    
C20   C88   S    
Cr6   O18   S    
C92   C93   A    
N6    C129  S    
C124  H57   S    
C94   C95   A    
C52   C57   A    
C135  H87   S    
N12   C142  S    
N14   H107  S    
C74   C78   A    
C103  C104  A    
C121  H47   S    
Cr3   O23   S    
C104  H28   S    
C89   C90   A    
Cr1   O25   S    
Cr2   O5    S    
C64   H13   S    
C55   O25   A    
N15   H111  S    
C14   C18   A    
C95   C96   A    
C72   C76   A    
C133  H84   S    
C81   C82   A    
C85   C91   A    
C20   O10   A    
C122  H50   S    
C21   O11   A    
C59   C64   A    
C33   O22   A    
C66   O2    A    
C137  O33   D    
C77   C117  S    
C124  O27   D    
C140  H95   S    
N8    C132  S    
C15   C16   A    
C2    C13   A    
C118  C119  A    
C13   H2    S    
C10   N16   S    
C8    C9    A    
C73   C78   A    
C66   O3    A    
C42   C51   S    
C26   C31   A    
N1    H45   S    
C90   H23   S    
C112  C113  A    
C50   C51   A    
C142  H102  S    
C54   C56   A    
C74   C75   A    
Cr4   O13   S    
N10   H86   S    
C132  H79   S    
C145  H114  S    
C139  H93   S    
C65   C71   A    
C13   C24   A    
Cr5   O16   S    
C144  H109  S    
Cr6   O19   S    
C25   O18   A    
N4    H59   S    
C47   C48   A    
C135  H89   S    
C21   O6    A    
C87   C96   S    
C68   C76   S    
C128  O29   D    
C19   O8    A    
C19   C39   S    
C40   C41   A    
C123  H55   S    
C12   C14   A    
Cr2   O2    S    
C138  O34   D    
C15   H42   S    
C133  H82   S    
C128  H67   S    
C122  H52   S    
C53   C125  S    
C32   H44   S    
C48   C49   A    
C115  H29   S    
C34   C38   A    
Cr2   O26   S    
C80   C81   A    
C131  H74   S    
N16   H116  S    
C22   O15   A    
N4    C126  S    
C77   O24   A    
C34   N1    S    
C35   N2    S    
C125  H58   S    
C98   C104  A    
N3    C123  S    
C43   H11   S    
C141  O36   D    
C146  H115  S    
C3    C120  A    
C79   C80   A    
C27   C28   A    
Cr5   O19   S    
N2    H49   S    
C23   C79   S    
C25   O13   A    
