data_mof_unit_31661.cif
_audit_creation_date              2012-12-10T17:17:49-0500
_audit_creation_method            fapswitch 2.2
_symmetry_space_group_name_H-M    P1
_symmetry_Int_Tables_number       1
_space_group_crystal_system       triclinic
_cell_length_a                    14.564917
_cell_length_b                    16.086556
_cell_length_c                    9.621293
_cell_angle_alpha                 90.293218
_cell_angle_beta                  88.745558
_cell_angle_gamma                 89.972808
_cell_volume                      2253.69255127

loop_
_atom_site_label
_atom_site_type_symbol
_atom_type_description
_atom_site_fract_x
_atom_site_fract_y
_atom_site_fract_z
_atom_type_partial_charge
C1    C     C_R   0.384708 0.878055 0.501737 0.829924
C2    C     C_R   0.384079 0.121517 0.502181 0.831291
C3    C     C_R   0.884708 0.378055 0.501737 0.829924
C4    C     C_R   0.884079 0.621517 0.502181 0.831291
C5    C     C_R   0.288978 0.222772 0.381438 -0.142428
C6    C     C_R   0.290771 0.774987 0.380873 -0.145052
C7    C     C_R   0.788978 0.722772 0.381438 -0.142428
C8    C     C_R   0.790771 0.274987 0.380873 -0.145052
C9    C     C_R   0.719363 0.780943 0.378782 -0.105997
C10   C     C_R   0.721337 0.216582 0.378868 -0.119924
C11   C     C_R   0.219363 0.280943 0.378782 -0.105997
C12   C     C_R   0.221337 0.716582 0.378868 -0.119924
C13   C     C_R   0.672282 0.803426 0.501327 -0.105502
C14   C     C_R   0.674245 0.195175 0.501752 -0.098987
C15   C     C_R   0.172282 0.303426 0.501327 -0.105502
C16   C     C_R   0.174245 0.695174 0.501752 -0.098987
C17   C     C_R   0.674197 0.029531 0.127862 0.307072
C18   C     C_R   0.174197 0.529531 0.127862 0.307072
C19   C     C_R   0.744853 0.060368 0.041800 -0.170503
C20   C     C_R   0.244853 0.560368 0.041800 -0.170503
C21   C     C_R   0.742161 0.049304 0.901090 -0.239669
C22   C     C_R   0.242161 0.549304 0.901090 -0.239669
C23   C     C_R   0.665016 0.015797 0.843817 -0.082975
C24   C     C_R   0.165016 0.515797 0.843817 -0.082975
C25   C     C_R   0.582227 0.007454 0.920974 0.120096
C26   C     C_R   0.082227 0.507454 0.920974 0.120096
C27   C     C_R   0.584163 0.009968 0.071016 0.123810
C28   C     C_R   0.084163 0.509968 0.071016 0.123810
C29   C     C_R   0.420701 0.995715 0.076351 0.306418
C30   C     C_R   0.920701 0.495715 0.076351 0.306418
C31   C     C_R   0.612986 0.123186 0.500089 0.817596
C32   C     C_R   0.612134 0.876269 0.499772 0.822174
C33   C     C_R   0.112986 0.623185 0.500089 0.817596
C34   C     C_R   0.112134 0.376269 0.499772 0.822174
C35   C     C_R   0.420792 0.996679 0.928674 0.280060
C36   C     C_R   0.920792 0.496679 0.928674 0.280060
C37   C     C_R   0.311873 0.204717 0.769130 -0.153530
C38   C     C_R   0.315928 0.793730 0.767953 -0.161845
C39   C     C_R   0.811873 0.704717 0.769130 -0.153530
C40   C     C_R   0.815928 0.293730 0.767953 -0.161845
C41   C     C_R   0.257923 0.218119 0.888919 -0.102890
C42   C     C_R   0.262159 0.782215 0.888242 -0.119460
C43   C     C_R   0.757923 0.718119 0.888919 -0.102890
C44   C     C_R   0.762159 0.282215 0.888242 -0.119460
C45   C     C_R   0.668044 0.745985 0.877602 0.305528
C46   C     C_R   0.671558 0.256153 0.877682 0.314190
C47   C     C_R   0.168044 0.245985 0.877602 0.305528
C48   C     C_R   0.171558 0.756153 0.877682 0.314191
C49   C     C_R   0.635843 0.768759 0.748112 -0.183520
C50   C     C_R   0.638799 0.231908 0.748763 -0.174719
C51   C     C_R   0.135843 0.268759 0.748112 -0.183520
C52   C     C_R   0.138799 0.731908 0.748763 -0.174719
C53   C     C_R   0.693461 0.763793 0.627896 0.042120
C54   C     C_R   0.696137 0.235274 0.628150 0.037010
C55   C     C_R   0.193462 0.263793 0.627896 0.042120
C56   C     C_R   0.196137 0.735274 0.628150 0.037010
C57   C     C_R   0.276153 0.218842 0.635177 0.099361
C58   C     C_R   0.279112 0.779724 0.634565 0.100119
C59   C     C_R   0.776153 0.718843 0.635177 0.099361
C60   C     C_R   0.779112 0.279724 0.634565 0.100119
C61   C     C_R   0.318536 0.190840 0.508157 -0.118110
C62   C     C_R   0.320475 0.807756 0.507345 -0.115573
C63   C     C_R   0.818536 0.690840 0.508157 -0.118110
C64   C     C_R   0.820474 0.307756 0.507345 -0.115573
Cu1   Cu    Cu3+1 0.499990 0.000000 0.640660 0.974023
Cu2   Cu    Cu3+1 0.999990 0.500000 0.640660 0.974023
Cu3   Cu    Cu3+1 0.500010 0.000000 0.359340 1.048456
Cu4   Cu    Cu3+1 0.000010 0.500000 0.359340 1.048456
H1    H     H_    0.285490 0.204930 0.990087 0.177334
H2    H     H_    0.290257 0.795971 0.989062 0.178651
H3    H     H_    0.785490 0.704930 0.990087 0.177334
H4    H     H_    0.790257 0.295971 0.989062 0.178651
H5    H     H_    0.809217 0.082185 0.083463 0.198856
H6    H     H_    0.309217 0.582185 0.083463 0.198856
N1    N     N_R   0.501200 0.000000 0.147910 -0.224710
N2    N     N_R   0.001200 0.500000 0.147910 -0.224710
N3    N     N_R   0.501270 0.000000 0.852040 -0.243717
N4    N     N_R   0.001270 0.500000 0.852040 -0.243717
O1    O     O_R   0.409820 0.909830 0.618810 -0.568669
O2    O     O_R   0.409820 0.090170 0.618810 -0.569452
O3    O     O_R   0.909820 0.409830 0.618810 -0.568669
O4    O     O_R   0.909820 0.590170 0.618810 -0.569452
O5    O     O_R   0.409840 0.909830 0.381240 -0.542311
O6    O     O_R   0.409840 0.090170 0.381240 -0.545039
O7    O     O_R   0.909840 0.409830 0.381240 -0.542311
O8    O     O_R   0.909840 0.590170 0.381240 -0.545039
O9    O     O_R   0.590170 0.090170 0.618760 -0.620201
O10   O     O_R   0.590170 0.909830 0.618760 -0.623601
O11   O     O_R   0.090170 0.590170 0.618760 -0.620201
O12   O     O_R   0.090170 0.409830 0.618760 -0.623601
O13   O     O_R   0.590190 0.090180 0.381190 -0.547935
O14   O     O_R   0.590190 0.909820 0.381190 -0.530088
O15   O     O_R   0.090190 0.590180 0.381190 -0.547935
O16   O     O_R   0.090190 0.409820 0.381190 -0.530088
H7    H     H_    0.320930 0.204067 0.283435 0.190433
H8    H     H_    0.322289 0.793383 0.282733 0.189606
H9    H     H_    0.820931 0.704067 0.283435 0.190433
H10   H     H_    0.822289 0.293383 0.282733 0.189606
H11   H     H_    0.802067 0.062976 0.836493 0.181474
H12   H     H_    0.302067 0.562976 0.836493 0.181474
H13   H     H_    0.673097 0.000642 0.736888 0.216156
H14   H     H_    0.173097 0.500642 0.736888 0.216156
Br1   Br    Br    0.304603 0.997880 0.837035 -0.425175
Br2   Br    Br    0.804603 0.497880 0.837035 -0.425175
H15   H     H_    0.381975 0.186132 0.784895 0.182332
H16   H     H_    0.386420 0.811655 0.782452 0.181010
H17   H     H_    0.881975 0.686132 0.784895 0.182332
H18   H     H_    0.886420 0.311655 0.782452 0.181010
Br3   Br    Br    0.590043 0.757239 0.038836 -0.552864
Br4   Br    Br    0.593303 0.249949 0.039251 -0.542682
Br5   Br    Br    0.090042 0.257239 0.038836 -0.552864
Br6   Br    Br    0.093303 0.749949 0.039250 -0.542682
H19   H     H_    0.565299 0.789209 0.742763 0.168768
H20   H     H_    0.568042 0.212001 0.744056 0.170686
H21   H     H_    0.065299 0.289209 0.742763 0.168768
H22   H     H_    0.068042 0.712001 0.744056 0.170686
H23   H     H_    0.703104 0.808864 0.280308 0.218791
H24   H     H_    0.704761 0.188116 0.280514 0.199507
H25   H     H_    0.203104 0.308864 0.280308 0.218791
H26   H     H_    0.204761 0.688116 0.280514 0.199507
Br7   Br    Br    0.303913 0.994132 0.174387 -0.408315
Br8   Br    Br    0.803913 0.494132 0.174387 -0.408315
Br9   Br    Br    0.738470 0.994324 0.290359 -0.527410
Br10  Br    Br    0.238470 0.494324 0.290359 -0.527410

loop_
_geom_bond_atom_site_label_1
_geom_bond_atom_site_label_2
_ccdc_geom_bond_type
C58   C62   A    
Cu2   Cu4   S    
C49   C53   A    
C18   C28   A    
Cu3   O5    S    
Cu1   O1    S    
C3    O7    A    
C9    H23   S    
C13   C32   S    
C49   H19   S    
C14   C31   S    
C11   H25   S    
C1    C62   S    
C16   C56   A    
C53   C59   A    
Cu2   O12   S    
C54   C60   A    
C3    C64   S    
C39   H17   S    
C4    C63   S    
C26   N4    A    
C25   N3    A    
C19   C21   A    
C24   C26   A    
C5    C11   A    
C35   Br1   S    
C6    C12   A    
C21   H11   S    
C45   Br3   S    
C4    O8    A    
C32   O10   A    
C42   H2    S    
Cu4   O8    S    
C18   C20   A    
C9    C13   A    
C8    H10   S    
C38   C58   A    
C11   C15   A    
C17   Br9   S    
C12   C16   A    
Cu1   Cu3   S    
C29   Br7   S    
C3    O3    A    
C15   C34   S    
C51   C55   A    
C2    C61   S    
C40   H18   S    
Cu3   O6    S    
Cu1   O2    S    
C12   H26   S    
Cu4   O7    S    
C27   N1    A    
C5    H7    S    
C44   C46   A    
Cu1   O9    S    
Cu2   O11   S    
C13   C53   A    
C52   H22   S    
C21   C23   A    
Cu2   N4    S    
Cu1   N3    S    
C5    C61   A    
C17   C27   A    
C30   Br8   S    
C19   H5    S    
C22   H12   S    
C10   C14   A    
C39   C43   A    
C35   N3    A    
C51   H21   S    
C50   H20   S    
C15   C55   A    
C38   H16   S    
C42   C48   A    
C34   O12   A    
C37   H15   S    
C10   H24   S    
C33   O11   A    
C16   C33   S    
Cu2   O4    S    
C30   N2    A    
C45   C49   A    
C39   C59   A    
Cu3   O13   S    
C2    O6    A    
C41   C47   A    
C20   H6    S    
C50   C54   A    
C43   C45   A    
C4    O4    A    
C7    C63   A    
C8    C64   A    
C14   C54   A    
C20   C22   A    
C6    H8    S    
C55   C57   A    
C25   C27   A    
C1    O1    A    
C22   C24   A    
C59   C63   A    
C31   O9    A    
Cu4   N2    S    
C40   C44   A    
C28   N2    A    
Cu1   O10   S    
C41   H1    S    
C7    C9    A    
C46   C50   A    
C43   H3    S    
C7    H9    S    
C48   Br6   S    
C26   C28   A    
C34   O16   A    
C33   O15   A    
C47   C51   A    
C57   C61   A    
C29   N1    A    
C1    O5    A    
C29   C35   A    
C31   O13   A    
Cu4   O15   S    
C30   C36   A    
C60   C64   A    
C6    C62   A    
C46   Br4   S    
C36   N4    A    
Cu2   O3    S    
C36   Br2   S    
C23   H13   S    
C47   Br5   S    
Cu3   O14   S    
C17   C19   A    
C56   C58   A    
C44   H4    S    
C24   H14   S    
C23   C25   A    
C37   C41   A    
Cu4   O16   S    
C2    O2    A    
C32   O14   A    
C38   C42   A    
C48   C52   A    
Cu3   N1    S    
C8    C10   A    
C40   C60   A    
C37   C57   A    
C52   C56   A    
C18   Br10  S    
