data_mof_unit_12071.cif
_audit_creation_date              2012-12-11T15:14:40-0500
_audit_creation_method            fapswitch 2.2
_symmetry_space_group_name_H-M    P1
_symmetry_Int_Tables_number       1
_space_group_crystal_system       triclinic
_cell_length_a                    22.297716
_cell_length_b                    7.244968
_cell_length_c                    19.273957
_cell_angle_alpha                 90.194134
_cell_angle_beta                  99.123021
_cell_angle_gamma                 89.940085
_cell_volume                      3074.23028295

loop_
_atom_site_label
_atom_site_type_symbol
_atom_type_description
_atom_site_fract_x
_atom_site_fract_y
_atom_site_fract_z
_atom_type_partial_charge
O1    O     O_R   0.448470 0.506130 0.415700 -0.545470
O2    O     O_R   0.551530 0.006130 0.584300 -0.544281
O3    O     O_R   0.436320 0.174490 0.555800 -0.532880
O4    O     O_R   0.563680 0.674490 0.444200 -0.533105
C1    C     C_R   0.421689 0.344164 0.575589 0.758420
C2    C     C_R   0.578556 0.843802 0.424660 0.753722
O5    O     O_R   0.441350 0.176340 0.414480 -0.529695
O6    O     O_R   0.558650 0.676340 0.585520 -0.530367
O7    O     O_R   0.556600 0.007100 0.441970 -0.535019
O8    O     O_R   0.443400 0.507100 0.558030 -0.535385
C3    C     C_R   0.426317 0.344753 0.389592 0.806323
C4    C     C_R   0.573867 0.845126 0.610140 0.805296
O9    O     O_3   0.537810 0.339550 0.509190 -0.391805
O10   O     O_3   0.462190 0.839550 0.490810 -0.392100
V1    V     V_3+5 0.492990 0.064280 0.498300 1.430642
V2    V     V_3+5 0.507010 0.564280 0.501700 1.431412
C5    C     C_R   0.872961 0.889187 0.693555 0.385228
C6    C     C_R   0.127883 0.392692 0.305778 0.383304
C7    C     C_R   0.887317 0.936049 0.820059 -0.291518
C8    C     C_R   0.113241 0.437553 0.179424 -0.286753
C9    C     C_R   0.589265 0.879487 0.740483 0.208782
C10   C     C_R   0.411104 0.379003 0.259138 0.180329
C11   C     C_R   0.626173 0.877069 0.805904 0.398844
C12   C     C_R   0.374813 0.363318 0.193311 0.409938
C13   C     C_R   0.688947 0.850674 0.811656 0.383497
C14   C     C_R   0.311795 0.342134 0.187145 0.413307
C15   C     C_R   0.718378 0.862525 0.751222 -0.128360
C16   C     C_R   0.282169 0.357131 0.247546 -0.133668
C17   C     C_R   0.680522 0.839994 0.684191 -0.199676
C18   C     C_R   0.319874 0.335613 0.314746 -0.197481
C19   C     C_R   0.783521 0.885866 0.754959 -0.097659
C20   C     C_R   0.217070 0.383845 0.243916 -0.101530
C21   C     C_R   0.809641 0.860217 0.692554 -0.200259
C22   C     C_R   0.190933 0.359624 0.306260 -0.189732
C23   C     C_R   0.771903 0.807630 0.629430 0.342051
C24   C     C_R   0.228341 0.304060 0.368929 0.335930
C25   C     C_R   0.708895 0.795914 0.625484 0.414532
C26   C     C_R   0.291337 0.291820 0.373199 0.416371
C27   C     C_R   0.823834 0.942622 0.817222 0.439361
C28   C     C_R   0.176765 0.441712 0.181935 0.423492
C29   C     C_R   0.912150 0.913462 0.757824 0.197950
C30   C     C_R   0.088577 0.418002 0.241806 0.190391
C31   C     C_R   0.615434 0.853301 0.678699 -0.239970
C32   C     C_R   0.384901 0.351782 0.320755 -0.234176
C33   C     C_3   0.776344 0.813995 0.311219 0.307480
C34   C     C_3   0.232682 0.264985 0.702727 0.313384
C35   C     C_3   0.795590 0.000655 0.282087 0.168161
C36   C     C_3   0.199560 0.445162 0.717380 0.171381
C37   C     C_1   0.875355 0.942992 0.120818 -0.165437
C38   C     C_1   0.125869 0.440299 0.881248 -0.168446
C39   C     C_1   0.624354 0.850699 0.379016 -0.131927
C40   C     C_1   0.376770 0.351616 0.622261 -0.139358
C41   C     C_3   0.772967 0.728301 0.236931 0.274045
C42   C     C_3   0.243758 0.224883 0.782505 0.305281
C43   C     C_3   0.791921 0.915522 0.207450 -0.138289
C44   C     C_3   0.211050 0.406987 0.797432 -0.152248
C45   C     C_3   0.705431 0.785435 0.218784 0.298792
C46   C     C_3   0.304969 0.329484 0.790092 0.308718
C47   C     C_3   0.708665 0.871615 0.293250 -0.117827
C48   C     C_3   0.293955 0.369222 0.709905 -0.141309
C49   C     C_3   0.724002 0.973096 0.190548 0.307511
C50   C     C_3   0.272492 0.512289 0.803644 0.295929
C51   C     C_3   0.728396 0.057938 0.264668 0.177031
C52   C     C_3   0.260382 0.550094 0.723961 0.151194
C53   C     C_1   0.837524 0.933778 0.159601 0.130986
C54   C     C_1   0.164642 0.428047 0.843901 0.107328
C55   C     C_1   0.662385 0.857840 0.340421 0.185031
C56   C     C_1   0.339543 0.358010 0.661838 0.139157
O11   O     O_R   0.056650 0.288730 0.942060 -0.540977
O12   O     O_R   0.943350 0.788730 0.057940 -0.537404
O13   O     O_R   0.058660 0.616870 0.085540 -0.540511
O14   O     O_R   0.941340 0.116870 0.914460 -0.538422
C57   C     C_R   0.072758 0.448580 0.110824 0.769630
C58   C     C_R   0.927523 0.948235 0.888923 0.772035
O15   O     O_R   0.063700 0.618520 0.944220 -0.533578
O16   O     O_R   0.936300 0.118520 0.055780 -0.531249
O17   O     O_R   0.948460 0.787610 0.915680 -0.534825
O18   O     O_R   0.051540 0.287610 0.084320 -0.535865
C59   C     C_R   0.079102 0.449934 0.925302 0.736780
C60   C     C_R   0.921152 0.950518 0.075196 0.733784
O19   O     O_3   0.962230 0.453430 0.990860 -0.380032
O20   O     O_3   0.037770 0.953430 0.009140 -0.384245
V3    V     V_3+5 0.007010 0.728750 0.001700 1.436846
V4    V     V_3+5 0.992990 0.228750 0.998300 1.440321
O21   O     O_3   0.974227 0.915943 0.757068 -0.642164
H1    H     H_    0.996744 0.952468 0.803420 0.284213
O22   O     O_3   0.026580 0.424037 0.242960 -0.653349
H2    H     H_    0.004121 0.462524 0.196909 0.280403
O23   O     O_3   0.797406 0.715519 0.373565 -0.537505
C61   C     C_3   0.851618 0.792958 0.408772 -0.099578
H3    H     H_    0.842648 0.929011 0.431835 0.173764
H4    H     H_    0.886671 0.804041 0.373824 0.127587
H5    H     H_    0.870143 0.700765 0.452840 0.169950
O24   O     O_3   0.213241 0.123948 0.653754 -0.551500
C62   C     C_3   0.195537 0.199595 0.586569 -0.098338
H6    H     H_    0.228666 0.302423 0.572602 0.160925
H7    H     H_    0.149551 0.261462 0.582245 0.164574
H8    H     H_    0.192807 0.085662 0.547649 0.175677
O25   O     O_3   0.705102 0.228256 0.281929 -0.615959
H9    H     H_    0.720975 0.319042 0.251249 0.359758
O26   O     O_3   0.268629 0.717900 0.691299 -0.615286
H10   H     H_    0.237153 0.800738 0.704879 0.359426
O27   O     O_3   0.700149 0.058881 0.126387 -0.542117
C63   C     C_3   0.637996 0.097586 0.124727 -0.215323
H11   H     H_    0.630585 0.195833 0.166870 0.181903
H12   H     H_    0.611162 0.969840 0.128022 0.172721
H13   H     H_    0.620391 0.164073 0.073810 0.135179
O28   O     O_3   0.290873 0.641573 0.857797 -0.543328
C64   C     C_3   0.345264 0.727731 0.846917 -0.072256
H14   H     H_    0.336662 0.828310 0.803173 0.211515
H15   H     H_    0.380601 0.626800 0.837088 0.143693
H16   H     H_    0.363803 0.805779 0.895140 0.138371
O29   O     O_3   0.656246 0.672553 0.189410 -0.540732
C65   C     C_3   0.666549 0.601311 0.124168 -0.160335
H17   H     H_    0.700318 0.487714 0.131757 0.191853
H18   H     H_    0.681027 0.709087 0.089354 0.165804
H19   H     H_    0.623369 0.542187 0.096593 0.145899
O30   O     O_3   0.361568 0.264272 0.824738 -0.541683
C66   C     C_3   0.359822 0.243358 0.897079 -0.166081
H20   H     H_    0.324078 0.144792 0.906982 0.175277
H21   H     H_    0.353627 0.377891 0.922711 0.175969
H22   H     H_    0.404033 0.186188 0.922463 0.140632
O31   O     O_3   0.794480 0.554324 0.218528 -0.558155
C67   C     C_3   0.855465 0.529849 0.249823 -0.112798
H23   H     H_    0.858288 0.495464 0.306250 0.185036
H24   H     H_    0.884360 0.651645 0.243511 0.109040
H25   H     H_    0.874424 0.411188 0.223903 0.183112
O32   O     O_3   0.238750 0.049237 0.812638 -0.544110
C68   C     C_3   0.177329 0.995653 0.805915 -0.134438
H26   H     H_    0.150279 0.032794 0.754245 0.164592
H27   H     H_    0.156300 0.055124 0.849406 0.128276
H28   H     H_    0.175443 0.843357 0.810692 0.180203
O33   O     O_3   0.795226 0.760736 0.569672 -0.597602
H29   H     H_    0.826277 0.663890 0.583479 0.313596
O34   O     O_3   0.204559 0.254820 0.427878 -0.626135
H30   H     H_    0.172677 0.161181 0.412745 0.305983
O35   O     O_3   0.895473 0.896535 0.630593 -0.626868
H31   H     H_    0.938445 0.936456 0.638320 0.342682
O36   O     O_3   0.105824 0.403213 0.368994 -0.624582
H32   H     H_    0.063115 0.445809 0.361584 0.337126
O37   O     O_3   0.803069 0.008336 0.876298 -0.516671
C69   C     C_3   0.788157 0.195930 0.866285 -0.202373
H33   H     H_    0.750485 0.215905 0.821632 0.105317
H34   H     H_    0.828469 0.279084 0.858358 0.125771
H35   H     H_    0.772395 0.247145 0.914543 0.153117
O38   O     O_3   0.197623 0.505307 0.122812 -0.517146
C70   C     C_3   0.212634 0.692946 0.132665 -0.170964
H36   H     H_    0.249801 0.713795 0.177861 0.112397
H37   H     H_    0.172189 0.776962 0.139710 0.112402
H38   H     H_    0.229097 0.742291 0.084691 0.162076
O39   O     O_3   0.527404 0.898201 0.740608 -0.611254
H39   H     H_    0.504364 0.892748 0.692500 0.288135
O40   O     O_3   0.472429 0.411564 0.259688 -0.619469
H40   H     H_    0.494589 0.421552 0.308093 0.293274
O41   O     O_3   0.718931 0.800586 0.877131 -0.499919
C71   C     C_3   0.731342 0.610335 0.876907 -0.151578
H41   H     H_    0.763882 0.577077 0.840534 0.105752
H42   H     H_    0.688934 0.527944 0.863269 0.103851
H43   H     H_    0.752832 0.570519 0.930638 0.154405
O42   O     O_3   0.281774 0.296343 0.121024 -0.496522
C72   C     C_3   0.261943 0.111898 0.121032 -0.174869
H44   H     H_    0.223212 0.097350 0.150373 0.121642
H45   H     H_    0.299284 0.016351 0.142924 0.080872
H46   H     H_    0.245775 0.069952 0.065850 0.160970
O43   O     O_3   0.599226 0.879129 0.865784 -0.516302
C73   C     C_3   0.605576 0.057648 0.895433 -0.129543
H47   H     H_    0.584241 0.163836 0.857685 0.127285
H48   H     H_    0.654112 0.092177 0.913930 0.146498
H49   H     H_    0.581817 0.061717 0.941805 0.145542
O44   O     O_3   0.400677 0.381093 0.132909 -0.516425
C74   C     C_3   0.426505 0.210736 0.117654 -0.135654
H50   H     H_    0.391093 0.102987 0.104623 0.119146
H51   H     H_    0.461772 0.163332 0.161372 0.152743
H52   H     H_    0.448995 0.228719 0.070740 0.137928
O45   O     O_3   0.675776 0.729413 0.563696 -0.554175
C75   C     C_3   0.679164 0.534235 0.564423 -0.111234
H53   H     H_    0.659907 0.475630 0.609475 0.103936
H54   H     H_    0.726381 0.483558 0.565789 0.127482
H55   H     H_    0.652257 0.480050 0.515350 0.177820
O46   O     O_3   0.324279 0.226357 0.435116 -0.558602
C76   C     C_3   0.321097 0.031185 0.434386 -0.140944
H56   H     H_    0.340780 0.971913 0.389592 0.114162
H57   H     H_    0.273893 0.980243 0.432593 0.123382
H58   H     H_    0.347747 0.978054 0.483675 0.179105
O47   O     O_3   0.842567 0.116748 0.312671 -0.639841
H59   H     H_    0.826417 0.183980 0.350602 0.315679
O48   O     O_3   0.144159 0.507959 0.680697 -0.620375
H60   H     H_    0.153957 0.567155 0.637590 0.311566

loop_
_geom_bond_atom_site_label_1
_geom_bond_atom_site_label_2
_ccdc_geom_bond_type
C46   C50   S    
C74   H50   S    
O26   H10   S    
O19   V4    S    
C15   C17   A    
C62   H6    S    
C70   H36   S    
O1    C3    A    
O22   H2    S    
O2    C4    A    
C38   C59   S    
C23   O33   S    
C2    O7    A    
C63   H12   S    
C72   H44   S    
O47   H59   S    
C62   H8    S    
O34   H30   S    
C76   H56   S    
O5    C3    A    
C8    C30   A    
C74   H51   S    
O43   C73   S    
C37   C53   T    
C9    O39   S    
C67   H24   S    
C71   H41   S    
C23   C25   A    
C12   C14   A    
O38   C70   S    
C4    C31   S    
C64   H15   S    
C35   C51   S    
O10   V1    S    
C8    C28   A    
C45   C47   S    
C50   O28   S    
O44   C74   S    
O17   V3    S    
C46   C48   S    
C46   O30   S    
O28   C64   S    
C18   C26   A    
C49   C51   S    
O30   C66   S    
C50   C52   S    
C6    C30   A    
C47   C55   S    
C11   O43   S    
C75   H55   S    
C10   C32   A    
C27   O37   S    
C58   O17   A    
C51   O25   S    
C57   O18   A    
C19   C21   A    
C1    C40   S    
C14   O42   S    
C2    C39   S    
C35   O47   S    
C12   O44   S    
C40   C56   T    
C68   H28   S    
C34   C48   S    
C33   C35   S    
O39   H39   S    
C33   C41   S    
C69   H34   S    
O6    V2    S    
C9    C31   A    
O32   C68   S    
C73   H48   S    
C69   H35   S    
C18   C32   A    
O24   C62   S    
C5    C21   A    
C1    O8    A    
C63   H11   S    
C72   H45   S    
C65   H17   S    
O13   V3    S    
C41   C43   S    
C52   O26   S    
C74   H52   S    
C34   C36   S    
O16   V4    S    
C70   H37   S    
C26   O46   S    
O12   C60   A    
O31   C67   S    
C70   H38   S    
C36   O48   S    
O14   C58   A    
C41   O31   S    
C76   H57   S    
O13   C57   A    
C41   C45   S    
C45   O29   S    
O5    V1    S    
O21   H1    S    
C42   O32   S    
C20   C22   A    
O4    V2    S    
O2    V1    S    
C25   O45   S    
C6    C22   A    
C61   H4    S    
O45   C75   S    
C34   O24   S    
C16   C20   A    
O6    C4    A    
C34   C42   S    
C3    C32   S    
O1    V2    S    
C39   C55   T    
O12   V3    S    
C38   C54   T    
O14   V4    S    
C66   H21   S    
C7    C27   A    
C67   H25   S    
O4    C2    A    
C75   H53   S    
C9    C11   A    
C15   C19   A    
C73   H47   S    
C10   C12   A    
C64   H16   S    
C36   C52   S    
C24   C26   A    
O23   C61   S    
C24   O34   S    
O27   C63   S    
C72   H46   S    
O3    V1    S    
O46   C76   S    
O36   H32   S    
C61   H5    S    
C35   C43   S    
O29   C65   S    
C42   C46   S    
C66   H22   S    
C36   C44   S    
C33   C47   S    
C33   O23   S    
C76   H58   S    
C49   O27   S    
C43   C53   S    
C14   C16   A    
C71   H43   S    
O16   C60   A    
O3    C1    A    
C65   H18   S    
C66   H20   S    
C62   H7    S    
C42   C44   S    
C45   C49   S    
C13   C15   A    
C29   O21   S    
O35   H31   S    
C47   C51   S    
O25   H9    S    
C28   O38   S    
C48   C52   S    
O42   C72   S    
C71   H42   S    
C68   H26   S    
C16   C18   A    
O11   V4    S    
C44   C50   S    
O37   C69   S    
C5    O35   S    
O15   V3    S    
C61   H3    S    
O33   H29   S    
C44   C54   S    
C43   C49   S    
C75   H54   S    
C21   C23   A    
C19   C27   A    
C8    C57   S    
C22   C24   A    
C20   C28   A    
O7    V1    S    
C6    O36   S    
C5    C29   A    
C65   H19   S    
O11   C59   A    
C13   O41   S    
O18   V4    S    
O48   H60   S    
C11   C13   A    
C48   C56   S    
C73   H49   S    
O20   V3    S    
O9    V2    S    
C17   C25   A    
O41   C71   S    
C37   C60   S    
C69   H33   S    
C7    C58   S    
O8    V2    S    
C30   O22   S    
O40   H40   S    
C64   H14   S    
O15   C59   A    
C63   H13   S    
C17   C31   A    
C7    C29   A    
C67   H23   S    
C68   H27   S    
C10   O40   S    
