data_mof_unit_8218.cif
_audit_creation_date              2012-10-26T21:07:32-0400
_audit_creation_method            fapswitch 2.2
_symmetry_space_group_name_H-M    P1
_symmetry_Int_Tables_number       1
_space_group_crystal_system       triclinic
_cell_length_a                    9.73417
_cell_length_b                    10.905205
_cell_length_c                    17.111494
_cell_angle_alpha                 90.175677
_cell_angle_beta                  84.417183
_cell_angle_gamma                 88.520717
_cell_volume                      1807.19150653

loop_
_atom_site_label
_atom_site_type_symbol
_atom_type_description
_atom_site_fract_x
_atom_site_fract_y
_atom_site_fract_z
_atom_type_partial_charge
C1    C     C_R   0.497786 0.734656 0.502990 0.545275
C2    C     C_R   0.540549 0.516283 0.264562 -0.079001
C3    C     C_2   0.607989 0.063960 0.519599 0.262798
C4    C     C_R   0.480204 0.500080 0.650111 0.550067
C5    C     C_2   0.508854 0.133583 0.490894 -0.060977
C6    C     C_2   0.606646 0.930898 0.504614 -0.111054
C7    C     C_2   0.490788 0.866393 0.516568 0.051360
C8    C     C_2   0.073505 0.598318 0.494673 0.100894
C9    C     C_2   0.917622 0.595875 0.517408 0.109649
C10   C     C_R   0.501961 0.265412 0.499572 0.565115
C11   C     C_R   0.520276 0.505590 0.349937 0.532885
C12   C     C_R   0.378655 0.593670 0.775040 -0.149538
C13   C     C_R   0.466762 0.505636 0.735348 0.020598
C14   C     C_R   0.550152 0.428931 0.777038 -0.140911
C15   C     C_R   0.550271 0.443717 0.857646 -0.113122
C16   C     C_R   0.472788 0.540143 0.896967 0.059445
C17   C     C_R   0.381841 0.611084 0.855592 -0.124511
C18   C     C_3   0.907458 0.569858 0.104919 0.022807
C19   C     C_3   0.980230 0.555866 0.180134 -0.289212
C20   C     C_3   0.108869 0.473007 0.166769 -0.469020
C21   C     C_3   0.829203 0.058959 0.564294 0.002779
C22   C     C_3   0.838328 0.961671 0.628293 -0.258050
C23   C     C_R   0.497028 0.439663 0.136244 0.242347
C24   C     C_3   0.984126 0.905687 0.625627 -0.494471
C25   C     C_3   0.921699 0.322062 0.439436 0.088091
C26   C     C_3   0.931239 0.257350 0.359260 -0.273227
C27   C     C_3   0.798078 0.265319 0.319367 -0.387403
C28   C     C_3   0.776523 0.623682 0.930290 -0.010234
C29   C     C_3   0.912119 0.592850 0.880600 -0.249838
C30   C     C_3   0.969844 0.705828 0.837959 -0.490217
C31   C     C_3   0.456127 0.241159 0.100033 -0.000762
C32   C     C_3   0.590652 0.203992 0.050450 -0.263998
C33   C     C_3   0.622171 0.066662 0.056356 -0.484767
C34   C     C_R   0.468834 0.439964 0.218109 -0.179650
C35   C     C_3   0.385650 0.735715 0.045935 -0.023114
C36   C     C_3   0.259832 0.780472 0.099729 -0.250053
C37   C     C_3   0.268958 0.915989 0.120470 -0.489576
C38   C     C_R   0.642389 0.593913 0.229049 0.080418
C39   C     C_R   0.678108 0.587110 0.148032 0.258195
C40   C     C_R   0.595645 0.520310 0.100661 0.049305
C41   C     C_2   0.486283 0.568142 0.980746 0.281767
C42   C     C_2   0.604700 0.540909 0.014674 0.276214
Cu1   Cu    Cu3+1 0.361370 0.499980 0.499980 0.920987
Cu2   Cu    Cu3+1 0.638630 0.500020 0.500020 0.986266
H1    H     H_    0.616308 0.358621 0.746994 0.131962
H2    H     H_    0.981348 0.609710 0.059007 0.151563
H3    H     H_    0.881988 0.477588 0.082856 0.156212
H4    H     H_    0.009141 0.647552 0.200722 0.181198
H5    H     H_    0.910403 0.513401 0.226700 0.174318
H6    H     H_    0.080486 0.378939 0.150490 0.149287
H7    H     H_    0.160770 0.468037 0.221648 0.159430
H8    H     H_    0.181559 0.509877 0.119351 0.235316
H9    H     H_    0.904011 0.130862 0.575088 0.138790
H10   H     H_    0.863564 0.021894 0.504646 0.095828
H11   H     H_    0.810461 0.004693 0.686853 0.171720
H12   H     H_    0.433692 0.093439 0.456097 0.071074
H13   H     H_    0.765005 0.887292 0.620895 0.163980
H14   H     H_    0.015502 0.864559 0.566956 0.128413
H15   H     H_    0.987349 0.832668 0.670473 0.140485
H16   H     H_    0.058663 0.976997 0.637994 0.159343
H17   H     H_    0.288146 0.908152 0.510564 0.222523
H18   H     H_    0.331684 0.878428 0.601989 0.233226
H19   H     H_    0.156373 0.342247 0.557964 0.255605
H20   H     H_    0.113939 0.465207 0.614790 0.236377
H21   H     H_    0.022873 0.302029 0.460541 0.124860
H22   H     H_    0.845263 0.279297 0.481320 0.182712
H23   H     H_    0.703342 0.884653 0.483598 0.093099
H24   H     H_    0.015964 0.297155 0.319776 0.157726
H25   H     H_    0.958110 0.158836 0.367649 0.093712
H26   H     H_    0.709094 0.235545 0.359557 0.155421
H27   H     H_    0.807781 0.204446 0.266872 0.109463
H28   H     H_    0.779993 0.360031 0.299136 0.183367
H29   H     H_    0.629619 0.736769 0.306108 0.220061
H30   H     H_    0.770042 0.642410 0.311528 0.258425
H31   H     H_    0.793775 0.698258 0.972398 0.173051
H32   H     H_    0.701342 0.658518 0.890247 0.121955
H33   H     H_    0.989375 0.555715 0.918653 0.172837
H34   H     H_    0.118914 0.683913 0.474958 0.074417
H35   H     H_    0.893914 0.521375 0.836565 0.174171
H36   H     H_    0.893576 0.745186 0.800107 0.144879
H37   H     H_    0.065531 0.679655 0.800385 0.143386
H38   H     H_    0.994927 0.776306 0.881005 0.145061
H39   H     H_    0.371066 0.187422 0.079487 0.151881
H40   H     H_    0.462254 0.215556 0.162582 0.109167
H41   H     H_    0.581374 0.227395 0.988063 0.172454
H42   H     H_    0.677928 0.255147 0.070809 0.160977
H43   H     H_    0.630967 0.040583 0.118417 0.154470
H44   H     H_    0.721469 0.043262 0.021290 0.151008
H45   H     H_    0.865692 0.674797 0.546782 0.061571
H46   H     H_    0.539427 0.013273 0.032974 0.139093
H47   H     H_    0.394579 0.792880 0.991949 0.115035
H48   H     H_    0.479139 0.748192 0.077496 0.138233
H49   H     H_    0.164730 0.766753 0.070076 0.170241
H50   H     H_    0.252973 0.726081 0.154730 0.169812
H51   H     H_    0.362607 0.931864 0.151006 0.145170
H52   H     H_    0.176598 0.945055 0.160047 0.147894
H53   H     H_    0.272569 0.972507 0.066463 0.139108
H54   H     H_    0.391477 0.379989 0.245537 0.123983
H55   H     H_    0.316997 0.682947 0.884633 0.127376
H56   H     H_    0.313216 0.653067 0.743056 0.105252
H57   H     H_    0.614112 0.381516 0.888360 0.151227
N1    N     N_2   0.152990 0.501340 0.500850 -0.146518
N2    N     N_2   0.846850 0.501370 0.500880 -0.037229
N3    N     N_3   0.362748 0.922814 0.549378 -0.652667
N4    N     N_3   0.099350 0.424413 0.560887 -0.543789
N5    N     N_3   0.706669 0.684796 0.273278 -0.592140
O1    O     O_R   0.382960 0.678040 0.499990 -0.511752
O2    O     O_3   0.696496 0.116565 0.569223 -0.558051
O3    O     O_3   0.901507 0.450274 0.431575 -0.463070
O4    O     O_3   0.730379 0.516876 0.970718 -0.621682
O5    O     O_3   0.422402 0.366904 0.089901 -0.553927
O6    O     O_3   0.369057 0.611145 0.026388 -0.584373
O7    O     O_R   0.617100 0.678080 0.500010 -0.529020
O8    O     O_R   0.369350 0.500000 0.613580 -0.514226
O9    O     O_R   0.603500 0.500040 0.613610 -0.498341
O10   O     O_R   0.382900 0.321920 0.499990 -0.521550
O11   O     O_R   0.617040 0.321960 0.500010 -0.471456
O12   O     O_R   0.396500 0.499960 0.386390 -0.490596
O13   O     O_R   0.630650 0.500000 0.386420 -0.484024
O14   O     O_3   0.790588 0.651080 0.115837 -0.559349

loop_
_geom_bond_atom_site_label_1
_geom_bond_atom_site_label_2
_ccdc_geom_bond_type
C38   N5    S    
C41   C42   D    
C5    H12   S    
C35   C36   S    
C3    C6    S    
C11   O13   A    
C18   H3    S    
C22   H13   S    
C37   H53   S    
C27   H27   S    
H20   N4    S    
C26   C27   S    
C4    O8    A    
C28   C29   S    
C33   H44   S    
C20   H7    S    
Cu1   O8    S    
C21   H10   S    
C15   C16   A    
C31   H39   S    
C37   H51   S    
N1    N4    S    
C18   C19   S    
C4    C13   S    
C2    C38   A    
C20   H6    S    
C4    O9    A    
C36   H49   S    
C19   C20   S    
Cu2   O9    S    
C8    C9    S    
C41   O6    S    
C12   C17   A    
H19   N4    S    
C25   O3    S    
C30   H36   S    
C35   H48   S    
C2    C34   A    
C40   C42   S    
C21   C22   S    
C8    H34   S    
C1    O7    A    
C2    C11   S    
C18   H2    S    
Cu2   N2    S    
C14   H1    S    
H18   N3    S    
H17   N3    S    
C25   H21   S    
C9    H45   S    
C39   C40   A    
C23   C40   A    
C19   H4    S    
C16   C17   A    
Cu2   O13   S    
C28   O4    S    
C25   C26   S    
C31   H40   S    
C37   H52   S    
C30   H38   S    
Cu1   Cu2   S    
C29   C30   S    
Cu1   O10   S    
H30   N5    S    
C19   H5    S    
C31   C32   S    
C29   H35   S    
C9    N2    D    
C23   C34   A    
C32   H42   S    
Cu1   O1    S    
C15   H57   S    
C17   H55   S    
C22   H11   S    
C27   H26   S    
C1    O1    A    
C6    H23   S    
Cu2   O7    S    
C7    N3    S    
C22   C24   S    
C28   H32   S    
C18   O14   S    
C10   O10   A    
C36   C37   S    
C1    C7    S    
C25   H22   S    
C3    C5    D    
C6    C7    D    
C3    O2    S    
C23   O5    S    
N2    O3    S    
C26   H24   S    
C32   C33   S    
C30   H37   S    
C33   H43   S    
Cu1   N1    S    
C5    C10   S    
C20   H8    S    
C10   O11   A    
C33   H46   S    
C21   H9    S    
C11   O12   A    
H29   N5    S    
C38   C39   A    
Cu2   O11   S    
C24   H15   S    
C32   H41   S    
C34   H54   S    
C42   O4    S    
C12   H56   S    
C21   O2    S    
C27   H28   S    
Cu1   O12   S    
C36   H50   S    
C29   H33   S    
C12   C13   A    
C24   H14   S    
C26   H25   S    
C31   O5    S    
C14   C15   A    
C24   H16   S    
C13   C14   A    
C28   H31   S    
C8    N1    D    
C16   C41   S    
C35   O6    S    
C39   O14   S    
C35   H47   S    
