data_mof_unit_22831.cif
_audit_creation_date              2012-12-10T17:48:44-0500
_audit_creation_method            fapswitch 2.2
_symmetry_space_group_name_H-M    P1
_symmetry_Int_Tables_number       1
_space_group_crystal_system       triclinic
_cell_length_a                    15.732333
_cell_length_b                    10.601541
_cell_length_c                    9.960895
_cell_angle_alpha                 91.647374
_cell_angle_beta                  88.860225
_cell_angle_gamma                 91.338764
_cell_volume                      1659.90047102

loop_
_atom_site_label
_atom_site_type_symbol
_atom_type_description
_atom_site_fract_x
_atom_site_fract_y
_atom_site_fract_z
_atom_type_partial_charge
C1    C     C_R   0.498611 0.260914 0.498457 0.867730
C2    C     C_3   0.950254 0.375244 0.448161 -0.349615
C3    C     C_3   0.917352 0.506362 0.494934 0.186962
C4    C     C_3   0.947417 0.533307 0.640621 -0.389822
C5    C     C_3   0.046188 0.535875 0.643969 -0.144139
C6    C     C_1   0.825693 0.503994 0.495251 -0.066903
C7    C     C_1   0.174653 0.502294 0.503041 -0.118030
C8    C     C_1   0.249845 0.500264 0.503461 -0.173840
C9    C     C_R   0.343015 0.126310 0.564568 -0.136923
C10   C     C_R   0.269812 0.058449 0.601989 -0.109744
C11   C     C_R   0.271667 0.927644 0.608746 -0.094725
C12   C     C_R   0.338583 0.499237 0.501168 0.874648
C13   C     C_R   0.346626 0.864471 0.577616 -0.153242
C14   C     C_R   0.421685 0.932103 0.539809 0.102551
C15   C     C_R   0.419747 0.063600 0.534243 0.135252
C16   C     C_R   0.494633 0.128522 0.495342 -0.111692
C17   C     C_R   0.569251 0.068133 0.459178 -0.184077
C18   C     C_R   0.572597 0.938630 0.463702 -0.052053
C19   C     C_R   0.498519 0.871965 0.504672 -0.170133
C20   C     C_R   0.377100 0.350983 0.134482 -0.067606
C21   C     C_R   0.297862 0.333769 0.072669 0.024153
C22   C     C_R   0.297226 0.332317 0.932415 -0.211305
C23   C     C_R   0.500061 0.739152 0.501601 0.835011
C24   C     C_R   0.370437 0.368970 0.861496 -0.204570
C25   C     C_R   0.437007 0.434139 0.927621 0.173392
C26   C     C_R   0.438104 0.431067 0.071192 0.050790
C27   C     C_R   0.559410 0.565513 0.071585 -0.080960
C28   C     C_R   0.559819 0.564584 0.928734 -0.090925
C29   C     C_R   0.661460 0.500065 0.498786 0.883823
C30   C     C_3   0.047945 0.373930 0.454476 -0.434195
C31   C     C_3   0.054231 0.607527 0.399902 -0.213031
C32   C     C_3   0.954707 0.612944 0.403841 -0.230747
C33   C     C_1   0.750355 0.501948 0.496323 -0.143044
C34   C     C_3   0.083098 0.506059 0.499800 0.178701
H1    H     H_    0.929669 0.349993 0.344767 0.240259
H2    H     H_    0.066939 0.301821 0.526597 0.188853
H3    H     H_    0.922888 0.300946 0.514137 0.187918
H4    H     H_    0.920272 0.623143 0.680645 0.217703
H5    H     H_    0.625346 0.123279 0.430313 0.183419
H6    H     H_    0.338622 0.227442 0.557073 0.108998
H7    H     H_    0.211424 0.107406 0.624837 0.144329
H8    H     H_    0.214766 0.874836 0.637223 0.173655
H9    H     H_    0.344929 0.762807 0.582956 0.142539
H10   H     H_    0.607955 0.619333 0.125011 0.157766
H11   H     H_    0.074924 0.343993 0.355080 0.198629
H12   H     H_    0.242325 0.296758 0.877999 0.191871
H13   H     H_    0.373186 0.344887 0.757160 0.206028
H14   H     H_    0.608740 0.617661 0.875578 0.152370
H15   H     H_    0.079101 0.701251 0.436660 0.206806
H16   H     H_    0.938760 0.704260 0.455852 0.176443
H17   H     H_    0.065159 0.459292 0.710855 0.124914
H18   H     H_    0.922188 0.458110 0.707441 0.171791
N1    N     N_R   0.499210 0.498800 0.142780 -0.117177
N2    N     N_R   0.499180 0.498720 0.857170 -0.111934
O1    O     O_R   0.500000 0.316780 0.614690 -0.631445
O2    O     O_R   0.499990 0.316750 0.385360 -0.631064
O3    O     O_R   0.377150 0.500020 0.614720 -0.644589
O4    O     O_R   0.377140 0.499990 0.385380 -0.594541
O5    O     O_R   0.500010 0.683250 0.614640 -0.611969
O6    O     O_R   0.500000 0.683220 0.385310 -0.601529
O7    O     O_R   0.622860 0.500010 0.614620 -0.613293
O8    O     O_R   0.622850 0.499980 0.385280 -0.615091
Zn1   Zn    Zn3+2 0.500010 0.500020 0.653130 0.946359
Zn2   Zn    Zn3+2 0.499990 0.499980 0.346870 0.968495
C35   C     C_2   0.653811 0.874740 0.428007 0.448536
H19   H     H_    0.659440 0.773745 0.437761 0.050852
O9    O     O_2   0.715961 0.934579 0.387407 -0.535698
C36   C     C_2   0.409913 0.232484 0.186317 0.444825
H20   H     H_    0.476239 0.209430 0.168875 0.090673
O10   O     O_2   0.363631 0.157224 0.245046 -0.590113
C37   C     C_2   0.221371 0.295260 0.151713 0.483213
H21   H     H_    0.224008 0.293151 0.260443 0.077655
O11   O     O_2   0.154564 0.267109 0.096852 -0.579742
C38   C     C_2   0.092729 0.587230 0.260071 0.430496
H22   H     H_    0.078731 0.501730 0.201679 0.136022
O12   O     O_2   0.140315 0.667202 0.211733 -0.539257
C39   C     C_2   0.913607 0.617034 0.266786 0.926116
O13   O     O_2   0.877531 0.712404 0.235121 -0.576016
O14   O     O_R   0.916016 0.512914 0.177561 -0.826344
H23   H     H_    0.886223 0.528362 0.090427 0.350346
C40   C     C_2   0.082422 0.657336 0.706131 0.391538
H24   H     H_    0.139901 0.654375 0.764336 0.088413
O15   O     O_2   0.050124 0.759079 0.688616 -0.569719

loop_
_geom_bond_atom_site_label_1
_geom_bond_atom_site_label_2
_ccdc_geom_bond_type
C2    H1    S    
C30   H11   S    
C3    C6    S    
C40   H24   S    
C7    C8    T    
C39   O13   D    
C18   C35   S    
C23   O5    A    
C38   O12   D    
C4    H18   S    
C1    O2    A    
N1    Zn2   S    
N2    Zn1   S    
C15   C16   A    
C29   C33   S    
C11   H8    S    
C18   C19   A    
C17   H5    S    
O7    Zn1   S    
O8    Zn2   S    
C32   C39   S    
C27   H10   S    
C16   C17   A    
C35   O9    D    
O1    Zn1   S    
O2    Zn2   S    
C9    C10   A    
C12   O4    A    
C13   C14   A    
C10   H7    S    
C31   H15   S    
C40   O15   D    
O6    Zn2   S    
O3    Zn1   S    
C39   O14   S    
O4    Zn2   S    
C23   O6    A    
C29   O7    A    
C38   H22   S    
C30   C34   S    
C24   C25   A    
C37   O11   D    
C28   N2    A    
C36   H20   S    
C31   C38   S    
C25   C26   A    
C9    H6    S    
C19   C23   S    
C5    C40   S    
C31   C32   S    
C8    C12   S    
C5    C34   S    
C17   C18   A    
C31   C34   S    
C1    C16   S    
C25   N2    A    
C32   H16   S    
C12   O3    A    
C22   H12   S    
C21   C37   S    
C7    C34   S    
C22   C24   A    
C3    C4    S    
C26   N1    A    
C13   H9    S    
C29   O8    A    
C28   H14   S    
C24   H13   S    
C14   C19   A    
C20   C36   S    
C4    H4    S    
C4    C5    S    
C27   N1    A    
O5    Zn1   S    
C6    C33   T    
C30   H2    S    
C2    C30   S    
C2    C3    S    
C1    O1    A    
C37   H21   S    
C11   C13   A    
C2    H3    S    
C20   C26   A    
C9    C15   A    
C3    C32   S    
C10   C11   A    
O14   H23   S    
C20   C21   A    
C36   O10   D    
C35   H19   S    
C27   C28   A    
C14   C15   A    
C5    H17   S    
C21   C22   A    
