data_mof_unit_67636.cif
_audit_creation_date              2013-03-05T16:14:40-0500
_audit_creation_method            fapswitch 2.2
_symmetry_space_group_name_H-M    P1
_symmetry_Int_Tables_number       1
_space_group_crystal_system       triclinic
_cell_length_a                    15.990128
_cell_length_b                    11.116423
_cell_length_c                    9.729346
_cell_angle_alpha                 90.918555
_cell_angle_beta                  93.946125
_cell_angle_gamma                 91.700386
_cell_volume                      1724.27759515

loop_
_atom_site_label
_atom_site_type_symbol
_atom_site_description
_atom_site_fract_x
_atom_site_fract_y
_atom_site_fract_z
_atom_type_partial_charge
O1    O     O_R   0.500040 0.316850 0.620870 -0.545319
O2    O     O_R   0.499960 0.683150 0.379130 -0.525165
O3    O     O_R   0.500000 0.316860 0.379090 -0.575877
O4    O     O_R   0.500000 0.683140 0.620910 -0.550283
C1    C     C_R   0.498183 0.259420 0.498924 0.735400
C2    C     C_R   0.501888 0.739720 0.501223 0.758632
O5    O     O_R   0.379090 0.499980 0.620870 -0.594559
O6    O     O_R   0.620910 0.500020 0.379130 -0.520490
O7    O     O_R   0.379060 0.499990 0.379090 -0.555237
O8    O     O_R   0.620940 0.500010 0.620910 -0.578626
C3    C     C_R   0.340400 0.502446 0.495835 0.757150
C4    C     C_R   0.659638 0.497630 0.504358 0.747539
Cu1   Cu    Cu3+1 0.500020 0.499990 0.643150 0.980642
Cu2   Cu    Cu3+1 0.499980 0.500010 0.356850 1.023683
C5    C     C_3   0.986082 0.417865 0.596188 -0.217731
C6    C     C_3   0.014873 0.594317 0.411349 -0.222788
C7    C     C_3   0.027879 0.401676 0.459004 0.410704
C8    C     C_3   0.972728 0.610427 0.548750 0.417994
C9    C     C_1   0.250304 0.511002 0.486736 -0.213467
C10   C     C_1   0.749973 0.492914 0.515060 -0.161049
C11   C     C_3   0.039874 0.534652 0.626241 0.388432
C12   C     C_3   0.961148 0.477426 0.380955 0.394265
C13   C     C_3   0.082712 0.517551 0.489458 -0.117730
C14   C     C_3   0.918065 0.494103 0.517724 -0.122544
C15   C     C_1   0.174758 0.517085 0.484099 0.047787
C16   C     C_1   0.825786 0.490995 0.520491 0.074408
C17   C     C_3   0.553505 0.045909 0.603652 -0.127476
C18   C     C_3   0.448145 0.950336 0.399272 -0.093562
C19   C     C_3   0.580095 0.963901 0.484373 -0.138075
C20   C     C_3   0.421573 0.031302 0.517947 -0.141522
C21   C     C_3   0.503756 0.876847 0.501785 -0.185062
C22   C     C_3   0.497619 0.120733 0.499180 -0.206482
C23   C     C_3   0.477495 0.958012 0.620221 0.500386
C24   C     C_3   0.523934 0.037666 0.381103 0.521043
C25   C     C_3   0.510926 0.605298 0.053177 0.538307
C26   C     C_3   0.489623 0.393341 0.949140 0.411816
C27   C     C_3   0.439981 0.563747 0.945742 0.407341
C28   C     C_3   0.559537 0.437537 0.057027 0.456523
N1    N     N_3   0.500060 0.499970 0.858290 -0.268466
N2    N     N_3   0.499940 0.500030 0.141710 -0.243226
C29   C     C_3   0.570680 0.543691 0.958881 -0.161125
C30   C     C_3   0.429225 0.457615 0.043945 -0.227407
O9    O     O_3   0.064142 0.296371 0.410400 -0.601963
C31   C     C_3   0.003572 0.202276 0.386634 -0.370252
H1    H     H_    0.939187 0.233626 0.360311 0.188696
H2    H     H_    0.003822 0.142920 0.476723 0.187660
H3    H     H_    0.021112 0.146585 0.298359 0.173013
O10   O     O_3   0.934576 0.714688 0.596881 -0.583020
C32   C     C_3   0.994388 0.808211 0.630487 -0.357738
H4    H     H_    0.996986 0.871935 0.544651 0.186005
H5    H     H_    0.058055 0.776077 0.659246 0.181600
H6    H     H_    0.974197 0.860143 0.719911 0.166402
C33   C     C_R   0.975315 0.314073 0.691971 0.169626
C34   C     C_R   0.037819 0.290156 0.796196 -0.166767
C35   C     C_R   0.031097 0.187795 0.876678 -0.196054
C36   C     C_R   0.964680 0.104869 0.848492 -0.147417
C37   C     C_R   0.904195 0.125509 0.741995 -0.143020
C38   C     C_R   0.907756 0.231592 0.667136 -0.177354
H7    H     H_    0.093003 0.348350 0.813506 0.178385
H8    H     H_    0.079102 0.170642 0.957267 0.131415
H9    H     H_    0.960415 0.023858 0.907672 0.116810
H10   H     H_    0.853782 0.059736 0.718822 0.170059
H11   H     H_    0.859756 0.246862 0.585988 0.126401
C39   C     C_R   0.028824 0.700105 0.319643 0.163702
C40   C     C_R   0.972702 0.722217 0.205849 -0.183123
C41   C     C_R   0.981949 0.826537 0.129326 -0.190584
C42   C     C_R   0.044921 0.912202 0.169318 -0.146658
C43   C     C_R   0.099104 0.893101 0.284938 -0.138205
C44   C     C_R   0.092475 0.786216 0.357689 -0.170731
H12   H     H_    0.919681 0.661963 0.179149 0.178816
H13   H     H_    0.938540 0.842562 0.041820 0.125274
H14   H     H_    0.051474 0.993903 0.111833 0.116313
H15   H     H_    0.147428 0.960110 0.316484 0.166009
H16   H     H_    0.135602 0.772159 0.446185 0.130984
O11   O     O_3   0.912293 0.443151 0.259053 -0.580520
C45   C     C_3   0.964213 0.418453 0.151357 -0.360831
H17   H     H_    0.005337 0.342172 0.173417 0.201928
H18   H     H_    0.002889 0.498261 0.127092 0.150028
H19   H     H_    0.923884 0.391672 0.058057 0.180909
O12   O     O_3   0.090188 0.567561 0.746981 -0.604513
C46   C     C_3   0.040149 0.585886 0.858490 -0.370994
H20   H     H_    0.993432 0.511574 0.868548 0.165209
H21   H     H_    0.008067 0.672428 0.851010 0.193196
H22   H     H_    0.081856 0.590775 0.954392 0.173688
C47   C     C_R   0.671187 0.933686 0.469628 0.101268
C48   C     C_R   0.731755 0.027718 0.467968 -0.150971
C49   C     C_R   0.812513 0.005404 0.431475 -0.205797
C50   C     C_R   0.834495 0.889489 0.396951 -0.067327
C51   C     C_R   0.776121 0.794499 0.400921 -0.063801
C52   C     C_R   0.695039 0.816058 0.438151 -0.180422
H23   H     H_    0.714865 0.120025 0.481925 0.120417
H24   H     H_    0.857115 0.078759 0.425103 0.124402
H25   H     H_    0.896447 0.874241 0.365286 0.163210
H26   H     H_    0.793153 0.704831 0.371371 0.160058
H27   H     H_    0.651178 0.741312 0.435269 0.150018
C53   C     C_R   0.330434 0.053682 0.537335 0.104148
C54   C     C_R   0.278898 0.958485 0.579573 -0.126871
C55   C     C_R   0.199150 0.980315 0.620929 -0.209915
C56   C     C_R   0.168406 0.095921 0.615375 -0.107453
C57   C     C_R   0.217653 0.190385 0.568709 -0.083884
C58   C     C_R   0.297835 0.169201 0.527259 -0.216133
H28   H     H_    0.302783 0.869123 0.591903 0.149604
H29   H     H_    0.162705 0.908308 0.662113 0.127442
H30   H     H_    0.106931 0.111929 0.648990 0.162187
H31   H     H_    0.194705 0.280555 0.568630 0.183964
H32   H     H_    0.335141 0.244003 0.493555 0.138833
C59   C     C_R   0.617579 0.094211 0.715150 0.172401
C60   C     C_R   0.646231 0.018156 0.819902 -0.179221
C61   C     C_R   0.713695 0.053134 0.912472 -0.219372
C62   C     C_R   0.750433 0.167927 0.905791 -0.132011
C63   C     C_R   0.722963 0.244951 0.801696 -0.128946
C64   C     C_R   0.658787 0.207104 0.704887 -0.066142
H33   H     H_    0.617225 0.930691 0.827330 0.139365
H34   H     H_    0.736758 0.991650 0.990456 0.144131
H35   H     H_    0.802113 0.195660 0.978192 0.144091
H36   H     H_    0.754461 0.331413 0.791293 0.140242
H37   H     H_    0.646152 0.263302 0.617530 0.108846
C65   C     C_R   0.382650 0.897442 0.293089 0.198638
C66   C     C_R   0.360629 0.958893 0.172058 -0.186474
C67   C     C_R   0.290628 0.921033 0.086069 -0.178425
C68   C     C_R   0.245957 0.816143 0.114432 -0.078518
C69   C     C_R   0.268080 0.752876 0.233122 -0.137811
C70   C     C_R   0.334251 0.794781 0.323511 -0.069269
H38   H     H_    0.395635 0.038286 0.145572 0.163206
H39   H     H_    0.271476 0.972586 0.996467 0.130354
H40   H     H_    0.192416 0.786132 0.047182 0.128764
H41   H     H_    0.231478 0.674018 0.258272 0.136586
H42   H     H_    0.345519 0.748247 0.418936 0.089554
O13   O     O_3   0.452745 0.898002 0.736906 -0.587261
C71   C     C_3   0.424252 0.978726 0.832946 -0.385170
H43   H     H_    0.367547 0.023775 0.794617 0.176818
H44   H     H_    0.475087 0.041534 0.875326 0.217061
H45   H     H_    0.401954 0.924379 0.915886 0.225435
O14   O     O_3   0.540058 0.080829 0.250610 -0.621134
C72   C     C_3   0.607441 0.021482 0.197573 -0.438800
H46   H     H_    0.609314 0.925254 0.223683 0.227120
H47   H     H_    0.667952 0.066190 0.231001 0.182810
H48   H     H_    0.600627 0.028740 0.085038 0.196063
O15   O     O_3   0.388956 0.658348 0.895770 -0.568714
C73   C     C_3   0.310800 0.619978 0.832257 -0.141639
H49   H     H_    0.299110 0.521091 0.829361 0.136128
H50   H     H_    0.304797 0.656729 0.727052 0.187965
H51   H     H_    0.260136 0.662895 0.885182 0.147354
O16   O     O_3   0.634515 0.403345 0.125585 -0.599144
C74   C     C_3   0.636433 0.280951 0.143597 -0.237575
H52   H     H_    0.601297 0.228639 0.059093 0.215520
H53   H     H_    0.615215 0.263075 0.246541 0.249162
H54   H     H_    0.702877 0.255272 0.147195 0.157859
O17   O     O_3   0.518741 0.717347 0.120166 -0.536644
C75   C     C_3   0.535801 0.805376 0.025731 -0.357733
H55   H     H_    0.510334 0.784842 0.920278 0.245312
H56   H     H_    0.604469 0.821641 0.026960 0.151805
H57   H     H_    0.504385 0.886036 0.058307 0.219758
O18   O     O_3   0.478124 0.276093 0.894087 -0.586717
C76   C     C_3   0.395311 0.260497 0.834999 -0.266344
H58   H     H_    0.363800 0.344320 0.804283 0.167503
H59   H     H_    0.356137 0.209276 0.904480 0.138724
H60   H     H_    0.397807 0.207059 0.740277 0.203206
C77   C     C_R   0.655376 0.592485 0.910921 0.187934
C78   C     C_R   0.657956 0.692707 0.824869 -0.156733
C79   C     C_R   0.733637 0.746254 0.790476 -0.167523
C80   C     C_R   0.809041 0.700643 0.841340 -0.071502
C81   C     C_R   0.808943 0.596852 0.918392 -0.198239
C82   C     C_R   0.733455 0.541542 0.950463 -0.093862
H61   H     H_    0.601902 0.732500 0.785975 0.167145
H62   H     H_    0.734009 0.824802 0.726602 0.164018
H63   H     H_    0.867352 0.745309 0.820613 0.161631
H64   H     H_    0.867595 0.559341 0.954118 0.130182
H65   H     H_    0.739847 0.458889 0.004323 0.196887
C83   C     C_R   0.351325 0.402602 0.099818 0.178818
C84   C     C_R   0.276941 0.465858 0.100304 -0.151853
C85   C     C_R   0.203469 0.410898 0.141373 -0.150231
C86   C     C_R   0.204404 0.292920 0.187023 -0.085104
C87   C     C_R   0.279544 0.232828 0.198805 -0.213735
C88   C     C_R   0.353123 0.287533 0.156375 -0.103928
H66   H     H_    0.275888 0.558249 0.072272 0.143602
H67   H     H_    0.146370 0.460360 0.139073 0.124334
H68   H     H_    0.147525 0.248153 0.214882 0.174012
H69   H     H_    0.279857 0.144059 0.241212 0.161785
H70   H     H_    0.410973 0.239599 0.163253 0.179495

loop_
_geom_bond_atom_site_label_1
_geom_bond_atom_site_label_2
_geom_bond_distance
_ccdc_geom_bond_type
C85   H67   1.078797 S    
C72   H48   1.097321 S    
C20   C22   1.570006 S    
C35   C36   1.395201 A    
C25   C29   1.537188 S    
C17   C19   1.554234 S    
C8    C11   1.547053 S    
C59   C64   1.408217 A    
C34   C35   1.397281 A    
C26   C30   1.560913 S    
C81   C82   1.395123 A    
C45   H19   1.108083 S    
C84   C85   1.393910 A    
C46   H22   1.108561 S    
C74   H52   1.109725 S    
C70   H42   1.077005 S    
C26   O18   1.403332 S    
C52   H27   1.070063 S    
N1    C29   1.506398 S    
C47   C48   1.404810 A    
C36   C37   1.394456 A    
O5    C3    1.327356 A    
C3    C9    1.443328 S    
C57   H31   1.077587 S    
C7    C13   1.549446 S    
O1    C1    1.336361 A    
C5    C33   1.508010 S    
C12   C14   1.550960 S    
C25   C27   1.543719 S    
C14   C16   1.477037 S    
C80   C81   1.386012 A    
C48   H23   1.077654 S    
C64   H37   1.074409 S    
C76   H59   1.105905 S    
C83   C84   1.399812 A    
C24   O14   1.402095 S    
C40   H12   1.079506 S    
O4    Cu1   2.050893 S    
C60   C61   1.398648 A    
C5    C7    1.543616 S    
C42   H14   1.080445 S    
C69   H41   1.080285 S    
C87   C88   1.398899 A    
C20   C53   1.509675 S    
C30   C83   1.509883 S    
C46   H21   1.104709 S    
C29   C77   1.548408 S    
C77   C78   1.405646 A    
C43   C44   1.397803 A    
C32   H5    1.108101 S    
C75   H57   1.093770 S    
C6    C12   1.549313 S    
C59   C60   1.396340 A    
C73   H51   1.105235 S    
C63   H36   1.081257 S    
C19   C47   1.520283 S    
C79   H62   1.079933 S    
C20   C23   1.549290 S    
C31   H3    1.107242 S    
C34   H7    1.080576 S    
C1    C22   1.541509 S    
C35   H8    1.082129 S    
N2    C30   1.487150 S    
C56   H30   1.075948 S    
C67   C68   1.390673 A    
C18   C24   1.551625 S    
C66   H38   1.075388 S    
Cu1   Cu2   2.785471 S    
C65   C66   1.400096 A    
C76   H60   1.092111 S    
C82   H65   1.069063 S    
O2    C2    1.333172 A    
C12   O11   1.415077 S    
O2    Cu2   2.043924 S    
C74   H53   1.098585 S    
C31   H2    1.105381 S    
C54   C55   1.390219 A    
C83   C88   1.400866 A    
C26   N1    1.502104 S    
O15   C73   1.406842 S    
C76   H58   1.107943 S    
C42   C43   1.394836 A    
C72   H46   1.104199 S    
C41   C42   1.396220 A    
C73   H49   1.109153 S    
C28   C29   1.543756 S    
O4    C2    1.334056 A    
O7    Cu2   1.960331 S    
C67   H39   1.082531 S    
O16   C74   1.375584 S    
C37   H10   1.081644 S    
C43   H15   1.082603 S    
C86   C87   1.390711 A    
C19   C24   1.560218 S    
C46   H20   1.107270 S    
C62   C63   1.393096 A    
C22   C24   1.550834 S    
C60   H33   1.070433 S    
C71   H44   1.108693 S    
O11   C45   1.409452 S    
C7    O9    1.410829 S    
C71   H43   1.094699 S    
C41   H13   1.081321 S    
C17   C59   1.520037 S    
O6    C4    1.329218 A    
C32   H6    1.108195 S    
C53   C54   1.405937 A    
C4    C10   1.443631 S    
C27   C30   1.543092 S    
C21   C23   1.540776 S    
O18   C76   1.411542 S    
C44   H16   1.081795 S    
C36   H9    1.079605 S    
C39   C44   1.402918 A    
C45   H17   1.103189 S    
C66   C67   1.400643 A    
O7    C3    1.330306 A    
C68   C69   1.392070 A    
O14   C72   1.403649 S    
O3    Cu2   2.050893 S    
O8    C4    1.328943 A    
C61   H34   1.082542 S    
C6    C8    1.548157 S    
C5    C14   1.563672 S    
C55   C56   1.390032 A    
C6    C13   1.563567 S    
C11   C13   1.549671 S    
O9    C31   1.409578 S    
C8    C14   1.552848 S    
C47   C52   1.407809 A    
C71   H45   1.088910 S    
O1    Cu1   2.043923 S    
C40   C41   1.397719 A    
C85   C86   1.391556 A    
C58   H32   1.077518 S    
C74   H54   1.106672 S    
C49   H24   1.072669 S    
C31   H1    1.111234 S    
O13   C71   1.393539 S    
C23   O13   1.400328 S    
C38   H11   1.081606 S    
C72   H47   1.100891 S    
C50   H25   1.074827 S    
O10   C32   1.410508 S    
O6    Cu2   1.930913 S    
C63   C64   1.394932 A    
C17   C22   1.571554 S    
C48   C49   1.390830 A    
C28   O16   1.397097 S    
C18   C21   1.549218 S    
C54   H28   1.080329 S    
C45   H18   1.104331 S    
O12   C46   1.407406 S    
O3    C1    1.339900 A    
O8    Cu1   1.960333 S    
C8    O10   1.413731 S    
C51   H26   1.080789 S    
C33   C38   1.401525 A    
C33   C34   1.408108 A    
C88   H70   1.079810 S    
C73   H50   1.107262 S    
C6    C39   1.508072 S    
C84   H66   1.067192 S    
C7    C12   1.544858 S    
C75   H55   1.095469 S    
C56   C57   1.394412 A    
C39   C40   1.405906 A    
C78   H61   1.060402 S    
C25   N2    1.477547 S    
C69   C70   1.392643 A    
C81   H64   1.075756 S    
C68   H40   1.082275 S    
C19   C21   1.555264 S    
C79   C80   1.384890 A    
O17   C75   1.386960 S    
C78   C79   1.396479 A    
C28   N2    1.482755 S    
C37   C38   1.397728 A    
C5    C11   1.548465 S    
C10   C16   1.210604 T    
C86   H68   1.076915 S    
C62   H35   1.082556 S    
C11   O12   1.414116 S    
C26   C28   1.543475 S    
C57   C58   1.395700 A    
C18   C20   1.542955 S    
C2    C21   1.523678 S    
C75   H56   1.106718 S    
C65   C70   1.406722 A    
C13   C15   1.476484 S    
C9    C15   1.210410 T    
Cu1   N1    2.093130 S    
Cu2   N2    2.093132 S    
C80   H63   1.076188 S    
O5    Cu1   1.930912 S    
C50   C51   1.391237 A    
C49   C50   1.387813 A    
C27   N1    1.510978 S    
C32   H4    1.105880 S    
C27   O15   1.421519 S    
C61   C62   1.393246 A    
C17   C23   1.555459 S    
C77   C82   1.417843 A    
C18   C65   1.518167 S    
C25   O17   1.394780 S    
C51   C52   1.396383 A    
C53   C58   1.402536 A    
C87   H69   1.075675 S    
C55   H29   1.075010 S    
