data_mof_unit_48371.cif
_audit_creation_date              2012-12-10T20:51:27-0500
_audit_creation_method            fapswitch 2.2
_symmetry_space_group_name_H-M    P1
_symmetry_Int_Tables_number       1
_space_group_crystal_system       triclinic
_cell_length_a                    17.459838
_cell_length_b                    8.942157
_cell_length_c                    8.08676
_cell_angle_alpha                 89.999653
_cell_angle_beta                  89.769068
_cell_angle_gamma                 89.999985
_cell_volume                      1262.5643638

loop_
_atom_site_label
_atom_site_type_symbol
_atom_type_description
_atom_site_fract_x
_atom_site_fract_y
_atom_site_fract_z
_atom_type_partial_charge
C1    C     C_R   0.500000 0.217893 0.500000 0.929862
C2    C     C_R   0.850705 0.573123 0.351581 0.406694
C3    C     C_R   0.769812 0.553667 0.650870 0.261987
C4    C     C_R   0.230187 0.553663 0.349132 0.261989
C5    C     C_R   0.228348 0.550465 0.651479 0.215954
C6    C     C_R   0.771652 0.550475 0.348523 0.215953
C7    C     C_R   0.730800 0.534479 0.499280 -0.301998
C8    C     C_R   0.269200 0.534474 0.500720 -0.301993
C9    C     C_R   0.885453 0.615240 0.499803 -0.227061
C10   C     C_R   0.114546 0.615234 0.500201 -0.227073
C11   C     C_1   0.965926 0.637075 0.500725 0.127919
C12   C     C_R   0.500000 0.782109 0.500000 0.903039
C13   C     C_1   0.034073 0.637073 0.499282 0.127920
C14   C     C_3   0.847628 0.780661 0.862072 0.149252
C15   C     C_3   0.890082 0.919943 0.801816 -0.389543
C16   C     C_3   0.847840 0.062762 0.851317 -0.962523
C17   C     C_3   0.152365 0.780661 0.137934 0.149251
C18   C     C_3   0.109924 0.919941 0.198234 -0.389578
C19   C     C_3   0.152162 0.062761 0.148719 -0.962525
C20   C     C_3   0.100404 0.403900 0.834568 0.177006
C21   C     C_3   0.048631 0.315290 0.715929 -0.420939
C22   C     C_3   0.054131 0.147927 0.747491 -0.990234
C23   C     C_1   0.500000 0.065147 0.500000 -0.183891
C24   C     C_3   0.899596 0.403912 0.165434 0.177012
C25   C     C_3   0.951368 0.315298 0.284073 -0.420942
C26   C     C_3   0.945867 0.147936 0.252512 -0.990226
C27   C     C_1   0.500000 0.934843 0.499999 -0.183469
C28   C     C_R   0.352300 0.504993 0.500384 0.968203
C29   C     C_R   0.647700 0.504994 0.499616 0.968199
C30   C     C_R   0.845168 0.610516 0.649483 0.309259
C31   C     C_R   0.154831 0.610511 0.350520 0.309263
C32   C     C_R   0.149295 0.573115 0.648422 0.406694
H1    H     H_    0.852475 0.775194 0.998799 0.202482
H2    H     H_    0.051754 0.919832 0.143429 0.240293
H3    H     H_    0.104248 0.917367 0.335122 0.227544
H4    H     H_    0.207958 0.069436 0.213814 0.277923
H5    H     H_    0.117430 0.161979 0.183297 0.274460
H6    H     H_    0.162711 0.064913 0.013368 0.267525
H7    H     H_    0.075214 0.397031 0.960706 0.172944
H8    H     H_    0.157900 0.350746 0.843210 0.175400
H9    H     H_    0.988314 0.352701 0.731191 0.235425
H10   H     H_    0.065993 0.334052 0.585516 0.222080
H11   H     H_    0.113691 0.108368 0.726631 0.270166
H12   H     H_    0.785207 0.791385 0.835504 0.146613
H13   H     H_    0.016137 0.087906 0.660158 0.276577
H14   H     H_    0.036543 0.122282 0.876160 0.274193
H15   H     H_    0.924788 0.397045 0.039296 0.172944
H16   H     H_    0.842100 0.350759 0.156790 0.175399
H17   H     H_    0.011685 0.352707 0.268811 0.235427
H18   H     H_    0.934006 0.334060 0.414486 0.222080
H19   H     H_    0.886306 0.108380 0.273369 0.270168
H20   H     H_    0.983859 0.087913 0.339849 0.276575
H21   H     H_    0.963456 0.122291 0.123845 0.274200
H22   H     H_    0.772335 0.508371 0.886348 0.386028
H23   H     H_    0.948244 0.919824 0.856660 0.240290
H24   H     H_    0.227663 0.508368 0.113654 0.386029
H25   H     H_    0.298376 0.626872 0.810081 0.351042
H26   H     H_    0.701620 0.626882 0.189925 0.351041
H27   H     H_    0.895778 0.917381 0.664931 0.227544
H28   H     H_    0.792058 0.069456 0.786169 0.277921
H29   H     H_    0.882584 0.161980 0.816792 0.274454
H30   H     H_    0.837263 0.064893 0.986661 0.267526
H31   H     H_    0.147502 0.775213 0.001210 0.202477
H32   H     H_    0.214790 0.791370 0.164470 0.146623
N1    N     N_1   0.500000 0.500000 0.073640 -0.003972
N2    N     N_1   0.500000 0.500000 0.926360 -0.003972
O1    O     O_R   0.500000 0.285350 0.636850 -0.614354
O2    O     O_3   0.118177 0.649895 0.204898 -0.620013
O3    O     O_3   0.105173 0.557379 0.790598 -0.604058
O4    O     O_3   0.894827 0.557390 0.209406 -0.604058
O5    O     O_3   0.733550 0.518329 0.798066 -0.718414
O6    O     O_3   0.266448 0.518328 0.201935 -0.718416
O7    O     O_3   0.263380 0.539786 0.802815 -0.737328
O8    O     O_3   0.736620 0.539801 0.197186 -0.737335
O9    O     O_R   0.500000 0.714650 0.363150 -0.626472
O10   O     O_R   0.500000 0.714650 0.636850 -0.626471
O11   O     O_R   0.500000 0.285350 0.363150 -0.614355
O12   O     O_R   0.389120 0.500000 0.636930 -0.611145
O13   O     O_R   0.610880 0.500000 0.363070 -0.611148
O14   O     O_R   0.610880 0.500000 0.636930 -0.551141
O15   O     O_R   0.389120 0.500000 0.363070 -0.551143
O16   O     O_3   0.881820 0.649900 0.795106 -0.620016
Zn1   Zn    Zn3+2 0.500000 0.500000 0.682780 1.029481
Zn2   Zn    Zn3+2 0.500000 0.500000 0.317220 1.029480

loop_
_geom_bond_atom_site_label_1
_geom_bond_atom_site_label_2
_ccdc_geom_bond_type
O1    Zn1   S    
C7    C29   S    
C1    O11   A    
C4    C8    A    
C14   H1    S    
C24   O4    S    
C3    C7    A    
C19   H4    S    
C17   H32   S    
O13   Zn2   S    
C20   H8    S    
O9    Zn2   S    
C15   C16   S    
C18   C19   S    
C16   H28   S    
H25   O7    S    
C25   H18   S    
C19   H5    S    
N2    Zn1   S    
C10   C31   A    
H22   O5    S    
H24   O6    S    
C23   C27   T    
C28   O12   A    
C18   H3    S    
C5    C32   A    
C21   C22   S    
C2    C6    A    
C16   H30   S    
O14   Zn1   S    
O12   Zn1   S    
O10   Zn1   S    
C6    O8    S    
C31   O2    S    
C12   C27   S    
C24   H16   S    
C24   C25   S    
C20   H7    S    
N1    Zn2   S    
O11   Zn2   S    
C25   C26   S    
C15   H23   S    
C30   O16   S    
C3    C30   A    
C3    O5    S    
C19   H6    S    
C26   H20   S    
C9    C11   S    
C22   H11   S    
C29   O13   A    
C17   C18   S    
C18   H2    S    
C32   O3    S    
C9    C30   A    
C21   H9    S    
C22   H14   S    
C1    C23   S    
C12   O10   A    
C8    C28   S    
C20   O3    S    
C16   H29   S    
C14   O16   S    
C26   H21   S    
C4    O6    S    
O15   Zn2   S    
H26   O8    S    
C14   H12   S    
C17   O2    S    
C28   O15   A    
C24   H15   S    
C15   H27   S    
C10   C13   S    
C5    C8    A    
C6    C7    A    
C26   H19   S    
C17   H31   S    
C11   C13   T    
C29   O14   A    
C1    O1    A    
C5    O7    S    
C25   H17   S    
C4    C31   A    
C21   H10   S    
C10   C32   A    
C22   H13   S    
C20   C21   S    
N1    N2    T    
C12   O9    A    
C14   C15   S    
C2    O4    S    
C2    C9    A    
