data_mof_unit_45943.cif
_audit_creation_date              2012-12-10T19:28:32-0500
_audit_creation_method            fapswitch 2.2
_symmetry_space_group_name_H-M    P1
_symmetry_Int_Tables_number       1
_space_group_crystal_system       triclinic
_cell_length_a                    27.830859
_cell_length_b                    10.47351
_cell_length_c                    9.745942
_cell_angle_alpha                 89.428345
_cell_angle_beta                  89.817886
_cell_angle_gamma                 90.14567
_cell_volume                      2840.64809611

loop_
_atom_site_label
_atom_site_type_symbol
_atom_type_description
_atom_site_fract_x
_atom_site_fract_y
_atom_site_fract_z
_atom_type_partial_charge
C1    C     C_R   0.500012 0.257493 0.500681 0.869631
C2    C     C_R   0.500001 0.742506 0.499318 0.869792
C3    C     C_R   0.103346 0.501343 0.483911 -0.059839
C4    C     C_R   0.901236 0.510749 0.445053 -0.060673
C5    C     C_R   0.127998 0.384408 0.491645 -0.102106
C6    C     C_R   0.876410 0.627397 0.447923 -0.113903
C7    C     C_R   0.102208 0.270532 0.499827 -0.220407
C8    C     C_R   0.901749 0.741502 0.432528 -0.215119
C9    C     C_R   0.129546 0.616344 0.490671 0.001109
C10   C     C_R   0.875064 0.395600 0.442194 -0.009970
C11   C     C_R   0.353743 0.498077 0.500300 -0.038198
C12   C     C_R   0.646241 0.504034 0.498477 -0.049293
C13   C     C_R   0.976284 0.389782 0.448530 0.068943
C14   C     C_R   0.028503 0.623039 0.463891 0.069347
C15   C     C_R   0.977935 0.626206 0.444910 -0.093708
C16   C     C_R   0.026681 0.386231 0.469709 -0.091428
C17   C     C_R   0.952079 0.509042 0.446410 0.022787
C18   C     C_R   0.052642 0.503433 0.471118 0.021349
C19   C     C_R   0.949007 0.278234 0.424193 -0.185633
C20   C     C_R   0.055674 0.735267 0.485845 -0.196181
C21   C     C_R   0.899256 0.280461 0.425719 -0.175968
C22   C     C_R   0.105268 0.732301 0.494719 -0.173482
C23   C     C_R   0.406203 0.499622 0.500152 0.864855
C24   C     C_R   0.593786 0.500474 0.499756 0.865021
C25   C     C_R   0.052265 0.270720 0.498403 0.428730
C26   C     C_R   0.951582 0.741387 0.420633 0.428727
C27   C     C_3   0.499980 0.038603 0.631251 -0.142457
C28   C     C_3   0.500051 0.961394 0.368746 -0.142236
C29   C     C_3   0.539550 0.956981 0.564294 -0.172316
C30   C     C_3   0.460481 0.043014 0.435703 -0.173030
C31   C     C_3   0.500011 0.877579 0.498037 0.022877
C32   C     C_3   0.500018 0.122419 0.501961 0.022784
C33   C     C_3   0.460442 0.956463 0.564837 -0.171155
C34   C     C_3   0.539589 0.043537 0.435161 -0.170460
C35   C     C_3   0.464827 0.432354 0.049773 -0.073438
C36   C     C_3   0.535172 0.567648 0.950227 -0.068161
C37   C     C_3   0.504358 0.385363 0.952563 -0.073237
C38   C     C_3   0.495641 0.614637 0.047437 -0.073431
C39   C     C_3   0.460426 0.547013 0.951319 -0.074254
C40   C     C_3   0.539573 0.452987 0.048681 -0.069126
C41   C     C_R   0.178215 0.384545 0.497520 0.532546
C42   C     C_R   0.826348 0.626468 0.460966 0.570273
C43   C     C_R   0.179674 0.612251 0.497418 0.503214
C44   C     C_R   0.825048 0.399017 0.453881 0.536300
C45   C     C_R   0.278304 0.506709 0.623849 -0.103417
C46   C     C_R   0.720110 0.470747 0.368747 -0.064002
C47   C     C_R   0.328226 0.507661 0.624364 -0.217574
C48   C     C_R   0.670547 0.467538 0.378086 -0.207610
C49   C     C_R   0.328701 0.486739 0.376094 -0.216776
C50   C     C_R   0.670641 0.546506 0.616402 -0.204421
C51   C     C_R   0.278832 0.485467 0.376071 -0.110317
C52   C     C_R   0.720313 0.555942 0.622522 -0.094808
C53   C     C_R   0.253764 0.495756 0.499739 0.325991
C54   C     C_R   0.747901 0.514300 0.489356 0.051171
H1    H     H_    0.347541 0.478827 0.279144 0.157438
H2    H     H_    0.650616 0.575147 0.706354 0.164703
H3    H     H_    0.499949 0.074182 0.738192 0.137029
H4    H     H_    0.500081 0.925815 0.261806 0.137053
H5    H     H_    0.428280 0.915969 0.617260 0.141601
H6    H     H_    0.571750 0.084039 0.382740 0.140900
H7    H     H_    0.508039 0.288822 0.907772 0.118761
H8    H     H_    0.491958 0.711177 0.092230 0.118668
H9    H     H_    0.435251 0.375455 0.096841 0.119251
H10   H     H_    0.564744 0.624562 0.903156 0.118522
H11   H     H_    0.427136 0.586614 0.905285 0.119426
H12   H     H_    0.572859 0.413362 0.094714 0.119005
H13   H     H_    0.259573 0.477259 0.280167 0.132973
H14   H     H_    0.740192 0.537534 0.561457 0.218089
H15   H     H_    0.120541 0.180377 0.515393 0.209583
H16   H     H_    0.882904 0.831550 0.422616 0.208630
H17   H     H_    0.650699 0.435196 0.289473 0.151527
H18   H     H_    0.346734 0.516557 0.721406 0.155136
H19   H     H_    0.738081 0.442303 0.275257 0.155252
H20   H     H_    0.258637 0.514907 0.719396 0.132973
H21   H     H_    0.879866 0.191483 0.413355 0.197982
H22   H     H_    0.124439 0.821545 0.507671 0.199365
H23   H     H_    0.965066 0.187812 0.400569 0.223572
H24   H     H_    0.039723 0.827132 0.502036 0.225765
H25   H     H_    0.571677 0.916893 0.616275 0.140413
H26   H     H_    0.428352 0.083087 0.383716 0.140936
N1    N     N_R   0.202707 0.497480 0.498574 -0.359245
N2    N     N_R   0.802133 0.513238 0.466329 -0.340173
N3    N     N_3   0.499960 0.500030 0.863290 -0.075400
N4    N     N_3   0.500040 0.499970 0.136710 -0.075528
O1    O     O_R   0.500000 0.313960 0.616610 -0.626591
O2    O     O_R   0.500000 0.686040 0.383390 -0.626552
O3    O     O_R   0.500020 0.313950 0.383350 -0.622187
O4    O     O_R   0.499980 0.686050 0.616650 -0.622183
O5    O     O_R   0.428750 0.500030 0.616610 -0.624303
O6    O     O_R   0.571250 0.499970 0.383390 -0.623117
O7    O     O_R   0.428770 0.500020 0.383360 -0.623606
O8    O     O_R   0.571230 0.499980 0.616640 -0.622801
O9    O     O_2   0.202469 0.273131 0.502351 -0.552188
O10   O     O_2   0.801908 0.737256 0.468203 -0.545004
O11   O     O_2   0.799482 0.289412 0.456001 -0.548541
O12   O     O_2   0.205317 0.721728 0.501849 -0.551394
Zn1   Zn    Zn3+2 0.499990 0.500010 0.655740 0.942213
Zn2   Zn    Zn3+2 0.500010 0.499990 0.344260 0.942151
O13   O     O_3   0.029748 0.157175 0.533338 -0.623226
C55   C     C_3   0.018242 0.159175 0.674594 0.089754
H27   H     H_    0.994443 0.241278 0.699287 0.149685
H28   H     H_    0.051469 0.164951 0.737753 0.144439
C56   C     C_3   0.991675 0.036865 0.713263 -0.774408
H29   H     H_    0.015405 0.953204 0.697888 0.247124
H30   H     H_    0.980729 0.039780 0.822858 0.197575
H31   H     H_    0.959060 0.026416 0.648858 0.274507
O14   O     O_3   0.972867 0.854712 0.379071 -0.624036
C57   C     C_3   0.982914 0.848118 0.237159 0.093927
H32   H     H_    0.949297 0.833498 0.177388 0.145071
H33   H     H_    0.008498 0.769341 0.214736 0.149784
C58   C     C_3   0.005863 0.972960 0.189729 -0.786761
H34   H     H_    0.038715 0.992429 0.250598 0.274077
H35   H     H_    0.015839 0.966757 0.079581 0.198898
H36   H     H_    0.980123 0.052730 0.202688 0.246173

loop_
_geom_bond_atom_site_label_1
_geom_bond_atom_site_label_2
_ccdc_geom_bond_type
C1    O3    A    
C27   C29   S    
C8    C26   A    
C14   C18   A    
C11   C47   A    
C58   H34   S    
C42   N2    A    
C22   H22   S    
C12   C48   A    
C58   H35   S    
C27   C33   S    
C11   C49   A    
C19   C21   A    
C37   C40   S    
C44   N2    A    
C38   C39   S    
C9    C22   A    
C36   N3    S    
C57   H32   S    
C3    C18   A    
C53   N1    S    
C12   C24   S    
C19   H23   S    
C40   N4    S    
C25   O13   S    
C41   O9    S    
C49   C51   A    
C50   C52   A    
O14   C57   S    
C23   O5    A    
C2    O4    A    
C58   H36   S    
O4    Zn1   S    
C52   H14   S    
O3    Zn2   S    
C30   H26   S    
C28   C34   S    
C33   H5    S    
C40   H12   S    
C34   H6    S    
C39   H11   S    
C24   O8    A    
C55   H28   S    
C52   C54   A    
O8    Zn1   S    
C45   C47   A    
C10   C21   A    
C1    O1    A    
C46   C48   A    
C9    C43   A    
C13   C19   A    
C10   C44   A    
C14   C20   A    
C36   C40   S    
C4    C6    A    
C27   H3    S    
C5    C7    A    
C15   C26   A    
C6    C8    A    
C49   H1    S    
C29   C34   S    
C45   C53   A    
C55   C56   S    
C50   H2    S    
O5    Zn1   S    
C45   H20   S    
C51   C53   A    
C32   C34   S    
C35   C39   S    
C3    C9    A    
C12   C50   A    
O13   C55   S    
C29   H25   S    
C41   N1    A    
C46   C54   A    
C31   C33   S    
C43   O12   S    
C56   H30   S    
C51   H13   S    
C4    C17   A    
C20   C22   A    
C6    C42   A    
C43   N1    A    
C23   O7    A    
C48   H17   S    
C4    C10   A    
C36   C38   S    
C54   N2    S    
C16   C25   A    
C15   C17   A    
C5    C41   A    
C30   C33   S    
C35   C37   S    
C27   C32   S    
C42   O10   S    
C28   C31   S    
C37   N3    S    
C3    C5    A    
C24   O6    A    
C26   O14   S    
C7    H15   S    
C37   H7    S    
C35   N4    S    
C28   H4    S    
C21   H21   S    
C8    H16   S    
C7    C25   A    
C57   C58   S    
C20   H24   S    
N4    Zn2   S    
C28   C30   S    
C38   N4    S    
C29   C31   S    
C44   O11   S    
C30   C32   S    
C11   C23   S    
C55   H27   S    
C57   H33   S    
C2    O2    A    
C56   H31   S    
C1    C32   S    
O7    Zn2   S    
O2    Zn2   S    
C47   H18   S    
O1    Zn1   S    
C39   N3    S    
C13   C17   A    
C16   C18   A    
N3    Zn1   S    
C13   C16   A    
C56   H29   S    
C14   C15   A    
C2    C31   S    
C35   H9    S    
C36   H10   S    
O6    Zn2   S    
C46   H19   S    
C38   H8    S    
