data_mof_unit_43226.cif
_audit_creation_date              2012-10-26T18:49:27-0400
_audit_creation_method            fapswitch 2.2
_symmetry_space_group_name_H-M    P1
_symmetry_Int_Tables_number       1
_space_group_crystal_system       triclinic
_cell_length_a                    19.352759
_cell_length_b                    11.036295
_cell_length_c                    9.835582
_cell_angle_alpha                 111.447242
_cell_angle_beta                  98.251507
_cell_angle_gamma                 90.839812
_cell_volume                      1929.85868152

loop_
_atom_site_label
_atom_site_type_symbol
_atom_type_description
_atom_site_fract_x
_atom_site_fract_y
_atom_site_fract_z
_atom_type_partial_charge
C1    C     C_R   0.495043 0.253924 0.440339 0.556088
C2    C     C_R   0.632426 0.503502 0.499608 0.518998
C3    C     C_R   0.262825 0.576516 0.633378 -0.008068
C4    C     C_R   0.740499 0.556669 0.408701 -0.007387
C5    C     C_R   0.190032 0.567484 0.626820 -0.145684
C6    C     C_R   0.812715 0.548735 0.409466 -0.138350
C7    C     C_R   0.145263 0.499744 0.493305 0.012873
C8    C     C_R   0.853803 0.499201 0.504185 0.017317
C9    C     C_R   0.173626 0.440416 0.362325 0.272679
C10   C     C_R   0.822435 0.457862 0.602311 0.266817
C11   C     C_R   0.246538 0.438564 0.371634 -0.130801
C12   C     C_R   0.505195 0.746069 0.559657 0.538455
C13   C     C_R   0.749398 0.455764 0.592690 -0.129827
C14   C     C_R   0.291579 0.507485 0.504355 -0.061069
C15   C     C_R   0.708326 0.506223 0.499183 -0.067593
C16   C     C_R   0.929522 0.494206 0.499980 0.370770
C17   C     C_R   0.069140 0.494793 0.493849 0.367958
C18   C     C_2   0.306471 0.663774 0.773420 0.223310
C19   C     C_2   0.700997 0.623570 0.318834 0.247641
C20   C     C_3   0.140327 0.419104 0.118160 0.014922
C21   C     C_3   0.101190 0.542029 0.133029 -0.268517
C22   C     C_3   0.114609 0.595199 0.015401 -0.475902
C23   C     C_2   0.492731 0.114259 0.406601 -0.130392
C24   C     C_3   0.855847 0.466349 0.842456 0.018735
C25   C     C_3   0.907316 0.587306 0.916731 -0.272406
C26   C     C_3   0.902447 0.653767 0.080712 -0.475760
C27   C     C_3   0.592368 0.745442 0.987913 0.072910
C28   C     C_3   0.654476 0.798998 0.941382 -0.240612
C29   C     C_3   0.657568 0.947635 0.994571 -0.482065
C30   C     C_3   0.376745 0.301546 0.055968 0.063272
C31   C     C_3   0.342424 0.185461 0.920179 -0.292925
C32   C     C_3   0.266404 0.155618 0.929449 -0.472186
C33   C     C_2   0.508053 0.885706 0.593367 -0.133639
C34   C     C_2   0.501849 0.069616 0.516352 -0.156777
C35   C     C_2   0.499865 0.930346 0.483589 -0.158902
C36   C     C_2   0.503909 0.514850 0.083279 0.125426
C37   C     C_2   0.493271 0.492108 0.919951 0.107604
C38   C     C_R   0.367598 0.503678 0.502249 0.525632
Cu1   Cu    Cu3+1 0.512140 0.521810 0.644910 0.972989
Cu2   Cu    Cu3+1 0.487860 0.478190 0.355090 0.972496
H1    H     H_    0.167718 0.618317 0.725651 0.173142
H2    H     H_    0.537104 0.599028 0.159743 0.107615
H3    H     H_    0.357743 0.704434 0.773290 0.131317
H4    H     H_    0.650620 0.660067 0.342177 0.116177
H5    H     H_    0.118825 0.341903 0.009739 0.162695
H6    H     H_    0.196412 0.437931 0.113920 0.109615
H7    H     H_    0.044112 0.518092 0.120343 0.193766
H8    H     H_    0.118602 0.618880 0.244097 0.170798
H9    H     H_    0.171160 0.624061 0.028974 0.193948
H10   H     H_    0.084549 0.682345 0.026585 0.158920
H11   H     H_    0.097741 0.520070 0.903147 0.178572
H12   H     H_    0.837716 0.585824 0.339313 0.168337
H13   H     H_    0.869155 0.396481 0.898096 0.171165
H14   H     H_    0.801944 0.493200 0.861603 0.137007
H15   H     H_    0.961441 0.557866 0.905778 0.197287
H16   H     H_    0.895906 0.658018 0.861404 0.169785
H17   H     H_    0.849216 0.687561 0.094798 0.190456
H18   H     H_    0.941149 0.739542 0.131719 0.157081
H19   H     H_    0.914091 0.585146 0.138664 0.172577
H20   H     H_    0.597948 0.787123 0.110641 0.118904
H21   H     H_    0.542801 0.779314 0.945208 0.134882
H22   H     H_    0.703953 0.769037 0.988656 0.192140
H23   H     H_    0.268223 0.381083 0.274447 0.111283
H24   H     H_    0.649876 0.758036 0.818940 0.186424
H25   H     H_    0.609109 0.979654 0.946341 0.152150
H26   H     H_    0.703102 0.983401 0.959097 0.159350
H27   H     H_    0.663575 0.991233 0.117237 0.163046
H28   H     H_    0.345768 0.387968 0.065368 0.134026
H29   H     H_    0.376378 0.276002 0.154898 0.180605
H30   H     H_    0.344202 0.207153 0.818819 0.171560
H31   H     H_    0.372011 0.097994 0.911392 0.173189
H32   H     H_    0.263002 0.136776 0.031875 0.163648
H33   H     H_    0.244085 0.067616 0.832349 0.167674
H34   H     H_    0.724082 0.411596 0.656331 0.145855
H35   H     H_    0.235056 0.238821 0.928731 0.141715
H36   H     H_    0.491394 0.863904 0.368375 0.150122
H37   H     H_    0.510748 0.136057 0.631565 0.169219
H38   H     H_    0.516612 0.952378 0.708383 0.102034
H39   H     H_    0.483705 0.047574 0.291561 0.100593
H40   H     H_    0.448689 0.428358 0.848913 0.130990
N1    N     N_R   0.023085 0.483010 0.371301 -0.186902
N2    N     N_R   0.975535 0.505172 0.622196 -0.192360
N3    N     N_R   0.954621 0.483026 0.374318 -0.260984
N4    N     N_R   0.043990 0.505705 0.619329 -0.268178
N5    N     N_2   0.469620 0.445420 0.137370 -0.074560
N6    N     N_2   0.530380 0.554580 0.862630 -0.079887
O1    O     O_R   0.506480 0.332340 0.577400 -0.498584
O2    O     O_2   0.725025 0.641087 0.218695 -0.527110
O3    O     O_3   0.129803 0.371379 0.230082 -0.543854
O4    O     O_3   0.862240 0.402805 0.691041 -0.545660
O5    O     O_3   0.593316 0.608406 0.942775 -0.463486
O6    O     O_3   0.445999 0.325220 0.039080 -0.505162
O7    O     O_R   0.493520 0.667660 0.422600 -0.522308
O8    O     O_R   0.485980 0.295500 0.332650 -0.476783
O9    O     O_R   0.514020 0.704500 0.667350 -0.518844
O10   O     O_R   0.410390 0.518410 0.622410 -0.528388
O11   O     O_R   0.589610 0.481590 0.377590 -0.501363
O12   O     O_R   0.389900 0.481570 0.377660 -0.520868
O13   O     O_R   0.610100 0.518430 0.622340 -0.469119
O14   O     O_2   0.284821 0.694022 0.891302 -0.543298

loop_
_geom_bond_atom_site_label_1
_geom_bond_atom_site_label_2
_ccdc_geom_bond_type
C1    O1    A    
C36   H2    S    
C25   H16   S    
Cu1   O1    S    
Cu2   O7    S    
C38   O12   A    
C32   H35   S    
C32   H32   S    
C36   C37   S    
C11   H23   S    
C27   H20   S    
C34   H37   S    
Cu2   O12   S    
C30   C31   S    
C11   C14   A    
C33   H38   S    
C24   H14   S    
C3    C18   S    
C34   C35   S    
C27   H21   S    
C29   H27   S    
C4    C19   S    
C31   H30   S    
C2    O11   A    
C1    O8    A    
C7    C17   S    
C12   O9    A    
C27   O5    S    
C26   H19   S    
C20   H5    S    
C22   H10   S    
C21   H8    S    
C31   H31   S    
C8    C16   S    
C21   C22   S    
C18   O14   D    
N1    N3    A    
N5    O6    S    
C37   H40   S    
C35   H36   S    
C37   N6    D    
C24   C25   S    
C4    C6    A    
C19   O2    D    
C9    O3    S    
Cu1   Cu2   S    
C5    C7    A    
C6    C8    A    
C25   C26   S    
C16   N3    A    
Cu2   N5    S    
C14   C38   S    
C9    C11   A    
Cu1   O13   S    
C31   C32   S    
C23   C34   D    
C16   N2    A    
C13   H34   S    
C2    C15   S    
C26   H18   S    
Cu1   O9    S    
C3    C14   A    
C22   H9    S    
C29   H25   S    
C28   H24   S    
C30   O6    S    
C2    O13   A    
C1    C23   S    
N2    N4    A    
C13   C15   A    
C12   O7    A    
Cu2   O11   S    
C30   H29   S    
C19   H4    S    
C7    C9    A    
C5    H1    S    
C28   C29   S    
C25   H15   S    
Cu2   O8    S    
C3    C5    A    
C10   C13   A    
C24   O4    S    
C36   N5    D    
C20   O3    S    
N6    O5    S    
C17   N4    A    
C23   H39   S    
C4    C15   A    
C24   H13   S    
C18   H3    S    
C33   C35   D    
C17   N1    A    
C26   H17   S    
C30   H28   S    
Cu1   O10   S    
C29   H26   S    
C20   C21   S    
C10   O4    S    
C8    C10   A    
C38   O10   A    
C27   C28   S    
Cu1   N6    S    
C6    H12   S    
C12   C33   S    
C32   H33   S    
C20   H6    S    
C22   H11   S    
C21   H7    S    
C28   H22   S    
