data_mof_unit_30068.cif
_audit_creation_date              2013-03-05T16:24:53-0500
_audit_creation_method            fapswitch 2.2
_symmetry_space_group_name_H-M    P1
_symmetry_Int_Tables_number       1
_space_group_crystal_system       triclinic
_cell_length_a                    15.105523
_cell_length_b                    13.812765
_cell_length_c                    10.813523
_cell_angle_alpha                 89.937429
_cell_angle_beta                  90.343137
_cell_angle_gamma                 90.126645
_cell_volume                      2256.18390038

loop_
_atom_site_label
_atom_site_type_symbol
_atom_site_description
_atom_site_fract_x
_atom_site_fract_y
_atom_site_fract_z
_atom_type_partial_charge
O1    O     O_R   0.371460 0.581430 0.500010 -0.575745
O2    O     O_R   0.628540 0.581430 0.499990 -0.580687
O3    O     O_R   0.371470 0.418560 0.500010 -0.530001
O4    O     O_R   0.628530 0.418560 0.499990 -0.538025
C1    C     C_R   0.329635 0.499916 0.500234 0.911235
C2    C     C_R   0.670178 0.500108 0.500046 0.923331
O5    O     O_R   0.499990 0.581450 0.319660 -0.602531
O6    O     O_R   0.500010 0.581450 0.680340 -0.602872
O7    O     O_R   0.500010 0.418580 0.319660 -0.544795
O8    O     O_R   0.499990 0.418580 0.680340 -0.542127
C3    C     C_R   0.501522 0.499980 0.262136 0.821499
C4    C     C_R   0.501337 0.499929 0.737949 0.819901
Cu1   Cu    Cu3+1 0.500000 0.596430 0.500000 0.950442
Cu2   Cu    Cu3+1 0.500000 0.403570 0.500000 1.034056
C5    C     C_R   0.513447 0.586525 0.063693 0.112723
C6    C     C_R   0.513401 0.586536 0.936478 0.151104
C7    C     C_R   0.510312 0.499616 0.129315 -0.087288
C8    C     C_R   0.509744 0.499563 0.871057 -0.083577
C9    C     C_R   0.519401 0.411923 0.064809 -0.220304
C10   C     C_R   0.518520 0.411856 0.936037 -0.229075
H1    H     H_    0.522324 0.343228 0.113093 0.182060
H2    H     H_    0.520469 0.343095 0.888135 0.193526
C11   C     C_3   0.454325 0.673037 0.929602 -0.493886
C12   C     C_3   0.454307 0.672882 0.070030 -0.460883
H3    H     H_    0.488625 0.736992 0.889567 0.195418
H4    H     H_    0.388505 0.655864 0.110396 0.219387
H5    H     H_    0.388496 0.656280 0.888140 0.191713
H6    H     H_    0.488451 0.736779 0.110841 0.189976
C13   C     C_R   0.093774 0.575231 0.442525 -0.362743
C14   C     C_R   0.904695 0.568727 0.577125 -0.377386
H7    H     H_    0.057585 0.629210 0.390012 0.165715
H8    H     H_    0.940104 0.617934 0.637839 0.165258
C15   C     C_R   0.186152 0.575101 0.440814 0.375436
C16   C     C_R   0.812336 0.569204 0.574555 0.380935
C17   C     C_R   0.232613 0.500294 0.501913 -0.289419
C18   C     C_R   0.766865 0.500806 0.501116 -0.282724
C19   C     C_R   0.185998 0.427264 0.566232 0.242956
C20   C     C_R   0.813990 0.434321 0.427725 0.237559
C21   C     C_R   0.093300 0.431870 0.573008 0.399045
C22   C     C_R   0.906779 0.438625 0.425855 0.413183
C23   C     C_R   0.047838 0.504389 0.508040 -0.015918
C24   C     C_R   0.951431 0.503902 0.503607 -0.017960
C25   C     C_R   0.549244 0.106580 0.587351 -0.413805
C26   C     C_R   0.451170 0.106444 0.412156 -0.415531
H9    H     H_    0.585962 0.065418 0.655446 0.139581
H10   H     H_    0.413604 0.064852 0.345373 0.139875
C27   C     C_R   0.551359 0.209955 0.584703 0.577380
C28   C     C_R   0.449656 0.209917 0.414016 0.572923
N1    N     N_R   0.500000 0.258690 0.500000 -0.237654
C29   C     C_R   0.500169 0.054489 0.499829 0.044134
C30   C     C_R   0.541722 0.893224 0.405482 -0.295757
C31   C     C_R   0.458302 0.892955 0.594353 -0.294568
H11   H     H_    0.574885 0.930982 0.331068 0.133747
H12   H     H_    0.425029 0.930484 0.668617 0.135700
C32   C     C_R   0.541837 0.791193 0.407975 0.047342
C33   C     C_R   0.458072 0.790926 0.591866 0.046381
H13   H     H_    0.575421 0.752008 0.335616 0.120500
H14   H     H_    0.424101 0.751524 0.663868 0.118639
N2    N     N_R   0.500000 0.741330 0.500000 -0.169450
C34   C     C_R   0.500081 0.945660 0.499941 0.180510
O9    O     O_3   0.230903 0.640655 0.366874 -0.560968
C35   C     C_3   0.227085 0.733541 0.421091 0.107023
H15   H     H_    0.253309 0.732209 0.517694 0.138693
H16   H     H_    0.158085 0.761631 0.421350 0.121394
C36   C     C_3   0.283786 0.802951 0.345974 -0.782506
H17   H     H_    0.256101 0.810458 0.251067 0.233106
H18   H     H_    0.285178 0.875229 0.390890 0.191764
H19   H     H_    0.352469 0.775083 0.339706 0.266828
O10   O     O_3   0.766097 0.629091 0.653762 -0.559529
C37   C     C_3   0.771177 0.725385 0.610241 0.105402
H20   H     H_    0.750446 0.730500 0.511277 0.139135
H21   H     H_    0.839585 0.754394 0.620785 0.122588
C38   C     C_3   0.709158 0.788283 0.685823 -0.773123
H22   H     H_    0.730875 0.789246 0.784104 0.234212
H23   H     H_    0.709494 0.863476 0.649340 0.187664
H24   H     H_    0.640704 0.759176 0.680465 0.267981
O11   O     O_3   0.231459 0.357879 0.633715 -0.569035
C39   C     C_3   0.226951 0.268454 0.570661 0.139058
H25   H     H_    0.253363 0.275321 0.475261 0.166739
H26   H     H_    0.157882 0.240755 0.565262 0.177103
C40   C     C_3   0.282237 0.194246 0.640541 -0.797231
H27   H     H_    0.253516 0.181282 0.733422 0.239629
H28   H     H_    0.283231 0.124916 0.588645 0.189886
H29   H     H_    0.351147 0.220973 0.651941 0.258057
O12   O     O_3   0.768989 0.373140 0.347705 -0.574004
C41   C     C_3   0.770485 0.278139 0.396109 0.132807
H30   H     H_    0.748976 0.276549 0.494386 0.156325
H31   H     H_    0.837917 0.246513 0.389592 0.175205
C42   C     C_3   0.707133 0.215095 0.321468 -0.805052
H32   H     H_    0.729632 0.210522 0.224064 0.241133
H33   H     H_    0.704823 0.141077 0.361566 0.189675
H34   H     H_    0.639560 0.246493 0.323087 0.260001
O13   O     O_3   0.046716 0.361248 0.635908 -0.571187
C43   C     C_3   0.037983 0.389816 0.760421 0.078522
H35   H     H_    0.998586 0.457609 0.767422 0.140644
H36   H     H_    0.103873 0.401016 0.805132 0.165401
C44   C     C_3   0.989647 0.310424 0.830395 -0.802522
H37   H     H_    0.030828 0.243943 0.833626 0.246014
H38   H     H_    0.975725 0.334358 0.926215 0.201554
H39   H     H_    0.926085 0.293635 0.783149 0.251639
O14   O     O_3   0.954456 0.377271 0.350544 -0.573740
C45   C     C_3   0.966163 0.421587 0.233827 0.095668
H40   H     H_    0.969893 0.502336 0.238159 0.121407
H41   H     H_    0.910433 0.400886 0.171569 0.173346
C46   C     C_3   0.052489 0.386107 0.178472 -0.814155
H42   H     H_    0.050412 0.306301 0.166268 0.247530
H43   H     H_    0.063371 0.420994 0.087261 0.199697
H44   H     H_    0.108413 0.405365 0.240917 0.252335
O15   O     O_3   0.601336 0.266165 0.666578 -0.549567
C47   C     C_3   0.666966 0.215056 0.733037 -0.002201
H45   H     H_    0.708410 0.170310 0.670372 0.132866
H46   H     H_    0.635726 0.169115 0.805270 0.146309
C48   C     C_3   0.727618 0.287428 0.797429 -0.779055
H47   H     H_    0.688877 0.334500 0.860052 0.257558
H48   H     H_    0.777996 0.248110 0.853096 0.196735
H49   H     H_    0.761508 0.333437 0.727828 0.242905
O16   O     O_3   0.398909 0.266418 0.333442 -0.549312
C49   C     C_3   0.347983 0.214289 0.246279 -0.004132
H50   H     H_    0.299642 0.166139 0.293639 0.136262
H51   H     H_    0.391580 0.172063 0.183740 0.146181
C50   C     C_3   0.295714 0.285783 0.167788 -0.773544
H52   H     H_    0.341539 0.333455 0.115656 0.254719
H53   H     H_    0.252820 0.246114 0.101137 0.202361
H54   H     H_    0.253605 0.331224 0.228120 0.241342

loop_
_geom_bond_atom_site_label_1
_geom_bond_atom_site_label_2
_geom_bond_distance
_ccdc_geom_bond_type
C14   H8    1.083630 S    
O13   C43   1.410499 S    
C32   N2    1.366796 A    
C38   H22   1.110453 S    
C9    C10   1.392463 A    
C40   H29   1.109885 S    
C44   H37   1.110686 S    
C21   C23   1.401519 A    
O2    C2    1.288596 A    
O12   C41   1.412413 S    
O5    C3    1.286715 A    
C46   H43   1.110226 S    
O14   C45   1.414008 S    
O1    C1    1.289866 A    
C17   C19   1.413620 A    
C12   H4    1.112522 S    
O10   C37   1.412475 S    
C15   C17   1.411701 A    
C41   H31   1.111858 S    
Cu2   N1    2.001192 S    
C5    C6    1.375644 A    
C13   C15   1.395661 A    
C45   C46   1.520432 S    
C23   C24   1.456790 S    
O2    Cu1   1.953143 S    
C49   H50   1.113291 S    
C21   O13   1.382252 S    
C50   H54   1.109884 S    
C35   H16   1.112985 S    
C31   C34   1.405216 A    
C44   H38   1.109411 S    
C22   O14   1.382497 S    
C47   H45   1.113919 S    
C26   H10   1.080794 S    
C36   H18   1.110808 S    
C11   C12   1.518519 S    
C37   H20   1.115441 S    
C11   H5    1.112315 S    
C42   H33   1.110658 S    
C16   C18   1.409702 A    
O9    C35   1.412631 S    
O11   C39   1.412856 S    
C48   H49   1.111105 S    
C13   C23   1.393647 A    
C22   C24   1.402496 A    
Cu1   Cu2   2.663931 S    
C13   H7    1.083682 S    
C38   H23   1.110640 S    
C43   H35   1.113520 S    
C40   H28   1.110657 S    
C31   H12   1.083114 S    
C40   H27   1.110644 S    
C49   H51   1.113157 S    
C46   H44   1.110365 S    
C14   C16   1.395274 A    
C20   O12   1.384547 S    
C27   N1    1.373474 A    
O8    Cu2   1.961327 S    
C39   H25   1.112178 S    
C43   C44   1.519700 S    
C27   O15   1.395527 S    
C19   O11   1.384921 S    
C30   H11   1.083153 S    
C49   C50   1.520716 S    
C45   H41   1.111870 S    
O7    Cu2   1.960878 S    
C2    C18   1.460489 S    
C35   H15   1.115134 S    
O7    C3    1.284583 A    
C47   C48   1.520973 S    
O6    C4    1.286399 A    
C36   H19   1.109878 S    
C37   C38   1.521441 S    
C39   H26   1.111708 S    
C42   H34   1.110159 S    
C43   H36   1.114464 S    
C25   H9    1.081059 S    
C16   O10   1.384554 S    
C50   H52   1.110132 S    
O3    Cu2   1.952978 S    
O8    C4    1.285449 A    
O4    C2    1.288969 A    
C5    C12   1.493714 S    
C10   H2    1.082892 S    
C6    C11   1.494368 S    
C32   H13   1.081411 S    
C38   H24   1.109826 S    
O1    Cu1   1.952232 S    
C44   H39   1.109085 S    
C48   H47   1.109580 S    
C26   C29   1.397903 A    
C5    C7    1.394692 A    
C3    C7    1.443197 S    
C35   C36   1.521706 S    
C9    H1    1.083392 S    
C41   H30   1.113317 S    
C12   H6    1.111695 S    
O3    C1    1.290478 A    
C41   C42   1.521233 S    
C8    C10   1.405956 A    
C25   C29   1.397740 A    
C28   O16   1.396063 S    
Cu1   N2    2.001470 S    
C46   H42   1.110704 S    
C33   N2    1.366817 A    
C29   C34   1.503222 S    
C18   C20   1.411085 A    
C19   C21   1.404189 A    
O16   C49   1.410302 S    
C20   C22   1.403031 A    
C39   C40   1.521065 S    
C15   O9    1.385043 S    
C28   N1    1.373800 A    
C1    C17   1.465810 S    
C7    C9    1.405836 A    
C33   H14   1.080912 S    
C30   C32   1.409558 A    
C11   H3    1.111797 S    
O4    Cu2   1.952066 S    
C45   H40   1.117681 S    
C47   H46   1.112414 S    
C50   H53   1.110498 S    
O6    Cu1   1.960832 S    
C26   C28   1.429644 A    
O5    Cu1   1.961282 S    
C6    C8    1.395641 A    
C36   H17   1.110724 S    
C4    C8    1.444205 S    
C14   C24   1.393992 A    
C37   H21   1.112737 S    
C30   C34   1.405305 A    
C42   H32   1.110597 S    
O15   C47   1.411073 S    
C25   C27   1.428437 A    
C31   C33   1.409578 A    
C48   H48   1.109974 S    
