data_mof_unit_6751.cif
_audit_creation_date              2012-12-11T15:48:55-0500
_audit_creation_method            fapswitch 2.2
_symmetry_space_group_name_H-M    P1
_symmetry_Int_Tables_number       1
_space_group_crystal_system       triclinic
_cell_length_a                    10.95331
_cell_length_b                    10.993614
_cell_length_c                    18.800466
_cell_angle_alpha                 90.580538
_cell_angle_beta                  90.295969
_cell_angle_gamma                 60.406086
_cell_volume                      1968.45473778

loop_
_atom_site_label
_atom_site_type_symbol
_atom_type_description
_atom_site_fract_x
_atom_site_fract_y
_atom_site_fract_z
_atom_type_partial_charge
C1    C     C_R   0.239366 0.645378 0.610017 0.541054
C2    C     C_R   0.606765 0.093043 0.699278 -0.174720
C3    C     C_R   0.621803 0.062641 0.771054 -0.175650
C4    C     C_R   0.651208 0.618173 0.602962 0.542757
C5    C     C_3   0.932746 0.104975 0.785024 -0.274288
C6    C     C_3   0.924760 0.120086 0.704926 -0.275054
C7    C     C_R   0.681632 0.151088 0.668139 0.011610
C8    C     C_R   0.167667 0.676062 0.832958 0.022284
C9    C     C_R   0.148489 0.579597 0.792709 0.033020
C10   C     C_R   0.166050 0.570295 0.719687 -0.016616
C11   C     C_R   0.197412 0.771467 0.723612 -0.180105
C12   C     C_3   0.730671 0.513573 0.799062 -0.247379
C13   C     C_R   0.198402 0.768515 0.797363 -0.191040
C14   C     C_3   0.214398 0.424925 0.800015 -0.126728
C15   C     C_3   0.239099 0.413881 0.719678 -0.241126
C16   C     C_R   0.630571 0.224813 0.601283 0.538414
C17   C     C_R   0.191519 0.665712 0.683433 0.014831
C18   C     C_R   0.657740 0.659785 0.166760 0.009645
C19   C     C_R   0.764790 0.548848 0.204960 -0.006580
C20   C     C_R   0.758159 0.536450 0.277252 0.047321
C21   C     C_R   0.528452 0.743394 0.277263 -0.162537
C22   C     C_R   0.534107 0.752077 0.202883 -0.172349
C23   C     C_3   0.693907 0.665346 0.815735 0.061923
C24   C     C_3   0.916625 0.508421 0.208484 -0.216377
C25   C     C_3   0.911511 0.489160 0.287330 0.011254
C26   C     C_R   0.645505 0.641029 0.315191 -0.000709
C27   C     C_R   0.633984 0.188054 0.168853 0.020766
C28   C     C_R   0.221763 0.648176 0.401755 0.553813
C29   C     C_R   0.521031 0.196366 0.207440 0.018923
C30   C     C_R   0.517985 0.208925 0.279986 0.025516
C31   C     C_R   0.722167 0.236320 0.277110 -0.162054
C32   C     C_R   0.725055 0.225206 0.202947 -0.163086
C33   C     C_3   0.462145 0.099018 0.210554 -0.265023
C34   C     C_3   0.666179 0.640791 0.679425 0.050159
C35   C     C_3   0.457970 0.114939 0.290603 -0.283095
C36   C     C_R   0.626091 0.214083 0.316454 0.021195
C37   C     C_R   0.125503 0.688176 0.187162 0.015640
C38   C     C_R   0.068863 0.806918 0.231162 0.041222
C39   C     C_R   0.081287 0.797009 0.303427 0.006069
C40   C     C_R   0.639065 0.618806 0.390643 0.548871
C41   C     C_R   0.193340 0.545045 0.291454 -0.154764
C42   C     C_R   0.180874 0.556256 0.217756 -0.178291
C43   C     C_3   0.088147 0.932151 0.229179 -0.260443
C44   C     C_3   0.097065 0.924827 0.309356 -0.274868
C45   C     C_3   0.775980 0.686732 0.691317 -0.252732
C46   C     C_R   0.154590 0.665527 0.334109 0.008744
C47   C     C_R   0.726359 0.045191 0.888739 0.546380
C48   C     C_R   0.718662 0.683926 0.890867 0.535022
C49   C     C_R   0.115904 0.707612 0.905333 0.531922
C50   C     C_R   0.672781 0.111318 0.102366 0.553227
C51   C     C_R   0.695694 0.688993 0.097066 0.542822
C52   C     C_R   0.611584 0.238737 0.392231 0.548970
C53   C     C_R   0.091653 0.711185 0.113053 0.543637
C54   C     C_3   0.538935 0.760976 0.793506 -0.242716
C55   C     C_3   0.525302 0.752794 0.712522 -0.231908
C56   C     C_3   0.712422 0.500178 0.718878 -0.213660
C57   C     C_3   0.794894 0.697070 0.771607 -0.212927
C58   C     C_3   0.344095 0.355930 0.849140 -0.248298
C59   C     C_3   0.456567 0.398930 0.838500 -0.401981
C60   C     C_3   0.036815 0.306018 0.379161 -0.276557
C61   C     C_R   0.713605 0.085967 0.814028 0.008386
C62   C     C_R   0.780990 0.152882 0.784030 0.001556
C63   C     C_R   0.769546 0.179350 0.711199 0.009545
Cr1   Cr    Cr6+3 0.392960 0.397920 0.502240 0.996759
Cr2   Cr    Cr6+3 0.398340 0.708480 0.501250 0.995887
Cr3   Cr    Cr6+3 0.708670 0.393570 0.496460 0.986550
Cr4   Cr    Cr6+3 0.937650 0.938540 0.007610 1.002831
Cr5   Cr    Cr6+3 0.625330 0.937370 0.994520 0.988465
Cr6   Cr    Cr6+3 0.937940 0.625230 0.001190 0.990695
H1    H     H_    0.496853 0.870854 0.810338 0.123304
H2    H     H_    0.974289 0.018777 0.675607 0.146620
H3    H     H_    0.213110 0.851001 0.698691 0.134213
H4    H     H_    0.472346 0.725040 0.820380 0.111928
H5    H     H_    0.214451 0.845127 0.826388 0.127488
H6    H     H_    0.134604 0.395118 0.815110 0.119431
H7    H     H_    0.350406 0.365412 0.702983 0.172405
H8    H     H_    0.177480 0.373367 0.690873 0.109666
H9    H     H_    0.435363 0.819245 0.305130 0.129898
H10   H     H_    0.447553 0.836508 0.174959 0.118561
H11   H     H_    0.929940 0.599298 0.195914 0.148099
H12   H     H_    0.814473 0.418939 0.697346 0.141370
H13   H     H_    0.984702 0.411285 0.177628 0.146281
H14   H     H_    0.446075 0.721404 0.700947 0.146794
H15   H     H_    0.932242 0.561850 0.320140 0.139803
H16   H     H_    0.797169 0.257337 0.303768 0.144435
H17   H     H_    0.806081 0.232062 0.173476 0.119279
H18   H     H_    0.539312 0.991852 0.192550 0.168306
H19   H     H_    0.356225 0.144337 0.185959 0.133937
H20   H     H_    0.349556 0.171835 0.312242 0.147667
H21   H     H_    0.531148 0.016836 0.318659 0.138300
H22   H     H_    0.245255 0.441292 0.314005 0.161393
H23   H     H_    0.903541 0.618137 0.785240 0.136088
H24   H     H_    0.215797 0.463181 0.185081 0.130795
H25   H     H_    0.994268 0.025831 0.209258 0.145754
H26   H     H_    0.490142 0.857111 0.688560 0.116744
H27   H     H_    0.188413 0.909734 0.203428 0.135772
H28   H     H_    0.200444 0.905857 0.328972 0.158881
H29   H     H_    0.005393 0.013196 0.336028 0.130885
H30   H     H_    0.783646 0.799800 0.785731 0.120200
H31   H     H_    0.741352 0.789807 0.666092 0.121899
H32   H     H_    0.841035 0.438836 0.814293 0.130015
H33   H     H_    0.662020 0.485156 0.829649 0.112379
H34   H     H_    0.877967 0.609892 0.666763 0.125210
H35   H     H_    0.633354 0.466044 0.709877 0.123263
H36   H     H_    0.494520 0.382108 0.782904 0.149446
H37   H     H_    0.419841 0.508590 0.854091 0.136876
H38   H     H_    0.546198 0.336652 0.874294 0.162294
H39   H     H_    0.307632 0.379446 0.905198 0.160675
H40   H     H_    0.391535 0.241642 0.842071 0.167915
H41   H     H_    0.989394 0.268696 0.274923 0.241282
H42   H     H_    0.141482 0.210463 0.381420 0.113534
H43   H     H_    0.960735 0.282009 0.405249 0.175394
H44   H     H_    0.042879 0.391211 0.408417 0.155679
H45   H     H_    0.532016 0.076204 0.668875 0.129675
H46   H     H_    0.560647 0.020696 0.793338 0.125282
H47   H     H_    0.989422 0.997947 0.804586 0.166102
H48   H     H_    0.956529 0.180278 0.813078 0.125860
H49   H     H_    0.956772 0.194936 0.685538 0.124000
N1    N     N_2   0.998126 0.342285 0.305615 -0.529644
O1    O     O_R   0.507380 0.255700 0.581440 -0.533677
O2    O     O_R   0.837170 0.593410 0.915250 -0.529653
O3    O     O_R   0.065200 0.635530 0.931570 -0.506916
O4    O     O_R   0.280320 0.527350 0.578930 -0.503984
O5    O     O_R   0.068260 0.828890 0.091840 -0.518446
O6    O     O_R   0.798870 0.057410 0.079340 -0.503219
O7    O     O_R   0.584930 0.080350 0.076780 -0.521863
O8    O     O_R   0.626960 0.809650 0.067060 -0.507091
O9    O     O_R   0.816040 0.596610 0.076510 -0.524063
O10   O     O_R   0.045610 0.638500 0.081060 -0.514330
O11   O     O_3   0.833640 0.833710 0.001100 -0.260682
O12   O     O_R   0.524480 0.695810 0.424040 -0.507739
O13   O     O_R   0.260510 0.739590 0.584590 -0.536180
O14   O     O_R   0.532300 0.695080 0.573820 -0.509947
O15   O     O_R   0.744840 0.503500 0.576370 -0.532774
O16   O     O_R   0.699120 0.276560 0.571960 -0.502386
O17   O     O_R   0.498940 0.256500 0.419860 -0.521440
O18   O     O_R   0.272500 0.528080 0.429150 -0.515757
O19   O     O_R   0.252060 0.740380 0.423010 -0.524495
O20   O     O_R   0.736390 0.504290 0.414790 -0.522509
O21   O     O_R   0.691300 0.277290 0.422170 -0.519157
O22   O     O_3   0.499990 0.499990 0.499980 -0.249111
O23   O     O_R   0.089400 0.825690 0.930570 -0.536454
O24   O     O_R   0.818460 0.054440 0.929850 -0.499869
O25   O     O_R   0.606060 0.077150 0.915510 -0.539995
O26   O     O_R   0.646550 0.806680 0.917570 -0.523726

loop_
_geom_bond_atom_site_label_1
_geom_bond_atom_site_label_2
_ccdc_geom_bond_type
C21   C26   A    
Cr1   O17   S    
C34   C56   S    
C8    C13   A    
C31   H16   S    
C57   H23   S    
C29   C33   S    
C27   C29   A    
C42   H24   S    
C11   C13   A    
C41   C42   A    
C2    C7    A    
C43   C44   S    
C1    O13   A    
Cr4   O24   S    
Cr4   O5    S    
C56   H12   S    
Cr3   O22   S    
C15   H8    S    
C12   C23   S    
C45   C57   S    
C37   C38   A    
C30   C35   S    
C51   O9    A    
C33   H19   S    
C22   H10   S    
C10   C15   S    
Cr4   O6    S    
C5    C6    S    
C20   C25   S    
C10   C17   A    
C58   H40   S    
C40   O20   A    
C47   O24   A    
C43   H25   S    
C60   N1    S    
C18   C19   A    
C37   C42   A    
C24   H13   S    
C45   H34   S    
C52   O21   A    
Cr3   O15   S    
C44   H29   S    
C24   H11   S    
Cr3   O20   S    
C19   C20   A    
Cr6   O9    S    
C8    C9    A    
C21   H9    S    
C25   H15   S    
C41   C46   A    
Cr5   O25   S    
C50   O7    A    
C9    C10   A    
C31   C36   A    
C36   C52   S    
C27   C50   S    
C37   C53   S    
C15   H7    S    
C34   C55   S    
C21   C22   A    
C48   O26   A    
C60   H44   S    
C25   N1    S    
Cr2   O12   S    
C18   C51   S    
Cr1   O18   S    
C3    C61   A    
C6    H2    S    
C14   C58   S    
C4    C34   S    
C59   H37   S    
C28   O19   A    
C24   C25   S    
C56   H35   S    
C55   H26   S    
C48   O2    A    
C50   O6    A    
C11   H3    S    
Cr6   O11   S    
C58   C59   S    
C47   O25   A    
C45   H31   S    
C59   H38   S    
C5    H48   S    
C6    C63   S    
C9    C14   S    
C1    O4    A    
C12   H33   S    
C29   C30   A    
C60   H43   S    
C54   H4    S    
Cr2   O22   S    
C44   H28   S    
C31   C32   A    
C54   H1    S    
Cr6   O2    S    
C32   H17   S    
C49   O23   A    
C62   C63   A    
C43   H27   S    
C34   C45   S    
C59   H36   S    
Cr5   O11   S    
Cr5   O8    S    
C7    C63   A    
C12   C56   S    
C39   C46   A    
Cr2   O19   S    
C35   H20   S    
C7    C16   S    
C41   H22   S    
C40   O12   A    
C5    H47   S    
C52   O17   A    
Cr4   O11   S    
C53   O10   A    
C55   H14   S    
Cr5   O7    S    
Cr2   O13   S    
C23   C54   S    
C4    O15   A    
C16   O16   A    
C23   C57   S    
C54   C55   S    
C11   C17   A    
C23   C48   S    
C27   C32   A    
C18   C22   A    
C28   O18   A    
C53   O5    A    
H41   N1    S    
C47   C61   S    
C39   C44   S    
Cr1   O4    S    
C1    C17   S    
Cr1   O1    S    
C30   C36   A    
C28   C46   S    
C51   O8    A    
C14   H6    S    
C16   O1    A    
C19   C24   S    
C33   H18   S    
C38   C43   S    
C60   H42   S    
C3    H46   S    
C2    H45   S    
C26   C40   S    
C38   C39   A    
C20   C26   A    
Cr6   O3    S    
C49   O3    A    
C33   C35   S    
C5    C62   S    
C2    C3    A    
C58   H39   S    
C61   C62   A    
Cr3   O16   S    
C35   H21   S    
C12   H32   S    
Cr3   O21   S    
C13   H5    S    
Cr6   O10   S    
Cr1   O22   S    
C14   C15   S    
Cr4   O23   S    
C8    C49   S    
C6    H49   S    
Cr2   O14   S    
Cr5   O26   S    
C4    O14   A    
C57   H30   S    
