data_mof_unit_48522.cif
_audit_creation_date              2012-10-26T21:04:51-0400
_audit_creation_method            fapswitch 2.2
_symmetry_space_group_name_H-M    P1
_symmetry_Int_Tables_number       1
_space_group_crystal_system       triclinic
_cell_length_a                    11.691737
_cell_length_b                    12.367254
_cell_length_c                    13.143862
_cell_angle_alpha                 116.715198
_cell_angle_beta                  77.813318
_cell_angle_gamma                 101.039152
_cell_volume                      1649.21516563

loop_
_atom_site_label
_atom_site_type_symbol
_atom_type_description
_atom_site_fract_x
_atom_site_fract_y
_atom_site_fract_z
_atom_type_partial_charge
C1    C     C_R   0.509378 0.855085 0.286498 0.570485
C2    C     C_R   0.324784 0.489673 0.155662 -0.128120
C3    C     C_R   0.361286 0.614160 0.189519 0.243723
C4    C     C_R   0.715659 0.999549 0.499768 0.525570
C5    C     C_R   0.502513 0.351066 0.869700 -0.112627
C6    C     C_R   0.378031 0.192035 0.912368 -0.127159
C7    C     C_R   0.514058 0.773713 0.162886 0.021742
C8    C     C_R   0.692074 0.349489 0.334406 -0.166748
C9    C     C_R   0.347767 0.764698 0.652046 0.409123
C10   C     C_R   0.326280 0.676478 0.694904 -0.161552
C11   C     C_R   0.388188 0.575380 0.641532 -0.179856
C12   C     C_R   0.458173 0.228591 0.835365 0.000644
C13   C     C_R   0.468169 0.555925 0.540037 -0.025958
C14   C     C_R   0.495832 0.653301 0.505543 0.139743
C15   C     C_R   0.527734 0.447876 0.476495 -0.007636
C16   C     C_R   0.483045 0.145151 0.713640 0.543242
C17   C     C_R   0.624898 0.448040 0.391247 0.007300
C18   C     C_R   0.654761 0.546554 0.362972 -0.163923
C19   C     C_R   0.590332 0.645741 0.417241 -0.093570
C20   C     C_R   0.495853 0.338274 0.492191 0.382898
C21   C     C_R   0.662864 0.250236 0.361181 0.001092
C22   C     C_R   0.284347 0.000372 0.500136 0.581184
C23   C     C_R   0.588859 0.813885 0.085170 -0.148804
C24   C     C_1   0.837359 0.999066 0.499763 -0.022162
C25   C     C_1   0.940001 0.999348 0.499709 -0.041402
C26   C     C_1   0.060042 0.000083 0.499704 -0.033712
C27   C     C_1   0.162677 0.000558 0.499821 0.004932
C28   C     C_R   0.337215 0.278986 0.020530 -0.129701
C29   C     C_R   0.614233 0.734148 0.970552 -0.140766
C30   C     C_R   0.571636 0.611702 0.933033 -0.119705
C31   C     C_R   0.496949 0.567110 0.009181 -0.010377
C32   C     C_R   0.457330 0.652311 0.122209 0.061097
C33   C     C_R   0.459052 0.441101 0.976100 0.016754
C34   C     C_R   0.374888 0.403239 0.051877 0.016894
Cu1   Cu    Cu3+1 0.526510 0.098270 0.475420 0.999277
Cu2   Cu    Cu3+1 0.473490 0.901730 0.524580 1.021933
H1    H     H_    0.342652 0.097486 0.887087 0.153593
H2    H     H_    0.630979 0.906630 0.113699 0.128030
H3    H     H_    0.596844 0.555174 0.843199 0.114475
H4    H     H_    0.671323 0.766453 0.911175 0.125031
H5    H     H_    0.715730 0.174837 0.318935 0.124303
H6    H     H_    0.329079 0.342232 0.530269 0.298956
H7    H     H_    0.227734 0.859509 0.768133 0.287115
H8    H     H_    0.233576 0.657691 0.318761 0.319966
H9    H     H_    0.728528 0.546705 0.297254 0.113486
H10   H     H_    0.767541 0.349773 0.270370 0.104576
H11   H     H_    0.375079 0.516619 0.684512 0.173763
H12   H     H_    0.263179 0.687201 0.771209 0.097289
H13   H     H_    0.620549 0.716420 0.389584 0.173565
H14   H     H_    0.254455 0.460351 0.209320 0.091983
H15   H     H_    0.272716 0.249518 0.078043 0.109766
H16   H     H_    0.569610 0.373499 0.810099 0.120645
N1    N     N_R   0.566700 0.246290 0.438210 -0.201835
N2    N     N_R   0.434010 0.754320 0.561170 -0.201997
O1    O     O_R   0.533340 0.972510 0.318140 -0.522658
O2    O     O_3   0.286386 0.865280 0.703660 -0.664566
O3    O     O_3   0.297517 0.699484 0.281993 -0.683177
O4    O     O_R   0.488570 0.806530 0.359650 -0.484592
O5    O     O_R   0.685190 0.083000 0.479260 -0.510288
O6    O     O_R   0.640410 0.917020 0.520770 -0.527125
O7    O     O_R   0.511430 0.193470 0.640350 -0.468784
O8    O     O_R   0.466660 0.027490 0.681860 -0.459447
O9    O     O_R   0.359590 0.082980 0.479230 -0.448122
O10   O     O_R   0.314810 0.917000 0.520740 -0.425390
O11   O     O_3   0.390869 0.317034 0.553937 -0.672411

loop_
_geom_bond_atom_site_label_1
_geom_bond_atom_site_label_2
_ccdc_geom_bond_type
H6    O11   S    
C31   C33   A    
C5    H16   S    
C29   C30   A    
C9    N2    A    
Cu1   N1    S    
C23   H2    S    
C9    C10   A    
C19   H13   S    
C11   H11   S    
C8    C17   A    
C7    C23   A    
H8    O3    S    
H7    O2    S    
C4    O6    A    
C8    C21   A    
C1    O1    A    
C6    H1    S    
C28   C34   A    
C18   H9    S    
Cu1   O7    S    
C9    O2    S    
C1    C7    S    
C13   C14   A    
C25   C26   S    
C21   N1    A    
C11   C13   A    
C30   C31   A    
C2    C34   A    
C26   C27   T    
C3    C32   A    
C1    O4    A    
Cu2   O8    S    
C23   C29   A    
C29   H4    S    
Cu1   O5    S    
C14   N2    A    
C33   C34   A    
C30   H3    S    
C2    C3    A    
Cu2   O4    S    
C22   C27   S    
C13   C15   A    
C10   H12   S    
C15   C20   A    
C4    C24   S    
C28   H15   S    
C8    H10   S    
Cu2   N2    S    
C10   C11   A    
Cu1   O1    S    
C6    C12   A    
C3    O3    S    
C20   O11   S    
C21   H5    S    
C24   C25   T    
C4    O5    A    
C5    C12   A    
C17   C18   A    
C18   C19   A    
C16   O7    A    
C15   C17   A    
Cu1   O9    S    
C7    C32   A    
C2    H14   S    
C22   O9    A    
Cu2   O10   S    
C22   O10   A    
C14   C19   A    
C16   O8    A    
C31   C32   A    
C6    C28   A    
C12   C16   S    
C20   N1    A    
Cu2   O6    S    
Cu1   Cu2   S    
C5    C33   A    
