data_mof_unit_68045.cif
_audit_creation_date              2013-03-05T15:43:42-0500
_audit_creation_method            fapswitch 2.2
_symmetry_space_group_name_H-M    P1
_symmetry_Int_Tables_number       1
_space_group_crystal_system       triclinic
_cell_length_a                    14.539485
_cell_length_b                    16.141698
_cell_length_c                    7.043054
_cell_angle_alpha                 90.626146
_cell_angle_beta                  78.623936
_cell_angle_gamma                 90.146859
_cell_volume                      1620.37697702

loop_
_atom_site_label
_atom_site_type_symbol
_atom_site_description
_atom_site_fract_x
_atom_site_fract_y
_atom_site_fract_z
_atom_type_partial_charge
O1    O     O_R   0.337080 0.165770 0.524980 -0.571982
O2    O     O_R   0.662920 0.834230 0.475020 -0.553468
O3    O     O_R   0.662920 0.665770 0.475020 -0.568100
O4    O     O_R   0.337080 0.334230 0.524980 -0.556462
O5    O     O_R   0.348340 0.341430 0.191390 -0.615845
O6    O     O_R   0.651660 0.658570 0.808610 -0.580366
O7    O     O_R   0.651660 0.841430 0.808610 -0.599754
O8    O     O_R   0.348340 0.158570 0.191390 -0.612639
O9    O     O_R   0.165780 0.339950 0.082750 -0.531825
O10   O     O_R   0.834220 0.660050 0.917250 -0.537447
O11   O     O_R   0.834220 0.839950 0.917250 -0.542617
O12   O     O_R   0.165780 0.160050 0.082750 -0.548563
C1    C     C_R   0.369683 0.364040 0.354621 0.771739
C2    C     C_R   0.629996 0.636085 0.645451 0.875052
C3    C     C_R   0.632338 0.865256 0.645956 0.761777
C4    C     C_R   0.369360 0.135817 0.353536 0.851469
O13   O     O_3   0.191540 0.250000 0.407620 -0.282436
O14   O     O_3   0.808460 0.750000 0.592380 -0.277375
V1    V     V_3+5 0.262540 0.250000 0.108780 1.127587
V2    V     V_3+5 0.737460 0.750000 0.891220 1.166418
O15   O     O_R   0.154530 0.164290 0.756910 -0.566842
O16   O     O_R   0.845470 0.835710 0.243090 -0.559648
O17   O     O_R   0.845470 0.664290 0.243090 -0.568184
O18   O     O_R   0.154530 0.335710 0.756910 -0.563499
C5    C     C_R   0.135342 0.131393 0.932054 0.885655
C6    C     C_R   0.865803 0.867411 0.066760 0.917609
C7    C     C_R   0.863838 0.631580 0.066494 0.908235
C8    C     C_R   0.133211 0.366695 0.935378 0.907729
V3    V     V_3+5 0.240320 0.250000 0.616280 1.122374
V4    V     V_3+5 0.759680 0.750000 0.383720 1.149604
O19   O     O_3   0.311330 0.250000 0.867310 -0.314439
O20   O     O_3   0.688670 0.750000 0.132690 -0.307067
C9    C     C_3   0.066063 0.522664 0.089206 0.308129
C10   C     C_3   0.927608 0.474280 0.914595 0.305331
C11   C     C_3   0.919704 0.029109 0.964459 0.245621
C12   C     C_3   0.081507 0.967021 0.032317 0.244173
C13   C     C_3   0.033450 0.568851 0.923344 0.266228
C14   C     C_3   0.959486 0.427931 0.081749 0.278527
C15   C     C_3   0.973379 0.062276 0.119691 0.262622
C16   C     C_3   0.029179 0.934241 0.875103 0.281369
C17   C     C_3   0.929940 0.558416 0.027457 -0.319655
C18   C     C_3   0.063835 0.438056 0.977266 -0.328234
C19   C     C_3   0.067203 0.058324 0.968614 -0.288086
C20   C     C_3   0.935475 0.938554 0.026662 -0.265609
C21   C     C_3   0.962781 0.510768 0.191672 0.294020
C22   C     C_3   0.031161 0.486272 0.812711 0.286484
C23   C     C_3   0.013406 0.024157 0.813664 0.278502
C24   C     C_3   0.987640 0.972549 0.180595 0.284890
C25   C     C_2   0.580976 0.289258 0.599529 0.307866
C26   C     C_2   0.468364 0.461713 0.879798 0.395985
C27   C     C_2   0.428033 0.830140 0.818493 0.276653
C28   C     C_2   0.483592 0.932610 0.364110 0.369921
C29   C     C_2   0.567083 0.346664 0.742176 0.265185
C30   C     C_2   0.515065 0.424393 0.719466 0.298871
C31   C     C_2   0.427008 0.840327 0.630684 0.232410
C32   C     C_2   0.440925 0.925827 0.549678 0.230858
O21   O     O_3   0.415312 0.531555 0.869650 -0.627974
C33   C     C_3   0.369218 0.550972 0.059465 0.161906
H1    H     H_    0.331086 0.610275 0.057464 0.094920
H2    H     H_    0.419526 0.559199 0.158861 -0.002440
H3    H     H_    0.316436 0.502709 0.115670 0.071610
O22   O     O_3   0.630445 0.217574 0.613008 -0.661100
C34   C     C_3   0.624790 0.168459 0.450009 0.170596
H4    H     H_    0.665808 0.196546 0.316041 -0.019753
H5    H     H_    0.550794 0.157889 0.435573 0.074240
H6    H     H_    0.655237 0.106792 0.467985 0.086230
O23   O     O_3   0.511931 0.008526 0.286097 -0.680865
C35   C     C_3   0.562938 0.994338 0.097619 0.111602
H7    H     H_    0.585807 0.054932 0.031671 0.080168
H8    H     H_    0.518844 0.963791 0.004855 0.032959
H9    H     H_    0.627308 0.957349 0.099667 0.088160
O24   O     O_3   0.440892 0.753053 0.889914 -0.644201
C36   C     C_3   0.452718 0.764957 0.080200 0.235400
H10   H     H_    0.513012 0.806437 0.088103 0.063936
H11   H     H_    0.469605 0.704358 0.136631 0.094936
H12   H     H_    0.387240 0.789728 0.171639 -0.004330
O25   O     O_3   0.504010 0.455000 0.541266 -0.669595
C37   C     C_3   0.590479 0.458458 0.409097 0.103999
H13   H     H_    0.601686 0.400995 0.320160 0.044192
H14   H     H_    0.650888 0.469618 0.480924 -0.045286
H15   H     H_    0.587986 0.510552 0.308796 0.094332
O26   O     O_3   0.601564 0.336419 0.911293 -0.670336
C38   C     C_3   0.560803 0.266176 0.013472 0.216299
H16   H     H_    0.608763 0.212362 0.980395 0.084831
H17   H     H_    0.490505 0.249493 0.983948 0.071624
H18   H     H_    0.551320 0.279338 0.170739 -0.027423
O27   O     O_3   0.432956 0.997205 0.664885 -0.664148
C39   C     C_3   0.346210 0.000141 0.796239 0.177510
H19   H     H_    0.352590 0.972211 0.936209 0.050493
H20   H     H_    0.288297 0.970615 0.738116 0.011699
H21   H     H_    0.327005 0.065932 0.827567 0.120846
O28   O     O_3   0.445177 0.772686 0.505561 -0.654983
C40   C     C_3   0.365240 0.721373 0.530321 0.215863
H22   H     H_    0.305067 0.755149 0.492286 -0.070385
H23   H     H_    0.346836 0.696051 0.678445 0.106132
H24   H     H_    0.380278 0.667006 0.431924 0.040873
O29   O     O_3   0.065330 0.645001 0.838144 -0.622851
C41   C     C_3   0.163935 0.650333 0.804625 0.222082
H25   H     H_    0.188705 0.666605 0.651607 -0.010286
H26   H     H_    0.201437 0.593319 0.832176 0.044600
H27   H     H_    0.184950 0.700102 0.896501 0.019791
O30   O     O_3   0.920667 0.354154 0.170945 -0.637341
C42   C     C_3   0.821214 0.354385 0.198537 0.188980
H28   H     H_    0.788860 0.415555 0.185579 0.037208
H29   H     H_    0.791387 0.330033 0.344289 0.020169
H30   H     H_    0.797628 0.312990 0.091281 0.054976
O31   O     O_3   0.960483 0.126625 0.259544 -0.613603
C43   C     C_3   0.869275 0.157725 0.287153 0.254708
H31   H     H_    0.815259 0.108301 0.301752 -0.008176
H32   H     H_    0.864531 0.198177 0.166028 0.057335
H33   H     H_    0.855892 0.196055 0.421201 0.059481
O32   O     O_3   0.043617 0.863958 0.750964 -0.603997
C44   C     C_3   0.139411 0.848974 0.677248 0.314056
H34   H     H_    0.178853 0.832316 0.788915 0.019771
H35   H     H_    0.175320 0.900786 0.594714 -0.054652
H36   H     H_    0.144240 0.795558 0.576318 0.033013
O33   O     O_3   0.138068 0.552787 0.179160 -0.664852
C45   C     C_3   0.111869 0.630552 0.269983 0.203076
H37   H     H_    0.067523 0.622036 0.415651 0.159635
H38   H     H_    0.073301 0.671649 0.187701 0.045718
H39   H     H_    0.176345 0.664011 0.288293 -0.021185
O34   O     O_3   0.855501 0.443925 0.825076 -0.648836
C46   C     C_3   0.882823 0.366790 0.731955 0.195759
H40   H     H_    0.918553 0.324455 0.817264 0.034473
H41   H     H_    0.930007 0.376191 0.589652 0.148231
H42   H     H_    0.819087 0.334222 0.705852 0.060405
O35   O     O_3   0.829434 0.051404 0.935329 -0.672478
C47   C     C_3   0.828955 0.130347 0.851074 0.187411
H43   H     H_    0.801623 0.124705 0.715768 0.059138
H44   H     H_    0.898131 0.162474 0.820419 0.059390
H45   H     H_    0.777493 0.170162 0.947512 0.028994
O36   O     O_3   0.166880 0.935909 0.068622 -0.680904
C48   C     C_3   0.152028 0.856973 0.154272 0.129672
H46   H     H_    0.103340 0.817130 0.090143 0.064193
H47   H     H_    0.122424 0.862887 0.309551 0.100352
H48   H     H_    0.220363 0.824561 0.137244 0.028421
O37   O     O_3   0.934337 0.524270 0.393433 -0.596515
C49   C     C_3   0.836034 0.518379 0.454753 0.412670
H49   H     H_    0.794359 0.533669 0.344940 -0.102647
H50   H     H_    0.814099 0.560418 0.580910 0.093210
H51   H     H_    0.815206 0.455299 0.500155 0.018003
O38   O     O_3   0.063107 0.475008 0.610918 -0.593631
C50   C     C_3   0.162029 0.481833 0.556846 0.394140
H52   H     H_    0.187055 0.436194 0.439498 0.094584
H53   H     H_    0.201637 0.472506 0.673799 -0.061232
H54   H     H_    0.183054 0.543291 0.500012 0.003521
O39   O     O_3   0.024373 0.058198 0.626548 -0.629139
C51   C     C_3   0.115221 0.044937 0.515397 0.411558
H55   H     H_    0.170593 0.035030 0.600486 -0.096533
H56   H     H_    0.135198 0.099417 0.423011 0.119719
H57   H     H_    0.115816 0.992129 0.417427 0.086850
O40   O     O_3   0.969354 0.940933 0.370956 -0.624705
C52   C     C_3   0.880171 0.966966 0.473459 0.398546
H58   H     H_    0.856939 0.924744 0.596408 0.101111
H59   H     H_    0.824723 0.968452 0.385622 -0.076205
H60   H     H_    0.883975 0.029515 0.532186 0.093526

loop_
_geom_bond_atom_site_label_1
_geom_bond_atom_site_label_2
_geom_bond_distance
_ccdc_geom_bond_type
O10   C7    1.300636 A    
C50   H54   1.093919 S    
C31   C32   1.497131 S    
C34   H5    1.112994 S    
C9    O33   1.409322 S    
C40   H22   1.110199 S    
C16   C23   1.549508 S    
C9    C21   1.544901 S    
C36   H10   1.111464 S    
O39   C51   1.411829 S    
C51   H57   1.089781 S    
O27   C39   1.409926 S    
C11   C23   1.555099 S    
C47   H43   1.105294 S    
C5    C19   1.529362 S    
C13   O29   1.410418 S    
O29   C41   1.408842 S    
C6    C20   1.520840 S    
C46   H40   1.109856 S    
C16   O32   1.415173 S    
C27   C31   1.337706 D    
O25   C37   1.410426 S    
C15   O31   1.410691 S    
O22   C34   1.403648 S    
C9    C18   1.572928 S    
C51   H56   1.103515 S    
C14   C18   1.559161 S    
C12   O36   1.410523 S    
C37   H14   1.110089 S    
C46   H41   1.108926 S    
C33   H2    1.114542 S    
C50   H52   1.107982 S    
C41   H25   1.101245 S    
O13   V3    1.753262 S    
C43   H31   1.109306 S    
C18   C22   1.553517 S    
O4    C1    1.297288 A    
O18   V3    1.985568 S    
C14   C21   1.543137 S    
C45   H37   1.108536 S    
O9    V1    2.058883 S    
O10   V2    2.058884 S    
C35   H7    1.109190 S    
C48   H48   1.108841 S    
O31   C43   1.395693 S    
C10   C22   1.547437 S    
O17   C7    1.323783 A    
C52   H59   1.109239 S    
O5    C1    1.296989 A    
O4    V3    1.973239 S    
C14   O30   1.415785 S    
C30   O25   1.392353 S    
C33   H3    1.111937 S    
O7    C3    1.294736 A    
C34   H6    1.109037 S    
V1    O19   1.708689 S    
C10   O34   1.410002 S    
C36   H11   1.106016 S    
C10   C17   1.569788 S    
O1    V3    1.968520 S    
O32   C44   1.407708 S    
C23   O39   1.413008 S    
O11   V2    2.050956 S    
O8    V1    2.094607 S    
O23   C35   1.403732 S    
O17   V4    1.985569 S    
C12   C16   1.549943 S    
C51   H55   1.107230 S    
C22   O38   1.415304 S    
C37   H13   1.107734 S    
O36   C48   1.413519 S    
C46   H42   1.109724 S    
C15   C19   1.556758 S    
O11   C6    1.302185 A    
C33   H1    1.109052 S    
C29   C30   1.492918 S    
O15   V3    1.996169 S    
C9    C13   1.544236 S    
C29   O26   1.392013 S    
C45   H39   1.109372 S    
O3    V4    1.973240 S    
C11   C15   1.553261 S    
C31   O28   1.388204 S    
C11   C20   1.560918 S    
O6    C2    1.297901 A    
C7    C17   1.512784 S    
C38   H16   1.108909 S    
C39   H21   1.107495 S    
C21   O37   1.414096 S    
C42   H29   1.108457 S    
O1    C4    1.294957 A    
C26   C30   1.335598 D    
O40   C52   1.416328 S    
C52   H60   1.092310 S    
C11   O35   1.415790 S    
O2    C3    1.294106 A    
C28   O23   1.377001 S    
O3    C2    1.297807 A    
C49   H50   1.108075 S    
O14   V4    1.753263 S    
C35   H8    1.112472 S    
C38   H17   1.114292 S    
C39   H20   1.110584 S    
O7    V2    2.094605 S    
C40   H24   1.107303 S    
C41   H26   1.109116 S    
C24   O40   1.415029 S    
C48   H46   1.111843 S    
C36   H12   1.111487 S    
C27   O24   1.374150 S    
O35   C47   1.412156 S    
C47   H45   1.107551 S    
C44   H34   1.096827 S    
V2    O20   1.708690 S    
C50   H53   1.105928 S    
O15   C5    1.326365 A    
C25   O22   1.377980 S    
O16   V4    1.996168 S    
C10   C14   1.548164 S    
C26   O21   1.378063 S    
O18   C8    1.326473 A    
O24   C36   1.395605 S    
C32   O27   1.393725 S    
C49   H51   1.094553 S    
C47   H44   1.114108 S    
O34   C46   1.421314 S    
O5    V1    2.081096 S    
C41   H27   1.105819 S    
O6    V2    2.081097 S    
O37   C49   1.412485 S    
C43   H33   1.107875 S    
O12   C5    1.307600 A    
O2    V4    1.968519 S    
C44   H36   1.104947 S    
C13   C22   1.540258 S    
V3    O19   2.216291 S    
O33   C45   1.420824 S    
V4    O20   2.216291 S    
C37   H15   1.109363 S    
O21   C33   1.404664 S    
C40   H23   1.107093 S    
C35   H9    1.113993 S    
C25   C29   1.345126 D    
O12   V1    2.050957 S    
C8    C18   1.520686 S    
O28   C40   1.409089 S    
O13   V1    2.153711 S    
C43   H32   1.092933 S    
C12   C24   1.548391 S    
C42   H30   1.106659 S    
O14   V2    2.153712 S    
C13   C17   1.548259 S    
O30   C42   1.420515 S    
C45   H38   1.108540 S    
C49   H49   1.102750 S    
C34   H4    1.112409 S    
C20   C24   1.536551 S    
C16   C20   1.557425 S    
C38   H18   1.107146 S    
C39   H19   1.108917 S    
O8    C4    1.296109 A    
O26   C38   1.414524 S    
O16   C6    1.326589 A    
C42   H28   1.107179 S    
C48   H47   1.096660 S    
C17   C21   1.548016 S    
O38   C50   1.417689 S    
C12   C19   1.571440 S    
C52   H58   1.106694 S    
C19   C23   1.558311 S    
C28   C32   1.337130 D    
O9    C8    1.301033 A    
C15   C24   1.541068 S    
C44   H35   1.094798 S    
