data_mof_unit_48549.cif
_audit_creation_date              2012-12-11T16:35:24-0500
_audit_creation_method            fapswitch 2.2
_symmetry_space_group_name_H-M    P1
_symmetry_Int_Tables_number       1
_space_group_crystal_system       triclinic
_cell_length_a                    6.931461
_cell_length_b                    17.582025
_cell_length_c                    19.605965
_cell_angle_alpha                 109.088333
_cell_angle_beta                  90.254792
_cell_angle_gamma                 90.505149
_cell_volume                      2257.82822232

loop_
_atom_site_label
_atom_site_type_symbol
_atom_type_description
_atom_site_fract_x
_atom_site_fract_y
_atom_site_fract_z
_atom_type_partial_charge
O1    O     O_R   0.505700 0.440210 0.561730 -0.545110
O2    O     O_R   0.169350 0.406300 0.412660 -0.538710
O3    O     O_R   0.005650 0.559790 0.438270 -0.539160
C1    C     C_R   0.338240 0.382948 0.385041 0.694219
O4    O     O_R   0.175560 0.430650 0.559600 -0.543600
O5    O     O_R   0.011900 0.584320 0.586250 -0.532199
C2    C     C_R   0.344589 0.415461 0.581011 0.681416
O6    O     O_R   0.499450 0.415680 0.413750 -0.536595
O7    O     O_3   0.341370 0.550390 0.508570 -0.375015
V1    V     V_3+5 0.063940 0.490650 0.498410 1.421840
O8    O     O_R   0.682570 0.593700 0.587340 -0.545509
C3    C     C_R   0.852211 0.619056 0.613393 0.796889
O9    O     O_R   0.676370 0.569350 0.440400 -0.550039
C4    C     C_R   0.845037 0.582518 0.417317 0.748947
V2    V     V_3+5 0.564750 0.509350 0.501590 1.399232
O10   O     O_3   0.837190 0.449610 0.491430 -0.372830
C5    C     C_R   0.045682 0.706453 0.306678 -0.150662
H1    H     H_    0.184621 0.731460 0.299851 0.100975
C6    C     C_R   0.034434 0.660296 0.352710 -0.171036
H2    H     H_    0.165388 0.649925 0.378467 0.129550
C7    C     C_R   0.856547 0.629220 0.366367 -0.055935
C8    C     C_R   0.690727 0.643553 0.331058 -0.185726
H3    H     H_    0.551700 0.619664 0.339573 0.121566
C9    C     C_R   0.702345 0.688587 0.283944 -0.148065
H4    H     H_    0.571838 0.696826 0.256803 0.100146
C10   C     C_R   0.879891 0.721361 0.271393 0.091611
C11   C     C_R   0.736779 0.819118 0.215302 -0.149675
H5    H     H_    0.606720 0.822400 0.246421 0.103214
C12   C     C_R   0.747956 0.865242 0.169176 -0.166821
H6    H     H_    0.625364 0.901532 0.165542 0.117498
C13   C     C_R   0.915994 0.865687 0.129338 -0.052393
C14   C     C_R   0.072167 0.818313 0.136433 -0.164020
H7    H     H_    0.203302 0.816788 0.106196 0.122825
C15   C     C_R   0.059904 0.771085 0.181666 -0.143688
H8    H     H_    0.181593 0.733855 0.183986 0.101058
C16   C     C_R   0.892218 0.770933 0.222122 0.089789
H9    H     H_    0.677594 0.638839 0.927910 0.114986
C17   C     C_R   0.049054 0.900737 0.752725 -0.152363
C18   C     C_R   0.095902 0.915133 0.689391 -0.193762
C19   C     C_R   0.043755 0.859697 0.623574 -0.204575
C20   C     C_R   0.946069 0.787859 0.619884 0.416147
C21   C     C_R   0.924944 0.766390 0.683606 -0.006875
C22   C     C_R   0.962222 0.827109 0.751415 0.020555
C23   C     C_R   0.861730 0.688266 0.682134 -0.189769
C24   C     C_R   0.815045 0.675031 0.747914 0.054870
C25   C     C_R   0.833657 0.738807 0.814808 0.074285
C26   C     C_R   0.907899 0.814650 0.816488 -0.161715
C27   C     C_R   0.748918 0.598763 0.748567 -0.147755
C28   C     C_R   0.699462 0.586300 0.812928 -0.118288
C29   C     C_R   0.715694 0.648891 0.878027 -0.118240
C30   C     C_R   0.782655 0.724288 0.879309 -0.135163
H10   H     H_    0.083490 0.948035 0.802577 0.123044
H11   H     H_    0.165608 0.971221 0.691470 0.141489
H12   H     H_    0.070648 0.874533 0.575067 0.124462
H13   H     H_    0.734109 0.547859 0.699559 0.103205
H14   H     H_    0.648462 0.527662 0.812238 0.118799
H15   H     H_    0.795888 0.770667 0.931451 0.096931
H16   H     H_    0.058584 0.452476 0.182633 0.120516
C31   C     C_R   0.513421 0.232471 0.381561 -0.125930
C32   C     C_R   0.608599 0.163034 0.381634 -0.122305
C33   C     C_R   0.642183 0.101816 0.317092 -0.124064
C34   C     C_R   0.580601 0.109478 0.251953 -0.145299
C35   C     C_R   0.485132 0.179557 0.249928 0.068657
C36   C     C_R   0.451007 0.242609 0.316232 0.072376
C37   C     C_R   0.420177 0.186665 0.183574 -0.189054
C38   C     C_R   0.322007 0.257477 0.183916 0.072159
C39   C     C_R   0.288080 0.320575 0.250213 0.067779
C40   C     C_R   0.352795 0.313401 0.316565 -0.188547
C41   C     C_R   0.259534 0.267606 0.118597 -0.126038
C42   C     C_R   0.164566 0.337087 0.118519 -0.122210
C43   C     C_R   0.131383 0.398389 0.183042 -0.122781
C44   C     C_R   0.193071 0.390765 0.248182 -0.147613
H17   H     H_    0.487361 0.277487 0.433405 0.100793
H18   H     H_    0.655309 0.156479 0.432165 0.113122
H19   H     H_    0.715227 0.047773 0.317480 0.118801
H20   H     H_    0.608407 0.059670 0.203458 0.108147
H21   H     H_    0.285415 0.222550 0.066761 0.101703
H22   H     H_    0.117777 0.343631 0.067994 0.114350
H23   H     H_    0.165779 0.440720 0.296652 0.109564
C45   C     C_R   0.541485 0.284584 0.685476 -0.148725
H24   H     H_    0.677395 0.256507 0.689587 0.101611
C46   C     C_R   0.529845 0.330331 0.639067 -0.174415
H25   H     H_    0.657676 0.336939 0.609834 0.121808
C47   C     C_R   0.355319 0.366098 0.629738 -0.051175
C48   C     C_R   0.192846 0.355282 0.668362 -0.158600
H26   H     H_    0.056640 0.382648 0.663059 0.116404
C49   C     C_R   0.205122 0.310484 0.715635 -0.143844
H27   H     H_    0.077968 0.305547 0.745809 0.098434
C50   C     C_R   0.379597 0.274173 0.724841 0.089466
C51   C     C_R   0.232373 0.181101 0.785627 -0.151216
H28   H     H_    0.098138 0.179769 0.756836 0.102594
C52   C     C_R   0.243706 0.136180 0.832701 -0.170066
H29   H     H_    0.117126 0.102789 0.839293 0.118051
C53   C     C_R   0.416384 0.133288 0.869740 -0.051492
C54   C     C_R   0.577253 0.177037 0.858769 -0.162798
H30   H     H_    0.712281 0.176548 0.886632 0.121327
C55   C     C_R   0.565127 0.223044 0.812474 -0.143926
H31   H     H_    0.690902 0.257445 0.807021 0.099028
C56   C     C_R   0.392554 0.225634 0.774930 0.090833
O11   O     O_R   0.273230 0.084330 0.086440 -0.534161
O12   O     O_R   0.596660 0.069390 0.940470 -0.541831
O13   O     O_R   0.760270 0.915710 0.913690 -0.533896
C57   C     C_R   0.427558 0.084421 0.918943 0.680014
O14   O     O_R   0.603330 0.093680 0.087390 -0.537621
O15   O     O_R   0.766990 0.940160 0.061660 -0.544127
C58   C     C_R   0.434523 0.117064 0.115092 0.696126
O16   O     O_R   0.266510 0.059870 0.938470 -0.544770
O17   O     O_3   0.431050 0.949630 0.991510 -0.366713
V3    V     V_3+5 0.708490 0.009340 0.001580 1.413829
O18   O     O_R   0.096270 0.930570 0.059390 -0.541574
C59   C     C_R   0.927392 0.915366 0.080874 0.680555
O19   O     O_R   0.089600 0.906290 0.912460 -0.540779
C60   C     C_R   0.919895 0.882531 0.885605 0.697172
V4    V     V_3+5 0.207670 0.990600 0.998190 1.413389
O20   O     O_3   0.935250 0.050360 0.008480 -0.366999
O21   O     O_3   0.869209 0.739449 0.554556 -0.593038
C61   C     C_3   0.734120 0.782378 0.526583 0.015727
H32   H     H_    0.764553 0.768863 0.468434 0.162534
H33   H     H_    0.741857 0.849203 0.550528 0.112189
C62   C     C_3   0.527978 0.755971 0.536045 -0.278309
H34   H     H_    0.518602 0.689732 0.520359 0.239849
H35   H     H_    0.486713 0.781398 0.593746 0.186492
C63   C     C_3   0.385996 0.783844 0.489675 -0.853166
H36   H     H_    0.383093 0.850615 0.507274 0.230034
H37   H     H_    0.239582 0.760541 0.494933 0.250170
H38   H     H_    0.427193 0.760369 0.431936 0.227221

loop_
_geom_bond_atom_site_label_1
_geom_bond_atom_site_label_2
_ccdc_geom_bond_type
C27   H13   S    
C49   H27   S    
C35   C37   A    
C11   C12   A    
C20   C21   A    
C37   C58   S    
C41   H21   S    
C54   H30   S    
C1    O6    A    
O14   C58   A    
V4    O20   S    
C63   H36   S    
C18   H11   S    
C48   H26   S    
O17   V3    S    
C31   C36   A    
C12   H6    S    
C50   C56   S    
C5    C10   A    
C36   C40   A    
C4    C7    S    
C6    C7    A    
C9    C10   A    
C39   C44   A    
C44   H23   S    
C61   H33   S    
O5    C3    A    
C17   C18   A    
H16   C43   S    
C63   H37   S    
C38   C41   A    
C42   H22   S    
O12   V3    S    
V2    O10   S    
O18   V4    S    
O21   C61   S    
C15   H8    S    
O17   V4    S    
C45   C50   A    
C28   C29   A    
O18   C59   A    
O8    V2    S    
C6    H2    S    
C42   C43   A    
C30   H15   S    
O7    V1    S    
C31   H17   S    
C62   C63   S    
C2    C47   S    
O15   C59   A    
C31   C32   A    
O12   C57   A    
O9    C4    A    
C34   H20   S    
C41   C42   A    
C21   C23   A    
O19   V4    S    
O19   C60   A    
C55   C56   A    
C62   H35   S    
C55   H31   S    
C48   C49   A    
C39   C40   A    
O11   V4    S    
C9    H4    S    
C45   C46   A    
C61   C62   S    
C18   C19   A    
C1    C40   S    
C63   H38   S    
C29   C30   A    
C24   C25   A    
C25   C30   A    
C33   H19   S    
C32   C33   A    
C14   C15   A    
O2    C1    A    
O16   V4    S    
C34   C35   A    
C51   C52   A    
C13   C14   A    
C52   C53   A    
C5    H1    S    
C53   C54   A    
C47   C48   A    
O3    C4    A    
O1    V2    S    
C10   C16   S    
C19   C20   A    
C53   C57   S    
C37   C38   A    
O6    V2    S    
C46   C47   A    
C49   C50   A    
C8    C9    A    
C21   C22   A    
C20   O21   S    
O2    V1    S    
C51   C56   A    
C62   H34   S    
O4    C2    A    
C24   C27   A    
C26   C60   S    
O15   V3    S    
C25   C26   A    
C27   C28   A    
O1    C2    A    
O11   C58   A    
C23   C24   A    
C45   H24   S    
O5    V1    S    
O8    C3    A    
C54   C55   A    
C11   C16   A    
C28   H14   S    
C19   H12   S    
C14   H7    S    
O9    V2    S    
O7    V2    S    
C17   C22   A    
C12   C13   A    
O3    V1    S    
V1    O10   S    
C61   H32   S    
H9    C29   S    
C51   H28   S    
O14   V3    S    
C32   H18   S    
C52   H29   S    
C5    C6    A    
C38   C39   A    
C15   C16   A    
C33   C34   A    
V3    O20   S    
C35   C36   A    
O4    V1    S    
C17   H10   S    
C3    C23   S    
C46   H25   S    
C11   H5    S    
O13   C60   A    
C13   C59   S    
C8    H3    S    
O13   V3    S    
C57   O16   A    
C43   C44   A    
C7    C8    A    
C22   C26   A    
