data_mof_unit_9446.cif
_audit_creation_date              2012-12-10T18:09:45-0500
_audit_creation_method            fapswitch 2.2
_symmetry_space_group_name_H-M    P1
_symmetry_Int_Tables_number       1
_space_group_crystal_system       triclinic
_cell_length_a                    10.649212
_cell_length_b                    12.575296
_cell_length_c                    13.07237
_cell_angle_alpha                 82.39847
_cell_angle_beta                  90.502296
_cell_angle_gamma                 102.18026
_cell_volume                      1695.83467032

loop_
_atom_site_label
_atom_site_type_symbol
_atom_type_description
_atom_site_fract_x
_atom_site_fract_y
_atom_site_fract_z
_atom_type_partial_charge
C1    C     C_R   0.483042 0.438340 0.692047 0.923284
C2    C     C_3   0.121618 0.499054 0.499904 0.121983
C3    C     C_3   0.097385 0.593849 0.418583 -0.433710
C4    C     C_3   0.076640 0.517439 0.607106 -0.418665
C5    C     C_R   0.440627 0.712827 0.051763 -0.227329
C6    C     C_R   0.512090 0.598363 0.195108 -0.196575
C7    C     C_R   0.493702 0.295677 0.845549 0.432536
C8    C     C_R   0.467647 0.258050 0.949630 -0.259738
C9    C     C_R   0.431506 0.324863 0.015439 0.312756
C10   C     C_R   0.427534 0.434984 0.976661 -0.004519
C11   C     C_R   0.417933 0.462036 0.869319 -0.016788
C12   C     C_R   0.742137 0.500578 0.498249 0.926251
C13   C     C_R   0.441518 0.521683 0.037621 0.107507
C14   C     C_R   0.411921 0.622935 0.996438 0.080848
C15   C     C_R   0.365203 0.635565 0.896541 -0.176395
C16   C     C_R   0.368754 0.555902 0.832930 -0.129893
C17   C     C_R   0.499285 0.514548 0.133335 -0.164334
C18   C     C_R   0.497423 0.703673 0.148874 0.422684
C19   C     C_R   0.462327 0.396889 0.802668 -0.282930
C20   C     C_R   0.284297 0.077688 0.382928 -0.200545
C21   C     C_R   0.662022 0.802245 0.622231 0.040356
C22   C     C_R   0.701379 0.909262 0.644015 -0.248187
C23   C     C_R   0.515305 0.561852 0.307321 0.972109
C24   C     C_R   0.641683 0.990401 0.596017 -0.156734
C25   C     C_R   0.541074 0.964097 0.526495 0.031126
C26   C     C_R   0.504912 0.853954 0.506750 0.239165
C27   C     C_R   0.473176 0.041708 0.477604 -0.026672
C28   C     C_R   0.361922 0.005248 0.420454 0.120023
C29   C     C_R   0.330262 0.897233 0.400480 -0.216532
C30   C     C_R   0.406183 0.824663 0.437875 -0.125389
C31   C     C_R   0.509500 0.154325 0.484051 0.057989
C32   C     C_R   0.319995 0.186270 0.399473 0.156006
C33   C     C_R   0.258067 0.499213 0.500903 0.815381
C34   C     C_3   0.900523 0.384682 0.479251 -0.334800
C35   C     C_3   0.043589 0.387219 0.473484 -0.374240
C36   C     C_3   0.951785 0.588325 0.408322 0.311772
C37   C     C_3   0.934796 0.525719 0.602301 -0.468705
C38   C     C_3   0.879032 0.500006 0.495712 0.007099
H1    H     H_    0.855034 0.357799 0.407437 0.240138
H2    H     H_    0.135086 0.594110 0.631184 0.185757
H3    H     H_    0.932851 0.669780 0.419704 0.102156
H4    H     H_    0.142915 0.674100 0.443550 0.141566
H5    H     H_    0.335896 0.710490 0.864926 0.155819
H6    H     H_    0.427639 0.792517 0.015851 0.201985
H7    H     H_    0.536289 0.443032 0.161249 0.248769
H8    H     H_    0.476543 0.175759 0.980526 0.235152
H9    H     H_    0.856060 0.322347 0.544551 0.199835
H10   H     H_    0.335919 0.570210 0.754857 0.157959
H11   H     H_    0.258402 0.242677 0.375302 0.162434
H12   H     H_    0.249972 0.870009 0.351906 0.187179
H13   H     H_    0.196579 0.050437 0.342426 0.182913
H14   H     H_    0.595517 0.189909 0.521676 0.155226
H15   H     H_    0.708943 0.738938 0.658288 0.140407
H16   H     H_    0.674171 0.071926 0.616266 0.175422
H17   H     H_    0.777899 0.929310 0.697789 0.168090
H18   H     H_    0.386653 0.746828 0.410341 0.210768
H19   H     H_    0.064744 0.318102 0.528722 0.177569
H20   H     H_    0.070439 0.374163 0.394717 0.235957
H21   H     H_    0.144672 0.591378 0.343676 0.219220
H22   H     H_    0.926903 0.609946 0.614880 0.184355
H23   H     H_    0.879658 0.467387 0.665918 0.223674
H24   H     H_    0.088474 0.448101 0.666224 0.188148
N1    N     N_R   0.433240 0.222190 0.444680 -0.104775
N2    N     N_R   0.566070 0.776970 0.554790 -0.130406
O1    O     O_R   0.468120 0.366740 0.627160 -0.539935
O2    O     O_R   0.510770 0.544830 0.662520 -0.637119
O3    O     O_R   0.663880 0.410950 0.482330 -0.593206
O4    O     O_R   0.706530 0.589040 0.517700 -0.637201
O5    O     O_R   0.489230 0.455170 0.337480 -0.555107
O6    O     O_R   0.531880 0.633260 0.372840 -0.584163
O7    O     O_R   0.293470 0.410960 0.482300 -0.643768
O8    O     O_R   0.336120 0.589050 0.517670 -0.669817
Zn1   Zn    Zn3+2 0.471520 0.381090 0.476390 1.050232
Zn2   Zn    Zn3+2 0.528480 0.618910 0.523610 0.964296
S1    S     S_3+6 0.575873 0.829663 0.189544 0.043895
O9    O     O_2   0.652239 0.816664 0.285733 -0.261861
O10   O     O_2   0.666142 0.891483 0.103702 -0.251171
O11   O     O_3   0.465532 0.903796 0.206224 -0.565172
H25   H     H_    0.515706 0.977360 0.216340 0.387843
S2    S     S_3+6 0.563656 0.211005 0.775057 0.000453
O12   O     O_2   0.460979 0.147848 0.713662 -0.321188
O13   O     O_2   0.668629 0.279618 0.703888 -0.369095
O14   O     O_3   0.626459 0.121668 0.856551 -0.531304
H26   H     H_    0.655031 0.072882 0.812224 0.379949
S3    S     S_3+6 0.369511 0.259189 0.137955 -0.001554
O15   O     O_2   0.288827 0.326029 0.184200 -0.294214
O16   O     O_2   0.287527 0.148295 0.127425 -0.273534
O17   O     O_3   0.492865 0.242188 0.215198 -0.567419
H27   H     H_    0.534489 0.190525 0.183927 0.358661
S4    S     S_3+6 0.903321 0.565772 0.278266 0.005638
O18   O     O_2   0.763646 0.512782 0.275536 -0.339567
O19   O     O_2   0.927187 0.674840 0.210882 -0.249271
O20   O     O_3   0.988909 0.484387 0.230962 -0.565732
H28   H     H_    0.960964 0.481316 0.158750 0.398918

loop_
_geom_bond_atom_site_label_1
_geom_bond_atom_site_label_2
_ccdc_geom_bond_type
C2    C35   S    
C3    H4    S    
C18   S1    S    
C23   O5    A    
C31   H14   S    
C16   H10   S    
C7    C8    A    
S3    O15   D    
C12   O4    A    
C11   C19   A    
O20   H28   S    
C35   H20   S    
C28   C29   A    
C37   C38   S    
C17   H7    S    
C20   H13   S    
C24   H16   S    
C15   C16   A    
O2    Zn2   S    
C4    H24   S    
O1    Zn1   S    
C34   C35   S    
C26   N2    A    
C21   N2    A    
C33   O8    A    
C9    S3    S    
C4    H2    S    
C8    C9    A    
O6    Zn2   S    
C1    O1    A    
O5    Zn1   S    
O3    Zn1   S    
C9    C10   A    
C13   C14   A    
C23   O6    A    
C36   H3    S    
S2    O14   S    
C29   H12   S    
S3    O16   D    
C6    C18   A    
C12   O3    A    
C1    C19   S    
C27   C31   A    
C34   H1    S    
C31   N1    A    
C24   C25   A    
O8    Zn2   S    
O7    Zn1   S    
O11   H25   S    
C5    C18   A    
N1    Zn1   S    
C25   C26   A    
C30   H18   S    
C2    C4    S    
S1    O9    D    
C29   C30   A    
C11   C16   A    
S4    O19   D    
O14   H26   S    
C1    O2    A    
O17   H27   S    
S1    O10   D    
C5    C14   A    
C2    C33   S    
S2    O13   D    
C5    H6    S    
C26   C30   A    
C7    C19   A    
C22   C24   A    
S4    O20   S    
C20   C32   A    
S3    O17   S    
C36   S4    S    
C6    C17   A    
C34   C38   S    
C32   N1    A    
S2    O12   D    
C10   C13   A    
C37   H23   S    
C22   H17   S    
C25   C27   A    
C20   C28   A    
C13   C17   A    
C35   H19   S    
C36   C38   S    
C2    C3    S    
C15   H5    S    
C21   H15   S    
S4    O18   D    
C3    C36   S    
C6    C23   S    
C12   C38   S    
S1    O11   S    
C8    H8    S    
C32   H11   S    
C37   H22   S    
C10   C11   A    
C33   O7    A    
C4    C37   S    
C27   C28   A    
N2    Zn2   S    
C14   C15   A    
C34   H9    S    
C21   C22   A    
O4    Zn2   S    
C7    S2    S    
C3    H21   S    
