data_mof_unit_6516.cif
_audit_creation_date              2012-12-10T17:52:23-0500
_audit_creation_method            fapswitch 2.2
_symmetry_space_group_name_H-M    P1
_symmetry_Int_Tables_number       1
_space_group_crystal_system       triclinic
_cell_length_a                    19.204768
_cell_length_b                    10.758612
_cell_length_c                    9.922945
_cell_angle_alpha                 88.274209
_cell_angle_beta                  89.722493
_cell_angle_gamma                 93.840474
_cell_volume                      2044.66533032

loop_
_atom_site_label
_atom_site_type_symbol
_atom_type_description
_atom_site_fract_x
_atom_site_fract_y
_atom_site_fract_z
_atom_type_partial_charge
C1    C     C_R   0.502705 0.259819 0.502720 0.912994
C2    C     C_R   0.290514 0.510851 0.499839 -0.034475
C3    C     C_R   0.931668 0.551478 0.494070 0.287392
C4    C     C_R   0.072119 0.550914 0.494949 0.287063
C5    C     C_R   0.818789 0.554701 0.615534 -0.167641
C6    C     C_R   0.746547 0.539576 0.617520 -0.202895
C7    C     C_R   0.710277 0.511208 0.498903 -0.021706
C8    C     C_R   0.746933 0.497439 0.378524 -0.201670
C9    C     C_R   0.819150 0.512888 0.376396 -0.178055
C10   C     C_R   0.855564 0.541441 0.494955 0.094915
C11   C     C_R   0.501672 0.101042 0.761624 -0.099279
C12   C     C_R   0.365681 0.501340 0.500184 0.853235
C13   C     C_R   0.475029 0.033816 0.874900 -0.172358
C14   C     C_R   0.439933 0.918027 0.860104 -0.153856
C15   C     C_R   0.437170 0.864952 0.733792 -0.130462
C16   C     C_R   0.469263 0.928350 0.619960 0.030002
C17   C     C_R   0.492001 0.053921 0.630274 0.096051
C18   C     C_R   0.502146 0.125591 0.508188 -0.211058
C19   C     C_R   0.499987 0.068091 0.383692 -0.336784
C20   C     C_R   0.493989 0.940387 0.376701 0.520151
C21   C     C_R   0.481022 0.869669 0.496655 -0.246053
C22   C     C_R   0.401136 0.351281 0.153906 -0.127073
C23   C     C_R   0.492541 0.738264 0.498452 0.891693
C24   C     C_R   0.344365 0.290289 0.096933 -0.293912
C25   C     C_R   0.339102 0.288960 0.959827 -0.284727
C26   C     C_R   0.393256 0.343901 0.875270 0.576606
C27   C     C_R   0.448475 0.424954 0.932676 0.015843
C28   C     C_R   0.450082 0.426571 0.077390 0.001478
C29   C     C_R   0.549787 0.567848 0.069893 0.599151
C30   C     C_R   0.548183 0.569575 0.925101 -0.266750
C31   C     C_R   0.634403 0.501595 0.499670 0.849607
C32   C     C_R   0.254895 0.528954 0.620522 -0.211726
C33   C     C_R   0.183731 0.543836 0.618863 -0.170104
C34   C     C_R   0.147455 0.540653 0.496499 0.090734
C35   C     C_R   0.183244 0.522407 0.375939 -0.164543
C36   C     C_R   0.254289 0.507468 0.377629 -0.201750
H1    H     H_    0.281962 0.532471 0.716008 0.158167
H2    H     H_    0.531031 0.187512 0.780711 0.163161
H3    H     H_    0.480510 0.072856 0.973868 0.151602
H4    H     H_    0.416799 0.867614 0.947065 0.166588
H5    H     H_    0.409403 0.774589 0.725810 0.156061
H6    H     H_    0.404627 0.335901 0.259276 0.218766
H7    H     H_    0.305465 0.238807 0.159879 0.173283
H8    H     H_    0.294083 0.235435 0.922496 0.153345
H9    H     H_    0.157260 0.557251 0.713394 0.150683
H10   H     H_    0.585717 0.627602 0.866048 0.161036
H11   H     H_    0.156484 0.519046 0.280181 0.150693
H12   H     H_    0.280745 0.493890 0.283091 0.168227
H13   H     H_    0.845660 0.576484 0.708448 0.147390
H14   H     H_    0.719203 0.551472 0.711535 0.149018
H15   H     H_    0.719908 0.474529 0.286098 0.163663
H16   H     H_    0.846294 0.501149 0.282199 0.148972
H17   H     H_    0.503090 0.122108 0.289788 0.187000
N1    N     N_R   0.036464 0.540729 0.377868 -0.181167
N2    N     N_R   0.967441 0.540963 0.377430 -0.181195
N3    N     N_R   0.967396 0.564156 0.610854 -0.181060
N4    N     N_R   0.036456 0.563861 0.611298 -0.180872
N5    N     N_R   0.499340 0.498800 0.142780 -0.143818
N6    N     N_R   0.499320 0.498720 0.857170 -0.124313
O1    O     O_R   0.500000 0.316780 0.614690 -0.560994
O2    O     O_R   0.499990 0.316750 0.385360 -0.662187
O3    O     O_R   0.398140 0.500000 0.614700 -0.570932
O4    O     O_R   0.398130 0.499970 0.385370 -0.652511
O5    O     O_R   0.500010 0.683250 0.614640 -0.634981
O6    O     O_R   0.500000 0.683220 0.385310 -0.523489
O7    O     O_R   0.601870 0.500030 0.614630 -0.633833
O8    O     O_R   0.601860 0.500000 0.385300 -0.573397
Zn1   Zn    Zn3+2 0.500000 0.500020 0.653130 0.968388
Zn2   Zn    Zn3+2 0.500000 0.499980 0.346870 0.997522
O9    O     O_3   0.492301 0.885258 0.251929 -0.592449
C37   C     C_3   0.557064 0.909823 0.184992 -0.231663
H18   H     H_    0.555625 0.858721 0.089605 0.210910
H19   H     H_    0.600790 0.877007 0.246959 0.185375
H20   H     H_    0.567026 0.009954 0.156222 0.114629
O10   O     O_3   0.598877 0.639026 0.142329 -0.578246
C38   C     C_3   0.664755 0.652703 0.077967 -0.426433
H21   H     H_    0.665571 0.727601 0.998355 0.164320
H22   H     H_    0.680516 0.563489 0.036811 0.159775
H23   H     H_    0.704276 0.682423 0.153669 0.209151
O11   O     O_3   0.397174 0.310931 0.742147 -0.556381
C39   C     C_3   0.342897 0.229093 0.693442 -0.324995
H24   H     H_    0.291739 0.271364 0.698246 0.155658
H25   H     H_    0.341844 0.136602 0.746759 0.175929
H26   H     H_    0.353334 0.213163 0.585520 0.175562

loop_
_geom_bond_atom_site_label_1
_geom_bond_atom_site_label_2
_ccdc_geom_bond_type
C31   O7    A    
O7    Zn1   S    
C16   C21   A    
C33   H9    S    
C35   C36   A    
C38   H23   S    
C2    C12   S    
C39   H24   S    
C7    C8    A    
C31   O8    A    
C26   C27   A    
O5    Zn1   S    
C38   H22   S    
C34   C35   A    
C5    C6    A    
O2    Zn2   S    
C15   C16   A    
N3    N4    A    
C2    C32   A    
C18   C19   A    
C3    N2    A    
C19   C20   A    
C8    C9    A    
C4    N4    A    
O9    C37   S    
C9    C10   A    
C19   H17   S    
C35   H11   S    
C22   C28   A    
C13   C14   A    
C5    H13   S    
C9    H16   S    
C25   H8    S    
C39   H25   S    
C33   C34   A    
C4    C34   S    
C7    C31   S    
O4    Zn2   S    
C24   C25   A    
C15   H5    S    
C1    O1    A    
C37   H19   S    
C12   O4    A    
C16   C17   A    
C25   C26   A    
C6    H14   S    
O8    Zn2   S    
C11   H2    S    
O10   C38   S    
C29   C30   A    
N6    Zn1   S    
C12   O3    A    
C3    N3    A    
C30   N6    A    
C17   C18   A    
C1    C18   S    
C32   H1    S    
C38   H21   S    
C8    H15   S    
C23   O5    A    
C21   C23   S    
C22   C24   A    
C39   H26   S    
C29   N5    A    
C20   O9    S    
C2    C36   A    
N1    N2    A    
C11   C17   A    
C4    N1    A    
C30   H10   S    
O11   C39   S    
C1    O2    A    
C37   H20   S    
N5    Zn2   S    
C6    C7    A    
C29   O10   S    
C28   N5    A    
O3    Zn1   S    
C32   C33   A    
C23   O6    A    
C5    C10   A    
C3    C10   S    
C27   N6    A    
C11   C13   A    
C22   H6    S    
O6    Zn2   S    
C36   H12   S    
C26   O11   S    
C13   H3    S    
C14   H4    S    
C37   H18   S    
C20   C21   A    
O1    Zn1   S    
C27   C28   A    
C24   H7    S    
C14   C15   A    
