data_mof_unit_20820.cif
_audit_creation_date              2012-12-10T20:14:17-0500
_audit_creation_method            fapswitch 2.2
_symmetry_space_group_name_H-M    P1
_symmetry_Int_Tables_number       1
_space_group_crystal_system       triclinic
_cell_length_a                    19.219216
_cell_length_b                    18.487988
_cell_length_c                    10.523184
_cell_angle_alpha                 89.404516
_cell_angle_beta                  89.61478
_cell_angle_gamma                 90.36506
_cell_volume                      3738.78248314

loop_
_atom_site_label
_atom_site_type_symbol
_atom_type_description
_atom_site_fract_x
_atom_site_fract_y
_atom_site_fract_z
_atom_type_partial_charge
C1    C     C_R   0.366053 0.499724 0.500101 0.962041
C2    C     C_R   0.540852 0.275255 0.414510 0.401169
C3    C     C_R   0.450294 0.724747 0.568327 0.399181
C4    C     C_R   0.458791 0.273952 0.585222 0.418468
C5    C     C_R   0.549796 0.803426 0.428589 0.146724
C6    C     C_R   0.543312 0.198171 0.415928 0.140636
C7    C     C_R   0.450243 0.801858 0.571866 0.146418
C8    C     C_R   0.456076 0.196825 0.583976 0.137804
C9    C     C_R   0.500017 0.841074 0.500281 -0.050535
C10   C     C_R   0.499707 0.158988 0.500117 -0.042997
C11   C     C_R   0.458533 0.961461 0.411318 0.058396
C12   C     C_R   0.634074 0.500202 0.501571 0.866860
C13   C     C_R   0.540284 0.038461 0.590507 0.058007
C14   C     C_R   0.541186 0.961088 0.589308 0.058476
C15   C     C_R   0.459203 0.038856 0.410135 0.058822
C16   C     C_R   0.499697 0.077260 0.500301 0.212238
C17   C     C_R   0.499937 0.922716 0.500275 0.214669
C18   C     C_R   0.500040 0.500454 0.257745 0.999880
C19   C     C_R   0.500152 0.499560 0.742255 1.043844
C20   C     C_3   0.498768 0.568982 0.037409 0.293264
C21   C     C_3   0.501796 0.431143 0.962620 0.309152
C22   C     C_3   0.556494 0.535480 0.956381 0.218809
C23   C     C_R   0.965249 0.550775 0.611052 0.244230
C24   C     C_3   0.444039 0.464627 0.043565 0.232348
C25   C     C_3   0.442660 0.532071 0.957609 0.271760
C26   C     C_3   0.557886 0.468064 0.042403 0.250443
C27   C     C_3   0.500380 0.498629 0.875815 -0.258231
C28   C     C_3   0.500138 0.501456 0.124182 -0.253660
C29   C     C_R   0.739845 0.461514 0.614342 0.362916
C30   C     C_R   0.250372 0.525251 0.408533 0.312211
C31   C     C_R   0.261542 0.468781 0.620234 0.381893
C32   C     C_R   0.749776 0.541862 0.426885 0.360272
C33   C     C_R   0.812279 0.459573 0.623532 0.084560
C34   C     C_R   0.034865 0.436498 0.488611 0.253864
C35   C     C_R   0.177931 0.522366 0.419980 0.077867
C36   C     C_R   0.188600 0.468104 0.634994 0.019903
C37   C     C_R   0.821871 0.545001 0.442584 0.071319
C38   C     C_R   0.852872 0.501916 0.538232 0.096001
C39   C     C_R   0.147545 0.494451 0.533555 0.127466
C40   C     C_R   0.708951 0.500749 0.513557 -0.275631
C41   C     C_R   0.291244 0.498475 0.509083 -0.226000
C42   C     C_3   0.845031 0.413039 0.727118 -0.315244
C43   C     C_3   0.845511 0.452218 0.854834 -0.329178
C44   C     C_3   0.879601 0.405898 0.957557 -0.884638
C45   C     C_R   0.038404 0.550911 0.604391 0.239233
C46   C     C_3   0.134090 0.548994 0.308748 -0.312174
C47   C     C_3   0.135612 0.494873 0.198854 -0.299673
C48   C     C_3   0.082998 0.514679 0.096674 -0.917812
C49   C     C_3   0.155020 0.442041 0.759164 -0.396863
C50   C     C_3   0.140582 0.360325 0.757254 -0.361617
C51   C     C_3   0.111577 0.333457 0.884658 -0.884719
C52   C     C_3   0.864666 0.593148 0.353078 -0.306229
C53   C     C_3   0.877520 0.556209 0.225403 -0.342822
C54   C     C_3   0.913345 0.607613 0.130905 -0.892942
C55   C     C_3   0.412854 0.919649 0.318545 -0.391008
C56   C     C_R   0.962038 0.441473 0.481076 0.244496
C57   C     C_3   0.451206 0.904603 0.193071 -0.353666
C58   C     C_3   0.401848 0.873691 0.094149 -0.850225
C59   C     C_3   0.582952 0.080359 0.687741 -0.399629
C60   C     C_3   0.655518 0.100171 0.635885 -0.349768
C61   C     C_3   0.699263 0.137535 0.736658 -0.845155
C62   C     C_3   0.586891 0.918936 0.682228 -0.388608
C63   C     C_3   0.548485 0.901946 0.807671 -0.358821
C64   C     C_3   0.597875 0.871030 0.907042 -0.857326
C65   C     C_3   0.416305 0.081160 0.313028 -0.398950
C66   C     C_3   0.343643 0.098884 0.364999 -0.350544
C67   C     C_R   0.071995 0.492913 0.545396 -0.061259
C68   C     C_3   0.299198 0.135404 0.263627 -0.860335
C69   C     C_R   0.928373 0.497926 0.544253 -0.065793
C70   C     C_R   0.549717 0.726264 0.431867 0.422089
H1    H     H_    0.355669 0.579711 0.984080 0.362246
H2    H     H_    0.676511 0.556628 0.301224 0.367679
H3    H     H_    0.851347 0.353622 0.969198 0.277976
H4    H     H_    0.934763 0.395334 0.932226 0.255289
H5    H     H_    0.878139 0.434642 0.049423 0.258398
H6    H     H_    0.874833 0.503954 0.845147 0.245634
H7    H     H_    0.791405 0.464684 0.885005 0.266128
H8    H     H_    0.815737 0.361190 0.736937 0.236994
H9    H     H_    0.898944 0.397291 0.702080 0.190044
H10   H     H_    0.029423 0.509199 0.135456 0.271000
H11   H     H_    0.091881 0.570925 0.061879 0.281652
H12   H     H_    0.644705 0.420095 0.015774 0.364789
H13   H     H_    0.088310 0.477352 0.015540 0.259225
H14   H     H_    0.188280 0.493822 0.154865 0.266126
H15   H     H_    0.123296 0.439572 0.234851 0.260671
H16   H     H_    0.079274 0.558698 0.337067 0.176677
H17   H     H_    0.154196 0.602383 0.274940 0.229946
H18   H     H_    0.149005 0.344884 0.962027 0.269915
H19   H     H_    0.061334 0.360224 0.905828 0.256827
H20   H     H_    0.102502 0.274154 0.880859 0.262176
H21   H     H_    0.102146 0.347927 0.682215 0.260439
H22   H     H_    0.189020 0.330311 0.735482 0.228959
H23   H     H_    0.496737 0.670766 0.001665 0.357655
H24   H     H_    0.188276 0.456332 0.841249 0.218423
H25   H     H_    0.105580 0.470655 0.778064 0.222052
H26   H     H_    0.879558 0.654800 0.110591 0.282137
H27   H     H_    0.963673 0.627021 0.169610 0.264097
H28   H     H_    0.923531 0.578977 0.040494 0.259058
H29   H     H_    0.910898 0.508115 0.240397 0.228033
H30   H     H_    0.827483 0.537865 0.183944 0.268683
H31   H     H_    0.836905 0.645071 0.337642 0.238687
H32   H     H_    0.915402 0.608417 0.394903 0.188903
H33   H     H_    0.957154 0.618808 0.749465 0.344210
H34   H     H_    0.503927 0.329460 0.998853 0.352812
H35   H     H_    0.040727 0.335404 0.441385 0.346390
H36   H     H_    0.050680 0.651525 0.651953 0.351987
H37   H     H_    0.950966 0.373989 0.342267 0.344867
H38   H     H_    0.643053 0.714371 0.365056 0.345274
H39   H     H_    0.583936 0.288687 0.248840 0.338271
H40   H     H_    0.356928 0.710748 0.635107 0.338135
H41   H     H_    0.413630 0.284874 0.749266 0.347567
H42   H     H_    0.611673 0.814529 0.282851 0.347335
H43   H     H_    0.628422 0.190162 0.316651 0.349417
H44   H     H_    0.388350 0.810285 0.717612 0.345493
H45   H     H_    0.641217 0.588371 0.981096 0.370142
H46   H     H_    0.370290 0.186504 0.681101 0.340356
H47   H     H_    0.377795 0.822557 0.129967 0.277856
H48   H     H_    0.360298 0.913221 0.071718 0.264476
H49   H     H_    0.431136 0.862059 0.005491 0.255805
H50   H     H_    0.493133 0.864908 0.209683 0.259436
H51   H     H_    0.475574 0.954819 0.154127 0.231861
H52   H     H_    0.394715 0.867575 0.360669 0.218556
H53   H     H_    0.363812 0.948897 0.299737 0.207388
H54   H     H_    0.673503 0.187954 0.768230 0.277945
H55   H     H_    0.706636 0.100972 0.819855 0.261912
H56   H     H_    0.359308 0.411779 0.018593 0.364964
H57   H     H_    0.751137 0.151789 0.696229 0.257593
H58   H     H_    0.683058 0.050940 0.603761 0.230777
H59   H     H_    0.650899 0.137270 0.553118 0.261919
H60   H     H_    0.555854 0.130327 0.716831 0.229387
H61   H     H_    0.587910 0.049625 0.778016 0.209838
H62   H     H_    0.622321 0.820747 0.871627 0.275705
H63   H     H_    0.639127 0.911175 0.929500 0.266485
H64   H     H_    0.568509 0.857909 0.995605 0.258266
H65   H     H_    0.523789 0.951317 0.846184 0.233472
H66   H     H_    0.506799 0.861604 0.791133 0.255234
H67   H     H_    0.655261 0.447821 0.715960 0.346534
H68   H     H_    0.605115 0.867587 0.640269 0.216482
H69   H     H_    0.635874 0.948724 0.701001 0.207601
H70   H     H_    0.324343 0.186511 0.230289 0.271612
H71   H     H_    0.291933 0.098852 0.181583 0.264130
H72   H     H_    0.247311 0.148285 0.304213 0.258842
H73   H     H_    0.316756 0.048846 0.398687 0.232095
H74   H     H_    0.348073 0.135844 0.446742 0.257512
H75   H     H_    0.443057 0.132043 0.284033 0.223559
H76   H     H_    0.411565 0.051446 0.222692 0.210478
H77   H     H_    0.329158 0.543522 0.291745 0.342610
H78   H     H_    0.282580 0.406812 0.766912 0.338637
N1    N     N_R   0.500000 0.689440 0.500000 -0.142247
N2    N     N_R   0.500000 0.310560 0.500000 -0.142068
O1    O     O_R   0.398180 0.560840 0.499970 -0.578298
O2    O     O_3   0.617521 0.435299 0.091175 -0.720616
O3    O     O_3   0.497201 0.640384 0.079814 -0.703163
O4    O     O_3   0.503595 0.359713 0.920553 -0.712058
O5    O     O_3   0.614683 0.571780 0.906287 -0.744340
O6    O     O_3   0.385829 0.428281 0.093485 -0.747047
O7    O     O_3   0.700960 0.424237 0.705206 -0.755892
O8    O     O_3   0.278911 0.554107 0.297590 -0.760790
O9    O     O_3   0.306135 0.443944 0.713750 -0.708059
O10   O     O_3   0.721206 0.579314 0.325414 -0.746228
O11   O     O_3   0.928329 0.601975 0.677798 -0.773586
O12   O     O_R   0.601820 0.439160 0.500030 -0.567541
O13   O     O_3   0.071351 0.378675 0.440281 -0.793074
O14   O     O_3   0.078555 0.606685 0.651561 -0.758845
O15   O     O_3   0.922316 0.393157 0.412703 -0.770038
O16   O     O_3   0.598891 0.686536 0.367928 -0.685365
O17   O     O_3   0.578550 0.316426 0.328239 -0.685013
O18   O     O_3   0.401122 0.683584 0.632317 -0.683595
O19   O     O_3   0.420912 0.313954 0.670755 -0.677292
O20   O     O_3   0.597080 0.843348 0.357036 -0.768160
O21   O     O_3   0.587230 0.159786 0.337473 -0.769982
O22   O     O_3   0.402961 0.840246 0.643529 -0.767245
O23   O     O_R   0.601820 0.560840 0.500030 -0.571286
O24   O     O_3   0.411906 0.157131 0.662242 -0.769542
O25   O     O_R   0.398180 0.439160 0.499970 -0.569068
O26   O     O_R   0.499980 0.560800 0.313940 -0.575683
O27   O     O_R   0.500020 0.439200 0.686060 -0.555304
O28   O     O_R   0.500020 0.560800 0.686060 -0.567664
O29   O     O_R   0.499980 0.439200 0.313940 -0.561491
O30   O     O_3   0.383083 0.564891 0.908721 -0.679017
Zn1   Zn    Zn3+2 0.500000 0.581210 0.500000 1.089194
Zn2   Zn    Zn3+2 0.500000 0.418790 0.500000 1.096988

loop_
_geom_bond_atom_site_label_1
_geom_bond_atom_site_label_2
_ccdc_geom_bond_type
C2    N2    A    
C66   C68   S    
C21   C26   S    
H37   O15   S    
C59   H60   S    
C34   C56   A    
C23   C45   A    
C23   C69   A    
C4    C8    A    
C25   O30   S    
H43   O21   S    
H56   O6    S    
C53   C54   S    
C53   H29   S    
H44   O22   S    
C59   H61   S    
C37   C38   A    
C34   C67   A    
C30   C35   A    
C61   H54   S    
H34   O4    S    
C33   C42   S    
C47   H15   S    
C45   O14   S    
O12   Zn2   S    
C3    C7    A    
C70   O16   S    
C51   H20   S    
C8    O24   S    
C30   C41   A    
C66   H74   S    
C20   C25   S    
O27   Zn2   S    
C14   C62   S    
C29   C33   A    
C58   H48   S    
C48   H11   S    
C30   O8    S    
C49   C50   S    
H39   O17   S    
C46   C47   S    
C11   C15   A    
C1    O25   A    
C64   H62   S    
C56   O15   S    
C45   C67   A    
C5    O20   S    
H35   O13   S    
C54   H27   S    
C68   H72   S    
H36   O14   S    
C62   H69   S    
C19   C27   S    
C19   O27   A    
C54   H26   S    
C6    O21   S    
O29   Zn2   S    
C26   O2    S    
C21   C27   S    
C55   H52   S    
O23   Zn1   S    
C59   C60   S    
C13   C14   A    
N1    Zn1   S    
C14   C17   A    
C2    C6    A    
C70   N1    A    
H40   O18   S    
C3    O18   S    
O1    Zn1   S    
C55   H53   S    
C22   O5    S    
C53   H30   S    
O26   Zn1   S    
C64   H64   S    
C52   H31   S    
H33   O11   S    
C3    N1    A    
C4    O19   S    
C24   C28   S    
C60   H58   S    
C18   C28   S    
C24   C25   S    
N2    Zn2   S    
C34   O13   S    
C20   O3    S    
C37   C52   S    
C29   O7    S    
C66   H73   S    
C20   C28   S    
C32   C37   A    
C12   O12   A    
C58   H47   S    
C49   H25   S    
C60   C61   S    
H41   O19   S    
H78   O9    S    
C63   H65   S    
H1    O30   S    
C12   C40   S    
C44   H5    S    
C35   C39   A    
C43   C44   S    
C5    C9    A    
C5    C70   A    
C47   C48   S    
C21   O4    S    
C52   H32   S    
C62   C63   S    
C50   C51   S    
C68   H71   S    
C61   H57   S    
C47   H14   S    
C62   H68   S    
C44   H4    S    
C19   O28   A    
O25   Zn2   S    
C50   H22   S    
C20   C22   S    
C18   O29   A    
C42   H8    S    
C22   C27   S    
C57   H50   S    
C49   H24   S    
C68   H70   S    
C43   H7    S    
C42   C43   S    
C21   C24   S    
C65   H75   S    
C32   C40   A    
C11   C55   S    
C52   C53   S    
C46   H17   S    
C51   H18   S    
C9    C17   S    
C43   H6    S    
C7    C9    A    
H38   O16   S    
C64   H63   S    
C11   C17   A    
C31   C41   A    
H45   O5    S    
C39   C67   S    
C36   C39   A    
C1    C41   S    
C60   H59   S    
C6    C10   A    
C13   C59   S    
H67   O7    S    
C25   C27   S    
C4    N2    A    
C26   C28   S    
C33   C38   A    
H2    O10   S    
C48   H13   S    
H46   O24   S    
H42   O20   S    
C63   H66   S    
C48   H10   S    
C55   C57   S    
C32   O10   S    
C10   C16   S    
C51   H19   S    
H77   O8    S    
C57   C58   S    
C29   C40   A    
H23   O3    S    
C58   H49   S    
C1    O1    A    
C65   C66   S    
C44   H3    S    
H12   O2    S    
C38   C69   S    
O28   Zn1   S    
C57   H51   S    
C63   C64   S    
C24   O6    S    
C50   H21   S    
C42   H9    S    
C8    C10   A    
C56   C69   A    
C22   C26   S    
C13   C16   A    
C31   C36   A    
C54   H28   S    
C61   H55   S    
C23   O11   S    
C65   H76   S    
C7    O22   S    
C35   C46   S    
C2    O17   S    
C31   O9    S    
C36   C49   S    
C15   C16   A    
C18   O26   A    
C12   O23   A    
C46   H16   S    
C15   C65   S    
