data_mof_unit_8656.cif
_audit_creation_date              2013-03-05T16:12:11-0500
_audit_creation_method            fapswitch 2.2
_symmetry_space_group_name_H-M    P1
_symmetry_Int_Tables_number       1
_space_group_crystal_system       triclinic
_cell_length_a                    10.834133
_cell_length_b                    9.739121
_cell_length_c                    27.78564
_cell_angle_alpha                 89.22878
_cell_angle_beta                  88.035194
_cell_angle_gamma                 91.087655
_cell_volume                      2929.25620017

loop_
_atom_site_label
_atom_site_type_symbol
_atom_site_description
_atom_site_fract_x
_atom_site_fract_y
_atom_site_fract_z
_atom_type_partial_charge
O1    O     O_R   0.317570 0.620260 0.500030 -0.591289
O2    O     O_R   0.317570 0.379740 0.500030 -0.594586
C1    C     C_R   0.261085 0.499077 0.502146 0.775705
O3    O     O_R   0.499900 0.620250 0.430280 -0.616080
O4    O     O_R   0.499900 0.379750 0.430280 -0.567088
C2    C     C_R   0.500460 0.501191 0.407863 0.800206
Cu1   Cu    Cu3+1 0.499860 0.642410 0.500020 0.919033
Cu2   Cu    Cu3+1 0.499860 0.357590 0.500020 0.918634
O5    O     O_R   0.682190 0.620260 0.500010 -0.564020
O6    O     O_R   0.682190 0.379740 0.500010 -0.593624
O7    O     O_R   0.499860 0.620280 0.569750 -0.578430
O8    O     O_R   0.499860 0.379720 0.569750 -0.587613
C3    C     C_R   0.739831 0.500880 0.498063 0.830528
C4    C     C_R   0.501916 0.499226 0.592361 0.835862
C5    C     C_R   0.413295 0.585623 0.180501 0.544341
O9    O     O_2   0.309065 0.603546 0.207525 -0.525025
N1    N     N_R   0.521907 0.559415 0.202350 -0.460989
C6    C     C_R   0.629774 0.545713 0.175921 0.544510
C7    C     C_R   0.584347 0.632585 0.282583 -0.083958
C8    C     C_R   0.578054 0.616637 0.332552 -0.272597
C9    C     C_R   0.445186 0.414797 0.325284 0.224705
C10   C     C_R   0.452932 0.431092 0.275270 -0.110751
C11   C     C_R   0.521048 0.540322 0.253736 0.290466
C12   C     C_R   0.518740 0.576392 0.102093 -0.043761
C13   C     C_R   0.409513 0.593415 0.130093 -0.024179
C14   C     C_R   0.298806 0.616793 0.107321 -0.138713
C15   C     C_R   0.630302 0.554784 0.125381 -0.022333
C16   C     C_R   0.508421 0.508130 0.354683 -0.088849
H1    H     H_    0.403159 0.360350 0.252864 0.177615
H2    H     H_    0.213935 0.633142 0.128042 0.190286
C17   C     C_R   0.500653 0.501385 0.646025 -0.020882
C18   C     C_R   0.397432 0.585550 0.977190 0.043803
C19   C     C_R   0.624761 0.568781 0.972070 0.042656
C20   C     C_R   0.509246 0.574139 0.949415 0.068930
C21   C     C_R   0.284645 0.584287 0.952883 -0.203014
C22   C     C_R   0.282063 0.574564 0.903087 -0.142599
C23   C     C_R   0.391555 0.565750 0.875417 -0.021391
C24   C     C_R   0.505445 0.566578 0.898388 -0.043429
C25   C     C_R   0.615507 0.558592 0.870232 -0.026867
C26   C     C_R   0.609680 0.548325 0.820004 0.542742
N2    N     N_R   0.497830 0.544254 0.798530 -0.465324
C27   C     C_R   0.389712 0.553664 0.825102 0.538709
C28   C     C_R   0.452234 0.633652 0.718176 -0.087698
C29   C     C_R   0.454742 0.620226 0.668382 -0.250670
C30   C     C_R   0.544025 0.393389 0.675974 0.151560
C31   C     C_R   0.537771 0.407985 0.726182 -0.099139
C32   C     C_R   0.494358 0.527997 0.747266 0.309466
O10   O     O_2   0.280752 0.549489 0.802984 -0.526883
C33   C     C_R   0.401602 0.594647 0.028142 0.042702
C34   C     C_R   0.516090 0.579292 0.050936 0.069386
C35   C     C_R   0.627651 0.565071 0.023209 0.043663
C36   C     C_R   0.294703 0.617704 0.057416 -0.203460
H3    H     H_    0.420829 0.704723 0.647344 0.159612
H4    H     H_    0.418735 0.727279 0.734160 0.153778
H5    H     H_    0.193161 0.572969 0.886367 0.186921
H6    H     H_    0.195718 0.586816 0.971319 0.135871
H7    H     H_    0.205933 0.638439 0.042954 0.138360
O11   O     O_2   0.735691 0.520798 0.198399 -0.532560
C37   C     C_R   0.739229 0.539401 0.097833 -0.143175
H8    H     H_    0.627141 0.690367 0.353988 0.155375
H9    H     H_    0.636807 0.717941 0.266325 0.159207
H10   H     H_    0.826190 0.521872 0.114824 0.187139
C38   C     C_R   0.733697 0.566211 0.942498 -0.202586
C39   C     C_R   0.728876 0.560971 0.892666 -0.138007
O12   O     O_2   0.715038 0.542683 0.792786 -0.510946
C40   C     C_R   0.738246 0.544513 0.047846 -0.202995
H11   H     H_    0.824983 0.569792 0.956610 0.136879
H12   H     H_    0.815024 0.557728 0.871757 0.191907
H13   H     H_    0.570510 0.326795 0.749292 0.150077
H14   H     H_    0.825866 0.527898 0.029635 0.136983
C41   C     C_3   0.070153 0.615446 0.533039 -0.413412
C42   C     C_3   0.066992 0.360924 0.520562 -0.420762
H15   H     H_    0.115690 0.715475 0.523967 0.158167
H16   H     H_    0.090351 0.278540 0.495119 0.161235
H17   H     H_    0.087432 0.592631 0.571541 0.227085
H18   H     H_    0.106317 0.333151 0.555762 0.205444
C43   C     C_3   0.930924 0.630021 0.525278 0.138498
C44   C     C_3   0.925337 0.368153 0.524421 0.118448
H19   H     H_    0.919286 0.722931 0.502828 0.120891
H20   H     H_    0.886275 0.274787 0.507786 0.134552
H21   H     H_    0.120403 0.624280 0.436588 0.166808
H22   H     H_    0.137014 0.447344 0.425253 0.189037
C45   C     C_3   0.086411 0.520649 0.448832 -0.363282
C46   C     C_3   0.123681 0.498759 0.501420 0.008161
C47   C     C_3   0.879799 0.501485 0.497825 0.004438
C48   C     C_3   0.943325 0.505190 0.444138 0.269863
C49   C     C_3   0.626275 0.087240 0.489063 0.025851
C50   C     C_3   0.628220 0.921074 0.492778 0.034298
H23   H     H_    0.691233 0.125716 0.516219 0.164283
H24   H     H_    0.683494 0.894501 0.524595 0.164886
H25   H     H_    0.540769 0.100613 0.573608 0.109390
H26   H     H_    0.516181 0.877005 0.576530 0.141793
C51   C     C_3   0.462903 0.078690 0.549620 0.111563
C52   C     C_3   0.453676 0.913895 0.548280 0.093852
C53   C     C_3   0.415931 0.081136 0.463914 0.151236
C54   C     C_3   0.429657 0.918957 0.459788 0.166160
N3    N     N_3   0.500250 0.143650 0.501060 -0.168700
N4    N     N_3   0.500250 0.856350 0.501060 -0.159746
H27   H     H_    0.445791 0.123185 0.428186 0.183069
H28   H     H_    0.486606 0.906408 0.426170 0.135892
Br1   Br    Br    0.336660 0.271881 0.349914 -0.608512
C55   C     C_3   0.603232 0.264222 0.658072 -0.776335
H29   H     H_    0.690682 0.248040 0.676927 0.267876
H30   H     H_    0.541066 0.174595 0.666305 0.201798
H31   H     H_    0.628626 0.267121 0.619517 0.276977
Br2   Br    Br    0.844859 0.680684 0.585501 -0.463816
Br3   Br    Br    0.871052 0.344623 0.591619 -0.512773
C56   C     C_3   0.900832 0.624648 0.411833 -0.862885
H32   H     H_    0.944085 0.618076 0.375066 0.260517
H33   H     H_    0.799949 0.618308 0.407488 0.218166
H34   H     H_    0.930898 0.725834 0.424907 0.210552
C57   C     C_3   0.917137 0.374511 0.414598 -0.825951
H35   H     H_    0.944009 0.278544 0.432687 0.208809
H36   H     H_    0.819693 0.370566 0.404552 0.224056
H37   H     H_    0.971283 0.378176 0.379843 0.260375
C58   C     C_3   0.681271 0.144351 0.440063 -0.787188
H38   H     H_    0.634414 0.106000 0.408064 0.206157
H39   H     H_    0.672917 0.253421 0.435543 0.279114
H40   H     H_    0.780855 0.120634 0.436621 0.213786
C59   C     C_3   0.702515 0.860071 0.449279 -0.777572
H41   H     H_    0.670426 0.759386 0.439372 0.275850
H42   H     H_    0.693103 0.907891 0.413657 0.195051
H43   H     H_    0.801633 0.864659 0.457096 0.209364
C60   C     C_3   0.279498 0.127287 0.465830 -0.744161
H44   H     H_    0.237018 0.125511 0.501925 0.226543
H45   H     H_    0.270640 0.226060 0.446794 0.276544
H46   H     H_    0.215376 0.067642 0.444142 0.196106
C61   C     C_3   0.312104 0.843544 0.442584 -0.758334
H47   H     H_    0.234084 0.843520 0.469034 0.220155
H48   H     H_    0.281954 0.893651 0.408925 0.194298
H49   H     H_    0.326441 0.740199 0.429007 0.267736
C62   C     C_3   0.352327 0.145084 0.578334 -0.747100
H50   H     H_    0.330702 0.249012 0.567533 0.275856
H51   H     H_    0.261652 0.093214 0.576256 0.200017
H52   H     H_    0.371441 0.146283 0.617290 0.204049
C63   C     C_3   0.326259 0.854747 0.565957 -0.751715
H53   H     H_    0.320906 0.742896 0.568906 0.260804
H54   H     H_    0.306734 0.886305 0.603669 0.195142
H55   H     H_    0.251184 0.891109 0.543563 0.219542

loop_
_geom_bond_atom_site_label_1
_geom_bond_atom_site_label_2
_geom_bond_distance
_ccdc_geom_bond_type
C53   C60   1.552488 S    
C49   C50   1.620793 S    
C51   C52   1.607191 S    
C10   H1    1.083280 S    
N2    C27   1.368279 A    
C48   C57   1.550585 S    
C53   C54   1.594562 S    
C12   C15   1.408364 A    
C4    C17   1.491114 S    
C42   H18   1.112262 S    
C61   H47   1.100910 S    
C57   H36   1.101319 S    
C58   H40   1.108838 S    
Cu1   Cu2   2.773895 S    
C40   H14   1.076304 S    
C47   C48   1.620952 S    
C56   H32   1.112392 S    
Cu1   O7    1.946558 S    
C25   C39   1.396249 A    
N1    C11   1.437081 S    
C39   H12   1.083543 S    
C43   Br2   1.961021 S    
Cu1   N4    2.084103 S    
O3    Cu1   1.952623 S    
C37   C40   1.389578 A    
O4    C2    1.329097 A    
O7    C4    1.329343 A    
C44   H20   1.108917 S    
C5    C13   1.403710 A    
C52   N4    1.508392 S    
C5    O9    1.349932 S    
C58   H38   1.104728 S    
C54   C61   1.551006 S    
C55   H31   1.096699 S    
C5    N1    1.369143 A    
C23   C27   1.405375 A    
O5    C3    1.331024 A    
C31   H13   1.084432 S    
C42   C44   1.537798 S    
C29   H3    1.080359 S    
C6    O11   1.349573 S    
C2    C16   1.477761 S    
C21   C22   1.389308 A    
C58   H39   1.073860 S    
C62   H50   1.084017 S    
C54   N4    1.526699 S    
C52   C63   1.547402 S    
C8    H8    1.082557 S    
C51   C62   1.570851 S    
C59   H43   1.103075 S    
Cu2   O8    1.952324 S    
C9    Br1   1.909233 S    
C43   C47   1.576103 S    
O1    Cu1   1.982617 S    
C9    C10   1.396073 A    
C63   H55   1.101761 S    
C57   H35   1.103914 S    
H21   C45   1.112678 S    
C59   H42   1.096941 S    
C34   C35   1.420891 A    
C43   H19   1.103777 S    
C12   C34   1.422638 A    
C38   H11   1.076446 S    
C17   C29   1.411714 A    
C18   C21   1.416224 A    
C62   H52   1.109183 S    
C19   C20   1.421571 A    
C12   C13   1.407458 A    
C42   H16   1.103761 S    
C36   H7    1.076523 S    
C25   C26   1.404034 A    
C41   H15   1.105716 S    
C8    C16   1.408702 A    
C13   C14   1.396172 A    
C30   C31   1.403620 A    
H22   C45   1.114588 S    
C44   Br3   1.947481 S    
O1    C1    1.318753 A    
C35   C40   1.416347 A    
C18   C20   1.420828 A    
C7    C11   1.397791 A    
C28   C29   1.390859 A    
C23   C24   1.408440 A    
C14   C36   1.388784 A    
H25   C51   1.112240 S    
C28   H4    1.082984 S    
C45   C46   1.542377 S    
C19   C38   1.415586 A    
C33   C36   1.415470 A    
H26   C52   1.114412 S    
N1    C6    1.368388 A    
N2    C32   1.436965 S    
C27   O10   1.349615 S    
C55   H30   1.108892 S    
C49   C58   1.558665 S    
C42   C46   1.545700 S    
C60   H46   1.098184 S    
C44   C47   1.580882 S    
C63   H54   1.110465 S    
C26   N2    1.369101 A    
C9    C16   1.413362 A    
C50   H24   1.114974 S    
C14   H2    1.083534 S    
C26   O12   1.349900 S    
C49   H23   1.113128 S    
O3    C2    1.323614 A    
C50   C59   1.559645 S    
C3    C47   1.516116 S    
C61   H49   1.091615 S    
C51   N3    1.521311 S    
C41   C43   1.540008 S    
C59   H41   1.076606 S    
C60   H45   1.098922 S    
C41   C46   1.554546 S    
Cu1   O5    1.991189 S    
C31   C32   1.396776 A    
C22   C23   1.395975 A    
C37   H10   1.083548 S    
C21   H6    1.076409 S    
C20   C24   1.422685 A    
Cu2   O6    1.983047 S    
C48   C56   1.546524 S    
C6    C15   1.405693 A    
O8    C4    1.330225 A    
C63   H53   1.091602 S    
O6    C3    1.323944 A    
C61   H48   1.110946 S    
O4    Cu2   1.946847 S    
C53   N3    1.526733 S    
C19   C35   1.422347 A    
C56   H34   1.102168 S    
C7    C8    1.394214 A    
O2    C1    1.324819 A    
C22   H5    1.083565 S    
C15   C37   1.396034 A    
C41   H17   1.112575 S    
C24   C25   1.407531 A    
C7    H9    1.082810 S    
Cu2   N3    2.083485 S    
C54   H28   1.111107 S    
C56   H33   1.104385 S    
C53   H27   1.104479 S    
C55   H29   1.111054 S    
C18   C33   1.421918 A    
C30   C55   1.505661 S    
C38   C39   1.388985 A    
C45   C48   1.564727 S    
C62   H51   1.099741 S    
C33   C34   1.421394 A    
C17   C30   1.428842 A    
O2    Cu2   1.990759 S    
C1    C46   1.489421 S    
C10   C11   1.398944 A    
C28   C32   1.393266 A    
C57   H37   1.112395 S    
C50   N4    1.521038 S    
C60   H44   1.088824 S    
C49   N3    1.509770 S    
