data_mof_unit_50081.cif
_audit_creation_date              2012-12-10T17:54:23-0500
_audit_creation_method            fapswitch 2.2
_symmetry_space_group_name_H-M    P1
_symmetry_Int_Tables_number       1
_space_group_crystal_system       triclinic
_cell_length_a                    27.68513
_cell_length_b                    10.707296
_cell_length_c                    9.866427
_cell_angle_alpha                 89.329444
_cell_angle_beta                  89.850183
_cell_angle_gamma                 91.816242
_cell_volume                      2923.05080759

loop_
_atom_site_label
_atom_site_type_symbol
_atom_type_description
_atom_site_fract_x
_atom_site_fract_y
_atom_site_fract_z
_atom_type_partial_charge
C1    C     C_R   0.503210 0.259934 0.501849 0.867077
C2    C     C_R   0.277791 0.461755 0.382614 -0.157194
C3    C     C_R   0.252576 0.486470 0.501713 0.300696
C4    C     C_R   0.101605 0.496694 0.482188 -0.058951
C5    C     C_R   0.124421 0.381053 0.486233 -0.016494
C6    C     C_R   0.096440 0.270019 0.484992 -0.157409
C7    C     C_R   0.129563 0.608718 0.484629 -0.027360
C8    C     C_R   0.353298 0.494965 0.500849 -0.059506
C9    C     C_R   0.646503 0.500371 0.497505 -0.123136
C10   C     C_R   0.973123 0.395374 0.432862 0.029795
C11   C     C_R   0.976927 0.616255 0.501930 -0.018233
C12   C     C_R   0.406021 0.498988 0.500203 0.868780
C13   C     C_R   0.949615 0.507351 0.466261 -0.011380
C14   C     C_R   0.945616 0.295547 0.374154 0.182421
C15   C     C_R   0.895402 0.299185 0.373727 -0.219751
C16   C     C_R   0.871794 0.403209 0.421836 -0.023666
C17   C     C_R   0.898679 0.509402 0.465287 -0.103246
C18   C     C_R   0.874521 0.616414 0.508624 -0.100944
C19   C     C_R   0.823468 0.610948 0.511885 0.571721
C20   C     C_R   0.821447 0.404206 0.423961 0.502802
C21   C     C_R   0.723778 0.426979 0.572793 -0.171125
C22   C     C_R   0.673642 0.424265 0.585049 0.173393
C23   C     C_R   0.495036 0.738932 0.499866 0.890334
C24   C     C_R   0.670044 0.576327 0.399454 -0.321804
C25   C     C_R   0.720203 0.577906 0.386966 0.278325
C26   C     C_R   0.747043 0.503254 0.475142 0.236988
C27   C     C_R   0.023217 0.388412 0.458812 0.041950
C28   C     C_R   0.050765 0.500345 0.475404 0.056548
C29   C     C_R   0.027848 0.615963 0.485144 0.064776
C30   C     C_R   0.046525 0.273596 0.472469 -0.188543
C31   C     C_R   0.106793 0.723283 0.476438 -0.156308
C32   C     C_R   0.952693 0.719708 0.556368 0.129930
C33   C     C_R   0.901762 0.722319 0.553212 0.177466
C34   C     C_R   0.593865 0.498565 0.499901 0.901908
C35   C     C_R   0.056675 0.726836 0.475046 -0.177928
C36   C     C_R   0.510374 0.108406 0.761842 -0.172283
C37   C     C_R   0.494702 0.045689 0.879400 -0.142145
C38   C     C_R   0.469057 0.932585 0.869764 -0.154351
C39   C     C_R   0.463454 0.876632 0.743774 -0.148667
C40   C     C_R   0.483478 0.934328 0.625365 0.100897
C41   C     C_R   0.500186 0.058460 0.631835 0.100420
C42   C     C_R   0.505516 0.126045 0.507360 -0.127861
C43   C     C_R   0.504946 0.064339 0.383340 -0.216799
C44   C     C_R   0.498528 0.937360 0.380735 -0.212966
C45   C     C_R   0.174824 0.379734 0.493545 0.490416
C46   C     C_R   0.489171 0.871519 0.501222 -0.127848
C47   C     C_R   0.436260 0.336224 0.142769 -0.177662
C48   C     C_R   0.404755 0.256184 0.073321 -0.216869
C49   C     C_R   0.404665 0.256676 0.933080 -0.178756
C50   C     C_R   0.436194 0.336928 0.861581 -0.157489
C51   C     C_R   0.468559 0.419432 0.928674 0.147372
C52   C     C_R   0.468587 0.419302 0.073561 0.171679
C53   C     C_R   0.529949 0.577405 0.070444 -0.121352
C54   C     C_R   0.529939 0.577354 0.927009 -0.124435
C55   C     C_R   0.179845 0.602967 0.492004 0.538872
C56   C     C_R   0.277555 0.514471 0.622072 0.269469
C57   C     C_R   0.328003 0.518798 0.620744 -0.293333
C58   C     C_R   0.327915 0.466119 0.381905 -0.222256
H1    H     H_    0.127566 0.810685 0.471392 0.193062
H2    H     H_    0.649292 0.634249 0.331733 0.160488
H3    H     H_    0.454894 0.886225 0.960214 0.140730
H4    H     H_    0.443246 0.788594 0.740020 0.159633
H5    H     H_    0.501746 0.890843 0.284300 0.168672
H6    H     H_    0.554363 0.640529 0.123643 0.144536
H7    H     H_    0.434028 0.330102 0.250229 0.209104
H8    H     H_    0.380294 0.193326 0.128856 0.162279
H9    H     H_    0.380263 0.193916 0.879169 0.162238
H10   H     H_    0.434399 0.330638 0.754220 0.212128
H11   H     H_    0.554326 0.640496 0.871795 0.157181
H12   H     H_    0.112969 0.179903 0.493444 0.189400
H13   H     H_    0.744970 0.369558 0.639776 0.165184
H14   H     H_    0.874893 0.220914 0.331810 0.187077
H15   H     H_    0.026530 0.185456 0.478560 0.169949
H16   H     H_    0.347282 0.541202 0.713226 0.163135
N1    N     N_R   0.201188 0.489677 0.497298 -0.346143
N2    N     N_R   0.798597 0.506689 0.468868 -0.342563
N3    N     N_R   0.499540 0.498800 0.142780 -0.121216
N4    N     N_R   0.499520 0.498720 0.857170 -0.128832
O1    O     O_R   0.500000 0.316780 0.614690 -0.651767
O2    O     O_2   0.795276 0.303616 0.381385 -0.572793
O3    O     O_2   0.207317 0.709384 0.493204 -0.555023
O4    O     O_2   0.798476 0.707121 0.560070 -0.532177
O5    O     O_R   0.500000 0.316750 0.385360 -0.638010
O6    O     O_R   0.428760 0.500030 0.614650 -0.646334
O7    O     O_R   0.428750 0.500010 0.385320 -0.638014
O8    O     O_R   0.500000 0.683250 0.614640 -0.623054
O9    O     O_R   0.500000 0.683220 0.385310 -0.619745
O10   O     O_R   0.571250 0.499990 0.614680 -0.627026
O11   O     O_R   0.571240 0.499970 0.385350 -0.609814
O12   O     O_2   0.197422 0.269877 0.497263 -0.562783
Zn1   Zn    Zn3+2 0.500000 0.500020 0.653130 0.921040
Zn2   Zn    Zn3+2 0.500000 0.499980 0.346870 0.937380
H17   H     H_    0.346721 0.446873 0.288424 0.168764
N5    N     N_2   0.252042 0.542051 0.742858 -0.298903
H18   H     H_    0.269749 0.607342 0.802498 0.232181
C59   C     C_3   0.236141 0.433003 0.820644 -0.767545
H19   H     H_    0.215118 0.462559 0.910074 0.239775
H20   H     H_    0.267817 0.380708 0.856568 0.237799
H21   H     H_    0.212477 0.370690 0.758809 0.269682
N6    N     N_2   0.979169 0.814902 0.627227 -0.326581
H22   H     H_    0.967156 0.904482 0.616006 0.223198
C60   C     C_3   0.991221 0.782453 0.765503 -0.772994
H23   H     H_    0.014183 0.858433 0.809655 0.241014
H24   H     H_    0.011741 0.694956 0.768793 0.259810
H25   H     H_    0.957816 0.769938 0.827494 0.231531
N7    N     N_2   0.877964 0.830478 0.598524 -0.252738
H26   H     H_    0.890378 0.866696 0.688749 0.225612
C61   C     C_3   0.871121 0.924489 0.494315 -0.698600
H27   H     H_    0.906517 0.963990 0.458561 0.187501
H28   H     H_    0.849691 0.001226 0.535887 0.250322
H29   H     H_    0.851167 0.883565 0.407022 0.263290
N8    N     N_2   0.743634 0.656295 0.287793 -0.294674
H30   H     H_    0.725441 0.736722 0.266142 0.232084
C62   C     C_3   0.757576 0.592460 0.166085 -0.762879
H31   H     H_    0.777092 0.659319 0.096868 0.241944
H32   H     H_    0.725015 0.554198 0.113288 0.240612
H33   H     H_    0.782058 0.515357 0.190459 0.262333
H34   H     H_    0.041070 0.817281 0.461504 0.167600
H35   H     H_    0.509914 0.113891 0.287637 0.172376
H36   H     H_    0.531686 0.193419 0.775674 0.171815
H37   H     H_    0.501591 0.086296 0.977753 0.144250
H38   H     H_    0.258363 0.441004 0.290015 0.148518
N9    N     N_2   0.651733 0.340902 0.682102 -0.311663
H39   H     H_    0.625827 0.378665 0.742863 0.249016
C63   C     C_3   0.637845 0.219594 0.629446 -0.749060
H40   H     H_    0.623862 0.158409 0.713268 0.233837
H41   H     H_    0.669587 0.175006 0.583536 0.264227
H42   H     H_    0.609095 0.228669 0.551971 0.222379
N10   N     N_2   0.967784 0.196938 0.303528 -0.328269
H43   H     H_    0.947052 0.115357 0.298615 0.215870
C64   C     C_3   0.988125 0.233227 0.173129 -0.758653
H44   H     H_    0.006594 0.152722 0.128631 0.236825
H45   H     H_    0.015150 0.311342 0.183935 0.255323
H46   H     H_    0.959039 0.262237 0.103141 0.239168

loop_
_geom_bond_atom_site_label_1
_geom_bond_atom_site_label_2
_ccdc_geom_bond_type
C10   C27   A    
C21   C26   A    
N3    Zn2   S    
C41   C42   A    
C7    C55   A    
C64   H46   S    
N8    C62   S    
C62   H31   S    
C22   N9    S    
C53   C54   A    
C56   C57   A    
C40   C46   A    
C15   H14   S    
C12   O6    A    
C12   O7    A    
C21   H13   S    
C28   C29   A    
C58   H17   S    
O8    Zn1   S    
C5    C6    A    
C60   H24   S    
C53   H6    S    
C9    C22   A    
N9    C63   S    
N7    H26   S    
C15   C16   A    
C59   H21   S    
C61   H27   S    
C20   N2    A    
C60   H25   S    
C18   C19   A    
C31   H1    S    
C25   N8    S    
C8    C58   A    
C16   C17   A    
C23   O8    A    
C59   H20   S    
C63   H42   S    
C26   N2    S    
O6    Zn1   S    
C55   O3    S    
C19   O4    S    
C3    N1    S    
O1    Zn1   S    
C8    C12   S    
C38   H3    S    
C55   N1    A    
C63   H40   S    
C23   C46   S    
C23   O9    A    
C21   C22   A    
C27   C30   A    
C36   C41   A    
C56   N5    S    
C4    C7    A    
N8    H30   S    
C4    C28   A    
O7    Zn2   S    
C44   C46   A    
C17   C18   A    
C2    H38   S    
C44   H5    S    
C7    C31   A    
C20   O2    S    
C51   C52   A    
N9    H39   S    
C24   C25   A    
C10   C14   A    
C39   C40   A    
C30   H15   S    
C25   C26   A    
C5    C45   A    
C32   N6    S    
C57   H16   S    
C53   N3    A    
C43   C44   A    
C37   C38   A    
O5    Zn2   S    
C8    C57   A    
C3    C56   A    
C47   C48   A    
O10   Zn1   S    
C16   C20   A    
C59   H19   S    
N6    C60   S    
C50   C51   A    
N5    H18   S    
C34   O10   A    
O11   Zn2   S    
N5    C59   S    
C45   O12   S    
C37   H37   S    
C40   C41   A    
C6    C30   A    
C11   C32   A    
C9    C34   S    
C1    O1    A    
C31   C35   A    
C42   C43   A    
C52   N3    A    
N10   H43   S    
C6    H12   S    
C39   H4    S    
C19   N2    A    
C49   H9    S    
C33   N7    S    
C4    C5    A    
C64   H45   S    
C10   C13   A    
C62   H32   S    
C2    C58   A    
C9    C24   A    
C47   C52   A    
N4    Zn1   S    
C1    O5    A    
C29   C35   A    
C61   H29   S    
C13   C17   A    
C45   N1    A    
C32   C33   A    
C2    C3    A    
C34   O11   A    
C11   C13   A    
C38   C39   A    
C54   H11   S    
N7    C61   S    
C48   C49   A    
N10   C64   S    
N6    H22   S    
C61   H28   S    
C60   H23   S    
C36   H36   S    
C18   C33   A    
C51   N4    A    
C62   H33   S    
C1    C42   S    
C11   C29   A    
C36   C37   A    
C49   C50   A    
C27   C28   A    
C63   H41   S    
C14   C15   A    
C35   H34   S    
C24   H2    S    
C48   H8    S    
O9    Zn2   S    
C50   H10   S    
C47   H7    S    
C64   H44   S    
C43   H35   S    
C54   N4    A    
C14   N10   S    
