data_mof_unit_14330.cif
_audit_creation_date              2012-10-26T20:51:13-0400
_audit_creation_method            fapswitch 2.2
_symmetry_space_group_name_H-M    P1
_symmetry_Int_Tables_number       1
_space_group_crystal_system       triclinic
_cell_length_a                    13.027835
_cell_length_b                    10.833144
_cell_length_c                    9.612819
_cell_angle_alpha                 92.120056
_cell_angle_beta                  97.306813
_cell_angle_gamma                 92.043922
_cell_volume                      1343.62625718

loop_
_atom_site_label
_atom_site_type_symbol
_atom_type_description
_atom_site_fract_x
_atom_site_fract_y
_atom_site_fract_z
_atom_type_partial_charge
C1    C     C_R   0.499014 0.262720 0.497851 0.538029
C2    C     C_R   0.428732 0.929422 0.402570 0.273173
C3    C     C_R   0.494755 0.871261 0.505827 0.015903
C4    C     C_R   0.300397 0.497085 0.472844 0.551020
C5    C     C_R   0.562930 0.943779 0.602788 -0.052177
C6    C     C_3   0.566267 0.954020 0.759397 -0.281772
C7    C     C_3   0.570582 0.092359 0.751396 -0.248759
C8    C     C_R   0.576707 0.559554 0.088117 0.166135
C9    C     C_R   0.431897 0.426041 0.057397 0.205364
C10   C     C_R   0.427748 0.433628 0.908826 -0.023104
C11   C     C_R   0.582454 0.550313 0.943419 0.088430
C12   C     C_R   0.028948 0.521388 0.560676 0.002923
C13   C     C_3   0.633807 0.676276 0.945432 0.030012
C14   C     C_3   0.614363 0.692321 0.100714 0.512502
C15   C     C_R   0.498899 0.737530 0.502285 0.564622
C16   C     C_R   0.699519 0.499963 0.527038 0.544132
C17   C     C_R   0.812854 0.502217 0.541664 -0.005690
C18   C     C_R   0.186783 0.491313 0.457048 -0.028660
C19   C     C_R   0.019714 0.443086 0.317777 0.137658
C20   C     C_R   0.127933 0.436943 0.335886 0.278425
C21   C     C_R   0.136457 0.531902 0.569768 -0.206876
C22   C     C_3   0.398232 0.210152 0.075630 -0.304829
C23   C     C_R   0.969790 0.482283 0.432023 0.021122
C24   C     C_3   0.796984 0.771998 0.884364 -0.322803
C25   C     C_3   0.730200 0.828561 0.244246 -0.060907
C26   C     C_3   0.439002 0.760388 0.050236 -0.099537
C27   C     C_3   0.970355 0.476619 0.072359 -0.304268
C28   C     C_3   0.180036 0.245357 0.287859 -0.128860
C29   C     C_3   0.264927 0.846327 0.371278 -0.138343
C30   C     C_R   0.861908 0.477199 0.422786 -0.097199
C31   C     C_R   0.872567 0.531679 0.670728 -0.151024
C32   C     C_R   0.979832 0.545641 0.679552 -0.139260
C33   C     C_R   0.565314 0.071620 0.596926 0.000407
C34   C     C_R   0.501506 0.129650 0.494400 -0.038633
C35   C     C_R   0.434044 0.058113 0.396323 -0.146559
Cu1   Cu    Cu3+1 0.499990 0.499980 0.640670 0.921755
Cu2   Cu    Cu3+1 0.500010 0.500020 0.359330 1.043790
H1    H     H_    0.815762 0.450541 0.323692 0.173081
H2    H     H_    0.379411 0.102143 0.323031 0.118559
H3    H     H_    0.494180 0.917144 0.796469 0.134036
H4    H     H_    0.291911 0.344793 0.068111 0.266987
H5    H     H_    0.400711 0.194946 0.961381 0.097429
H6    H     H_    0.340213 0.141344 0.103034 0.122967
H7    H     H_    0.475471 0.192790 0.133154 0.179857
H8    H     H_    0.785142 0.612858 0.000381 0.271018
H9    H     H_    0.880487 0.753331 0.887282 0.127136
H10   H     H_    0.789886 0.853444 0.955057 0.137130
H11   H     H_    0.766535 0.791332 0.774528 0.158513
H12   H     H_    0.639208 0.922806 0.815392 0.131794
H13   H     H_    0.682470 0.855348 0.327578 0.159287
H14   H     H_    0.719038 0.893687 0.157378 0.119212
H15   H     H_    0.812719 0.836877 0.290521 0.104155
H16   H     H_    0.392468 0.694145 0.104281 0.182853
H17   H     H_    0.438734 0.729119 0.939380 0.061640
H18   H     H_    0.399041 0.849110 0.047777 0.160712
H19   H     H_    0.971684 0.307071 0.164866 0.259324
H20   H     H_    0.913281 0.443566 0.981887 0.132628
H21   H     H_    0.049260 0.472829 0.040497 0.172100
H22   H     H_    0.954827 0.573888 0.100900 0.147745
H23   H     H_    0.500787 0.135468 0.783671 0.146980
H24   H     H_    0.106899 0.210143 0.324167 0.087913
H25   H     H_    0.245370 0.239752 0.373459 0.126240
H26   H     H_    0.193746 0.182462 0.199439 0.126833
H27   H     H_    0.278112 0.795812 0.470364 0.113374
H28   H     H_    0.207772 0.790097 0.297413 0.137101
H29   H     H_    0.230626 0.937049 0.390761 0.093470
H30   H     H_    0.645845 0.136741 0.798723 0.138937
H31   H     H_    0.368817 0.380742 0.839601 0.123903
H32   H     H_    0.592122 0.735797 0.869094 0.141592
H33   H     H_    0.836337 0.544653 0.764148 0.160409
H34   H     H_    0.024439 0.572111 0.779840 0.097523
H35   H     H_    0.181100 0.567722 0.666714 0.130993
N1    N     N_R   0.500660 0.500930 0.148010 -0.238863
N2    N     N_R   0.500660 0.500890 0.852110 -0.272748
N3    N     N_2   0.368034 0.334552 0.108543 -0.439013
N4    N     N_2   0.742330 0.664795 0.928232 -0.525510
N5    N     N_2   0.961033 0.398775 0.189422 -0.525112
O1    O     O_R   0.500000 0.319640 0.618810 -0.509695
O2    O     O_3   0.539031 0.781489 0.126510 -0.561437
O3    O     O_3   0.174101 0.367262 0.240436 -0.571692
O4    O     O_3   0.356889 0.861384 0.309584 -0.566803
O5    O     O_R   0.500010 0.319680 0.381230 -0.485150
O6    O     O_R   0.348990 0.499960 0.599490 -0.533161
O7    O     O_R   0.349000 0.500000 0.361910 -0.439571
O8    O     O_R   0.499990 0.680320 0.618770 -0.530860
O9    O     O_R   0.500000 0.680360 0.381190 -0.424133
O10   O     O_R   0.651000 0.500000 0.638090 -0.485451
O11   O     O_R   0.651010 0.500040 0.400510 -0.490896
O12   O     O_3   0.706246 0.704436 0.198163 -0.559476

loop_
_geom_bond_atom_site_label_1
_geom_bond_atom_site_label_2
_ccdc_geom_bond_type
C2    C35   A    
C17   C30   A    
C18   C21   A    
C11   C13   S    
Cu2   O11   S    
C19   C23   A    
C19   C20   A    
C26   H18   S    
C12   C23   A    
H8    N4    S    
Cu1   Cu2   S    
C5    C6    S    
Cu1   O6    S    
C30   H1    S    
C34   C35   A    
C19   N5    S    
C25   H13   S    
C31   H33   S    
C22   H7    S    
C22   H6    S    
C16   C17   S    
C5    C33   A    
C16   O10   A    
Cu2   O7    S    
C9    C10   A    
C15   O8    A    
C4    C18   S    
C28   H24   S    
C29   H27   S    
C13   C14   S    
C12   C32   A    
C1    O1    A    
C7    C33   S    
C9    N1    A    
C22   N3    S    
C26   H17   S    
C1    C34   S    
C32   H34   S    
Cu1   O10   S    
C20   O3    S    
C21   H35   S    
C24   H11   S    
C23   C30   A    
Cu2   O9    S    
C27   H20   S    
C24   N4    S    
C3    C5    A    
C1    O5    A    
C12   C21   A    
C27   H21   S    
H19   N5    S    
C35   H2    S    
C25   H14   S    
C14   O12   S    
C29   O4    S    
H4    N3    S    
C31   C32   A    
C4    O7    A    
C13   N4    S    
C33   C34   A    
C14   O2    S    
Cu1   N2    S    
C15   O9    A    
C29   H28   S    
C17   C31   A    
C6    H3    S    
Cu2   O5    S    
C26   H16   S    
C7    H23   S    
C3    C15   S    
Cu2   N1    S    
C8    C14   S    
C24   H10   S    
C27   N5    S    
C11   N2    A    
C6    C7    S    
C10   H31   S    
Cu1   O8    S    
C25   O12   S    
C26   O2    S    
C24   H9    S    
C2    C3    A    
C25   H15   S    
C27   H22   S    
C10   N2    A    
C22   H5    S    
C4    O6    A    
C13   H32   S    
C8    C11   A    
C8    N1    A    
C18   C20   A    
C6    H12   S    
C28   O3    S    
C7    H30   S    
C29   H29   S    
C28   H26   S    
C16   O11   A    
C2    O4    S    
Cu1   O1    S    
C9    N3    S    
C28   H25   S    
