data_mof_unit_59111.cif
_audit_creation_date              2013-03-05T15:44:39-0500
_audit_creation_method            fapswitch 2.2
_symmetry_space_group_name_H-M    P1
_symmetry_Int_Tables_number       1
_space_group_crystal_system       triclinic
_cell_length_a                    24.997515
_cell_length_b                    7.167945
_cell_length_c                    14.409404
_cell_angle_alpha                 89.997384
_cell_angle_beta                  102.876462
_cell_angle_gamma                 89.995958
_cell_volume                      2516.96150397

loop_
_atom_site_label
_atom_site_type_symbol
_atom_site_description
_atom_site_fract_x
_atom_site_fract_y
_atom_site_fract_z
_atom_type_partial_charge
O1    O     O_R   0.319150 0.364170 0.330530 -0.575299
O2    O     O_R   0.680850 0.635830 0.669470 -0.580902
O3    O     O_R   0.180850 0.864170 0.169470 -0.575357
O4    O     O_R   0.819150 0.135830 0.830530 -0.580860
O5    O     O_R   0.210330 0.696850 0.354180 -0.594359
O6    O     O_R   0.789670 0.303150 0.645820 -0.592115
O7    O     O_R   0.289670 0.196850 0.145820 -0.594352
O8    O     O_R   0.710330 0.803150 0.854180 -0.592131
C1    C     C_R   0.196429 0.525346 0.377051 0.987956
C2    C     C_R   0.803191 0.474955 0.622202 0.986971
C3    C     C_R   0.303571 0.025345 0.122950 0.987948
C4    C     C_R   0.696809 0.974955 0.877798 0.986990
O9    O     O_R   0.320550 0.694110 0.341970 -0.562158
O10   O     O_R   0.679450 0.305890 0.658030 -0.554976
O11   O     O_R   0.179450 0.194110 0.158030 -0.562208
O12   O     O_R   0.820550 0.805890 0.841970 -0.555011
O13   O     O_R   0.291860 0.861000 0.157170 -0.567194
O14   O     O_R   0.708140 0.139000 0.842830 -0.568693
O15   O     O_R   0.208140 0.361000 0.342830 -0.567035
O16   O     O_R   0.791860 0.639000 0.657170 -0.568656
C5    C     C_R   0.341976 0.524665 0.361832 0.991513
C6    C     C_R   0.658239 0.475228 0.637501 0.977748
C7    C     C_R   0.158019 0.024686 0.138184 0.991852
C8    C     C_R   0.841759 0.975208 0.862503 0.977804
O17   O     O_3   0.240460 0.529330 0.189380 -0.285508
O18   O     O_3   0.759540 0.470670 0.810620 -0.280741
O19   O     O_3   0.259540 0.029330 0.310620 -0.285399
O20   O     O_3   0.740460 0.970670 0.689380 -0.280725
V1    V     V_3+5 0.251770 0.805510 0.261240 1.280937
V2    V     V_3+5 0.748230 0.194490 0.738760 1.284184
V3    V     V_3+5 0.248230 0.305510 0.238760 1.280944
V4    V     V_3+5 0.751770 0.694490 0.761240 1.284188
C9    C     C_R   0.102543 0.006336 0.075255 -0.267099
C10   C     C_R   0.896933 0.992452 0.926505 -0.314731
C11   C     C_R   0.397444 0.506260 0.424783 -0.267393
C12   C     C_R   0.603054 0.492539 0.573526 -0.315072
C13   C     C_R   0.958477 0.180116 0.045161 -0.014319
C14   C     C_R   0.040869 0.817757 0.957197 0.002371
C15   C     C_R   0.541450 0.680557 0.455090 -0.014412
C16   C     C_R   0.459156 0.317446 0.542701 0.002318
C17   C     C_R   0.906090 0.140248 0.991970 -0.097310
C18   C     C_R   0.093274 0.857954 0.010112 -0.085336
C19   C     C_R   0.593853 0.640621 0.508211 -0.096863
C20   C     C_R   0.406741 0.357669 0.489815 -0.084665
C21   C     C_R   0.941605 0.879215 0.916568 0.308671
C22   C     C_R   0.057867 0.119453 0.085351 0.311588
C23   C     C_R   0.558407 0.379113 0.583383 0.308868
C24   C     C_R   0.442096 0.619555 0.414797 0.311868
C25   C     C_R   0.995363 0.922311 0.969087 -0.007911
C26   C     C_R   0.004041 0.075866 0.033155 -0.015963
C27   C     C_R   0.504640 0.422213 0.530902 -0.008123
C28   C     C_R   0.495924 0.575998 0.466973 -0.016228
H1    H     H_    0.127032 0.770461 0.000690 0.157085
H2    H     H_    0.872304 0.227772 0.001216 0.171493
H3    H     H_    0.373003 0.270019 0.499160 0.157243
H4    H     H_    0.627612 0.728345 0.499047 0.171653
H5    H     H_    0.962872 0.294766 0.095051 0.197213
H6    H     H_    0.036417 0.702651 0.907555 0.195662
H7    H     H_    0.537003 0.795521 0.405363 0.197140
H8    H     H_    0.463634 0.202153 0.592242 0.195738
C29   C     C_R   0.663950 0.988655 0.950424 -0.176516
C30   C     C_R   0.336864 0.013899 0.051219 -0.174428
C31   C     C_R   0.836050 0.488651 0.549575 -0.176484
C32   C     C_R   0.163136 0.513905 0.448782 -0.174310
C33   C     C_R   0.654786 0.117998 0.102454 -0.048102
C34   C     C_R   0.340948 0.941029 0.888721 -0.064277
C35   C     C_R   0.845208 0.617973 0.397532 -0.048118
C36   C     C_R   0.159056 0.441051 0.611286 -0.064276
C37   C     C_R   0.685161 0.091395 0.032752 -0.186196
C38   C     C_R   0.311773 0.950468 0.960736 -0.205437
C39   C     C_R   0.814834 0.591380 0.467237 -0.186175
C40   C     C_R   0.188230 0.450483 0.539270 -0.205463
C41   C     C_R   0.609671 0.921561 0.933515 -0.108131
C42   C     C_R   0.392625 0.066270 0.071368 -0.115640
C43   C     C_R   0.890333 0.421560 0.566492 -0.108230
C44   C     C_R   0.107373 0.566274 0.428627 -0.115752
C45   C     C_R   0.574938 0.981320 0.993849 0.069325
C46   C     C_R   0.425924 0.009099 0.007795 0.084104
C47   C     C_R   0.925063 0.481313 0.506151 0.069345
C48   C     C_R   0.074076 0.509104 0.492205 0.084094
C49   C     C_R   0.600100 0.049197 0.085884 -0.055834
C50   C     C_R   0.399341 0.954972 0.913007 -0.068350
C51   C     C_R   0.899898 0.549177 0.414110 -0.055814
C52   C     C_R   0.100663 0.454991 0.586999 -0.068348
C53   C     C_R   0.516216 0.977940 0.966197 0.035630
C54   C     C_R   0.484718 0.003783 0.035612 0.051065
C55   C     C_R   0.983786 0.477942 0.533805 0.035634
C56   C     C_R   0.015283 0.503778 0.464387 0.051072
C57   C     C_R   0.513062 0.010114 0.131749 -0.236004
C58   C     C_R   0.488252 0.956032 0.870858 -0.210605
C59   C     C_R   0.986939 0.510092 0.368249 -0.236091
C60   C     C_R   0.011750 0.456051 0.629145 -0.210570
C61   C     C_R   0.569678 0.039771 0.157680 0.363373
C62   C     C_R   0.432133 0.920772 0.846044 0.342972
C63   C     C_R   0.930321 0.539746 0.342315 0.363339
C64   C     C_R   0.067871 0.420798 0.653964 0.342954
H9    H     H_    0.267840 0.925609 0.944099 0.141924
H10   H     H_    0.725982 0.150695 0.042681 0.144212
H11   H     H_    0.232165 0.425627 0.555910 0.141925
H12   H     H_    0.774010 0.650677 0.457302 0.144229
H13   H     H_    0.491725 0.988002 0.188244 0.190477
H14   H     H_    0.509788 0.956733 0.813930 0.191939
H15   H     H_    0.008279 0.487975 0.311758 0.190484
H16   H     H_    0.990213 0.456757 0.686073 0.191951
N1    N     N_R   0.066777 0.274619 0.149737 0.224697
O21   O     O_R   0.085081 0.247805 0.240560 -0.429348
O22   O     O_R   0.057398 0.443507 0.117131 -0.352933
N2    N     N_R   0.932847 0.725898 0.851025 0.231553
O23   O     O_R   0.916919 0.755893 0.759993 -0.392131
O24   O     O_R   0.940886 0.555852 0.882569 -0.358319
N3    N     N_R   0.433161 0.774879 0.350518 0.224794
O25   O     O_R   0.442094 0.943806 0.383340 -0.352888
O26   O     O_R   0.415189 0.748163 0.259597 -0.429503
N4    N     N_R   0.567198 0.225632 0.648833 0.231619
O27   O     O_R   0.583069 0.255428 0.739889 -0.392094
O28   O     O_R   0.559223 0.055647 0.617188 -0.358633
N5    N     N_R   0.595967 0.037563 0.257169 0.233871
O29   O     O_R   0.639957 0.937867 0.287060 -0.394995
O30   O     O_R   0.571692 0.111578 0.319336 -0.373988
N6    N     N_R   0.410979 0.832293 0.755871 0.237619
O31   O     O_R   0.386853 0.670906 0.753497 -0.377780
O32   O     O_R   0.426116 0.890422 0.680064 -0.378246
N7    N     N_R   0.904033 0.537532 0.242826 0.233828
O33   O     O_R   0.860051 0.437826 0.212940 -0.395082
O34   O     O_R   0.928303 0.611559 0.180655 -0.373756
N8    N     N_R   0.089031 0.332336 0.744147 0.237614
O35   O     O_R   0.113165 0.170948 0.746539 -0.377809
O36   O     O_R   0.073890 0.390480 0.819948 -0.378224
C65   C     C_2   0.413135 0.204495 0.148540 1.008557
O37   O     O_2   0.401853 0.188909 0.226446 -0.575045
O38   O     O_R   0.446103 0.352573 0.131473 -0.763040
H17   H     H_    0.458637 0.435020 0.189400 0.355973
C66   C     C_2   0.592280 0.770346 0.862813 0.994259
O39   O     O_2   0.571155 0.629046 0.886117 -0.588578
O40   O     O_R   0.597765 0.792342 0.769166 -0.730731
H18   H     H_    0.580508 0.685627 0.726951 0.337428
C67   C     C_2   0.086856 0.704499 0.351445 1.008759
O41   O     O_2   0.098154 0.688947 0.273551 -0.575102
O42   O     O_R   0.053867 0.852546 0.368492 -0.763035
H19   H     H_    0.041329 0.934993 0.310559 0.355890
C68   C     C_2   0.907733 0.270354 0.637209 0.994339
O43   O     O_2   0.928877 0.129071 0.613926 -0.588498
O44   O     O_R   0.902230 0.292339 0.730846 -0.730760
H20   H     H_    0.919493 0.185636 0.773075 0.337445
C69   C     C_2   0.678793 0.241070 0.184106 1.109376
O45   O     O_2   0.728037 0.235150 0.219430 -0.595603
O46   O     O_R   0.645549 0.369186 0.218174 -0.760774
H21   H     H_    0.666780 0.446345 0.273173 0.354265
C70   C     C_2   0.307983 0.936783 0.789419 1.145974
O47   O     O_2   0.268261 0.833310 0.768001 -0.614216
O48   O     O_R   0.320729 0.058082 0.721430 -0.742201
H22   H     H_    0.295014 0.043454 0.656648 0.339474
C71   C     C_2   0.821195 0.741033 0.315868 1.109400
O49   O     O_2   0.771950 0.735102 0.280542 -0.595598
O50   O     O_R   0.854430 0.869150 0.281788 -0.760807
H23   H     H_    0.833195 0.946298 0.226780 0.354232
C72   C     C_2   0.192021 0.436816 0.710588 1.145951
O51   O     O_2   0.231748 0.333333 0.732017 -0.614192
O52   O     O_R   0.179269 0.558123 0.778566 -0.742222
H24   H     H_    0.204984 0.543500 0.843350 0.339471

loop_
_geom_bond_atom_site_label_1
_geom_bond_atom_site_label_2
_geom_bond_distance
_ccdc_geom_bond_type
O17   V3    1.748180 S    
C23   N4    1.433711 S    
C55   C56   1.416249 A    
O1    C5    1.318301 A    
C72   O51   1.222682 D    
C50   C62   1.419719 A    
O19   V1    1.748266 S    
C1    C32   1.466651 S    
O13   V1    2.020167 S    
O3    C7    1.318313 A    
N3    O25   1.301064 A    
C60   C64   1.391459 A    
C48   C52   1.432890 A    
C3    C30   1.466647 S    
O15   V3    2.020166 S    
C2    C31   1.470594 S    
C47   C55   1.432984 A    
N4    O27   1.300988 A    
O40   H18   1.012110 S    
C14   C25   1.404212 A    
C53   C54   1.416245 A    
O7    C3    1.338528 A    
C67   O42   1.398820 S    
N8    O35   1.301544 A    
C16   H8    1.081388 S    
C9    C18   1.403292 A    
O9    V1    2.013754 S    
C14   C18   1.391175 A    
C70   O48   1.398695 S    
C18   H1    1.083887 S    
C69   O45   1.223500 D    
O4    C8    1.319481 A    
N7    O34   1.301692 A    
C39   H12   1.085065 S    
C63   N7    1.437828 S    
O44   H20   1.012108 S    
C22   N1    1.433672 S    
O1    V3    2.005895 S    
C49   C61   1.415567 A    
N2    O23   1.300986 A    
C30   C38   1.391265 A    
C12   C23   1.413335 A    
O2    V4    2.005893 S    
C52   C64   1.419725 A    
O3    V1    2.005819 S    
C58   H14   1.076841 S    
C43   C68   1.484763 S    
C14   H6    1.081383 S    
C62   N6    1.436674 S    
C1    O15   1.334515 A    
O46   H21   1.014021 S    
C2    O16   1.334312 A    
C7    C9    1.483979 S    
O2    C6    1.319474 A    
O48   H22   1.013987 S    
O14   V2    2.020167 S    
C45   C49   1.421049 A    
C71   O50   1.398800 S    
C16   C20   1.391215 A    
C38   H9    1.085364 S    
C36   C40   1.396616 A    
C37   H10   1.085068 S    
C46   C54   1.435127 A    
O11   C7    1.332455 A    
C15   C28   1.404681 A    
C67   O41   1.221997 D    
C45   C53   1.432981 A    
C72   O52   1.398694 S    
C55   C60   1.404475 A    
C57   C61   1.397181 A    
C9    C22   1.413556 A    
C10   C17   1.403016 A    
C61   N5    1.437831 S    
O10   V2    2.013754 S    
C11   C24   1.413431 A    
C69   O46   1.398799 S    
N6    O32   1.301615 A    
C58   C62   1.391459 A    
O5    V1    2.022755 S    
O42   H19   1.013728 S    
O7    V3    2.022743 S    
C64   N8    1.436671 S    
C27   C28   1.421824 A    
C36   C52   1.426696 A    
N7    O33   1.301584 A    
C34   C70   1.483872 S    
C59   H15   1.079746 S    
O18   V4    1.748181 S    
C23   C27   1.421518 A    
C29   C41   1.408702 A    
C44   C67   1.492378 S    
C8    C10   1.483638 S    
N4    O28   1.300711 A    
C68   O44   1.395342 S    
O8    V4    2.022745 S    
O5    C1    1.338534 A    
C34   C50   1.426695 A    
N1    O22   1.300780 A    
C46   C50   1.432890 A    
C33   C49   1.422520 A    
O52   H24   1.013987 S    
C56   C59   1.409122 A    
C21   C25   1.421533 A    
O8    C4    1.340847 A    
C15   H7    1.081329 S    
C32   C44   1.409908 A    
O9    C5    1.332482 A    
N3    O26   1.301001 A    
C10   C21   1.413313 A    
C51   C63   1.415574 A    
C11   C20   1.403332 A    
O6    V2    2.022755 S    
C31   C39   1.396630 A    
C68   O43   1.223317 D    
C66   O39   1.223318 D    
C33   C69   1.485978 S    
O38   H17   1.013724 S    
C35   C51   1.422524 A    
N6    O31   1.301544 A    
C65   O37   1.221994 D    
O16   V4    2.020166 S    
C29   C37   1.396629 A    
C3    O13   1.334504 A    
N8    O36   1.301613 A    
C57   H13   1.079734 S    
C44   C48   1.428228 A    
C41   C66   1.484757 S    
C54   C57   1.409126 A    
O6    C2    1.340859 A    
C15   C19   1.391684 A    
C53   C58   1.404478 A    
C21   N2    1.433722 S    
O11   V3    2.013896 S    
C5    C11   1.483982 S    
O12   V4    2.013894 S    
C16   C27   1.404228 A    
C6    C12   1.483703 S    
N1    O21   1.300801 A    
C22   C26   1.422223 A    
C35   C71   1.485975 S    
O10   C6    1.331139 A    
N5    O30   1.301693 A    
O20   V2    1.748265 S    
C48   C56   1.435126 A    
C70   O47   1.222643 D    
C47   C51   1.421048 A    
C4    C29   1.470581 S    
C20   H3    1.083887 S    
C34   C38   1.396617 A    
C31   C43   1.408706 A    
C33   C37   1.400549 A    
C13   C26   1.404753 A    
N2    O24   1.300710 A    
C35   C39   1.400555 A    
C32   C40   1.391265 A    
C13   C17   1.391676 A    
O4    V2    2.005821 S    
C17   H2    1.083845 S    
C60   H16   1.076845 S    
C59   C63   1.397187 A    
C19   H4    1.083848 S    
C24   C28   1.422073 A    
C24   N3    1.433523 S    
O12   C8    1.331090 A    
C25   C26   1.421852 A    
C42   C46   1.428224 A    
C42   C65   1.492366 S    
C4    O14   1.334302 A    
O50   H23   1.014020 S    
C66   O40   1.395342 S    
C41   C45   1.424614 A    
C30   C42   1.409903 A    
C12   C19   1.403110 A    
C71   O49   1.223500 D    
N5    O29   1.301583 A    
C43   C47   1.424624 A    
C13   H5    1.081250 S    
C36   C72   1.483870 S    
C65   O38   1.398816 S    
C40   H11   1.085366 S    
