data_mof_unit_32433.cif
_audit_creation_date              2012-12-11T15:07:37-0500
_audit_creation_method            fapswitch 2.2
_symmetry_space_group_name_H-M    P1
_symmetry_Int_Tables_number       1
_space_group_crystal_system       triclinic
_cell_length_a                    21.70093
_cell_length_b                    7.203881
_cell_length_c                    18.648336
_cell_angle_alpha                 89.998964
_cell_angle_beta                  95.513907
_cell_angle_gamma                 89.996256
_cell_volume                      2901.82204321

loop_
_atom_site_label
_atom_site_type_symbol
_atom_type_description
_atom_site_fract_x
_atom_site_fract_y
_atom_site_fract_z
_atom_type_partial_charge
O1    O     O_R   0.449650 0.506500 0.414480 -0.535513
O2    O     O_R   0.550350 0.006500 0.585520 -0.535524
O3    O     O_R   0.432010 0.173150 0.560250 -0.535734
O4    O     O_R   0.567990 0.673150 0.439750 -0.535737
C1    C     C_R   0.415277 0.344732 0.579871 0.689073
C2    C     C_R   0.584717 0.844732 0.420120 0.689108
O5    O     O_R   0.442320 0.176650 0.413480 -0.533990
O6    O     O_R   0.557680 0.676650 0.586520 -0.534001
O7    O     O_R   0.560730 0.008380 0.437700 -0.540907
O8    O     O_R   0.439270 0.508380 0.562300 -0.540891
C3    C     C_R   0.428621 0.344856 0.387901 0.693643
C4    C     C_R   0.571382 0.844843 0.612099 0.693609
O9    O     O_3   0.538840 0.339860 0.508120 -0.374112
O10   O     O_3   0.461160 0.839860 0.491880 -0.374081
V1    V     V_3+5 0.492800 0.064220 0.498490 1.429462
V2    V     V_3+5 0.507200 0.564220 0.501510 1.429464
C5    C     C_R   0.869668 0.979581 0.690965 -0.164946
C6    C     C_R   0.130275 0.478702 0.309106 -0.164848
H1    H     H_    0.890998 0.003427 0.641777 0.160317
H2    H     H_    0.108927 0.502131 0.358303 0.160323
C7    C     C_R   0.884937 0.939872 0.820512 -0.151258
C8    C     C_R   0.115051 0.439818 0.179511 -0.151254
C9    C     C_R   0.587611 0.762721 0.739309 -0.142084
C10   C     C_R   0.412428 0.263201 0.260646 -0.142195
C11   C     C_R   0.625693 0.714828 0.800440 0.406828
C12   C     C_R   0.374374 0.215508 0.199471 0.406860
C13   C     C_R   0.688970 0.756846 0.804045 -0.276779
C14   C     C_R   0.311080 0.257331 0.195886 -0.276704
C15   C     C_R   0.714728 0.861462 0.750239 0.057270
C16   C     C_R   0.285274 0.361544 0.249774 0.057242
C17   C     C_R   0.675786 0.895427 0.685407 0.037660
C18   C     C_R   0.324192 0.395290 0.314638 0.037649
C19   C     C_R   0.779276 0.914187 0.755642 0.020000
C20   C     C_R   0.220709 0.414081 0.244403 0.019979
C21   C     C_R   0.805002 0.963603 0.690645 0.000541
C22   C     C_R   0.194948 0.462946 0.309441 0.000537
C23   C     C_R   0.765625 0.995591 0.626260 0.138737
C24   C     C_R   0.234294 0.494623 0.373879 0.138737
C25   C     C_R   0.701911 0.966474 0.625505 -0.196131
C26   C     C_R   0.298028 0.465841 0.374602 -0.196042
C27   C     C_R   0.819392 0.923157 0.822363 0.055415
C28   C     C_R   0.180607 0.423357 0.177675 0.055489
C29   C     C_R   0.909514 0.960627 0.753545 0.317153
C30   C     C_R   0.090450 0.460101 0.246491 0.317202
C31   C     C_R   0.611887 0.845942 0.680495 -0.152282
C32   C     C_R   0.388112 0.346029 0.319513 -0.152227
H3    H     H_    0.539207 0.722911 0.735716 0.129158
H4    H     H_    0.460848 0.223572 0.264213 0.129133
H5    H     H_    0.717607 0.696508 0.847417 0.147721
H6    H     H_    0.282482 0.197159 0.152447 0.147682
H7    H     H_    0.672914 0.992310 0.575922 0.113378
H8    H     H_    0.327008 0.491459 0.424212 0.113204
C33   C     C_R   0.647154 0.710595 0.325752 -0.163301
C34   C     C_R   0.352824 0.210562 0.674216 -0.163337
C35   C     C_R   0.635983 0.856597 0.372779 -0.113084
C36   C     C_R   0.363994 0.356571 0.627190 -0.113004
C37   C     C_R   0.673001 0.017442 0.373139 -0.182949
C38   C     C_R   0.326952 0.517380 0.626800 -0.182900
C39   C     C_R   0.720099 0.035092 0.326542 0.059627
C40   C     C_R   0.279843 0.535012 0.673385 0.059611
C41   C     C_R   0.729693 0.889220 0.278195 -0.022374
C42   C     C_R   0.270261 0.389162 0.721747 -0.022435
C43   C     C_R   0.693230 0.726496 0.278089 0.112685
C44   C     C_R   0.306735 0.226446 0.721864 0.112749
C45   C     C_R   0.757426 0.195847 0.327081 0.326142
C46   C     C_R   0.242494 0.695737 0.672820 0.326236
C47   C     C_R   0.802722 0.211322 0.277840 -0.275064
C48   C     C_R   0.197205 0.711240 0.722071 -0.275026
C49   C     C_R   0.811642 0.068647 0.228732 0.056302
C50   C     C_R   0.188307 0.568603 0.771205 0.056294
C51   C     C_R   0.775592 0.905857 0.229601 0.052804
C52   C     C_R   0.224364 0.405809 0.770342 0.052776
C53   C     C_R   0.785417 0.759243 0.181862 0.109512
C54   C     C_R   0.214548 0.259201 0.818090 0.109497
C55   C     C_R   0.748952 0.598511 0.182331 -0.205060
C56   C     C_R   0.251011 0.098450 0.817618 -0.205017
C57   C     C_R   0.703075 0.582728 0.229727 -0.156045
C58   C     C_R   0.296890 0.082668 0.770224 -0.155976
C59   C     C_R   0.856424 0.085440 0.179172 -0.181115
C60   C     C_R   0.143538 0.585429 0.820781 -0.181125
C61   C     C_R   0.867006 0.938793 0.131952 -0.071878
C62   C     C_R   0.132968 0.438791 0.868013 -0.071833
C63   C     C_R   0.831547 0.775401 0.134452 -0.215048
C64   C     C_R   0.168427 0.275383 0.865510 -0.215094
H9    H     H_    0.618939 0.586262 0.324918 0.133909
H10   H     H_    0.381050 0.086239 0.675063 0.133875
H11   H     H_    0.664976 0.129058 0.410051 0.171353
H12   H     H_    0.334971 0.628990 0.589880 0.171243
H13   H     H_    0.830998 0.335364 0.277818 0.141306
H14   H     H_    0.168920 0.835277 0.722076 0.141279
H15   H     H_    0.884044 0.210749 0.178574 0.127658
H16   H     H_    0.115919 0.710753 0.821382 0.127571
H17   H     H_    0.839382 0.660505 0.098922 0.129946
H18   H     H_    0.160603 0.160499 0.901053 0.130026
H19   H     H_    0.755887 0.484740 0.145942 0.133299
H20   H     H_    0.244076 0.984663 0.854005 0.133290
H21   H     H_    0.675442 0.457307 0.228801 0.138531
H22   H     H_    0.324526 0.957239 0.771158 0.138467
O11   O     O_R   0.060820 0.290050 0.937800 -0.540990
O12   O     O_R   0.939180 0.790050 0.062200 -0.541073
O13   O     O_R   0.057690 0.616620 0.086540 -0.535197
O14   O     O_R   0.942310 0.116620 0.913460 -0.535132
C65   C     C_R   0.072271 0.448401 0.111899 0.702957
C66   C     C_R   0.927727 0.948411 0.888108 0.703118
O15   O     O_R   0.068010 0.619890 0.939770 -0.542114
O16   O     O_R   0.931990 0.119890 0.060230 -0.542121
O17   O     O_R   0.949640 0.787940 0.914460 -0.534796
O18   O     O_R   0.050360 0.287940 0.085540 -0.534702
C67   C     C_R   0.083592 0.451270 0.918009 0.694658
C68   C     C_R   0.916391 0.951268 0.081969 0.694647
O19   O     O_3   0.961210 0.453080 0.991940 -0.375582
O20   O     O_3   0.038790 0.953080 0.008060 -0.375537
V3    V     V_3+5 0.007200 0.728820 0.001500 1.405962
V4    V     V_3+5 0.992800 0.228820 0.998500 1.406182
O21   O     O_3   0.972271 0.973031 0.746423 -0.641986
H23   H     H_    0.996558 0.937564 0.791930 0.277019
O22   O     O_3   0.027686 0.472284 0.253615 -0.642039
H24   H     H_    0.003395 0.437906 0.207990 0.277079
O23   O     O_3   0.748865 0.336055 0.375743 -0.657702
H25   H     H_    0.778712 0.437524 0.369268 0.295851
O24   O     O_3   0.251028 0.835891 0.624126 -0.657744
H26   H     H_    0.221134 0.937275 0.630541 0.295814
C69   C     C_3   0.788981 0.065729 0.556943 -0.358504
C70   C     C_3   0.808320 0.905004 0.510689 -0.717559
H27   H     H_    0.845722 0.822172 0.540218 0.225845
H28   H     H_    0.768036 0.813200 0.495417 0.230370
H29   H     H_    0.825477 0.960323 0.460697 0.229528
H30   H     H_    0.752012 0.145307 0.524883 0.198721
H31   H     H_    0.827534 0.166016 0.567889 0.181302
C71   C     C_3   0.210883 0.563918 0.443301 -0.358213
C72   C     C_3   0.191610 0.402616 0.489327 -0.717522
H32   H     H_    0.154181 0.320046 0.459734 0.225833
H33   H     H_    0.231907 0.310660 0.504396 0.230382
H34   H     H_    0.174516 0.457242 0.539456 0.229282
H35   H     H_    0.247805 0.643369 0.475495 0.198683
H36   H     H_    0.172291 0.664177 0.432514 0.181255
C73   C     C_3   0.793694 0.949033 0.894985 -0.354948
C74   C     C_3   0.803267 0.777049 0.943217 -0.761911
H37   H     H_    0.804354 0.646393 0.911796 0.222204
H38   H     H_    0.847852 0.786091 0.975962 0.230244
H39   H     H_    0.766124 0.768603 0.980102 0.213907
H40   H     H_    0.816558 0.069906 0.923455 0.171641
H41   H     H_    0.744230 0.989695 0.888730 0.189573
C75   C     C_3   0.206325 0.449847 0.105094 -0.354832
C76   C     C_3   0.196828 0.278201 0.056670 -0.761970
H42   H     H_    0.195870 0.147246 0.087918 0.222103
H43   H     H_    0.152207 0.287195 0.024007 0.230059
H44   H     H_    0.233923 0.270358 0.019704 0.214015
H45   H     H_    0.183435 0.570877 0.076739 0.171754
H46   H     H_    0.255773 0.490627 0.111411 0.189544
O25   O     O_3   0.600271 0.618935 0.854489 -0.636389
H47   H     H_    0.632887 0.596145 0.894518 0.287876
O26   O     O_3   0.399849 0.120078 0.145346 -0.636386
H48   H     H_    0.367254 0.097370 0.105285 0.287887

loop_
_geom_bond_atom_site_label_1
_geom_bond_atom_site_label_2
_ccdc_geom_bond_type
C46   C48   A    
C73   H40   S    
O12   C68   A    
C9    C31   A    
C13   C15   A    
O13   V3    S    
C1    C36   S    
C25   H7    S    
C71   H35   S    
O1    C3    A    
O2    V1    S    
C2    C35   S    
C72   H34   S    
O2    C4    A    
O11   V4    S    
C76   H42   S    
C55   H19   S    
C69   C70   S    
C12   C14   A    
O5    C3    A    
C54   C56   A    
O16   V4    S    
C24   C71   S    
O15   V3    S    
C21   C23   A    
C56   C58   A    
C3    C32   S    
O16   C68   A    
C19   C21   A    
C37   C39   A    
C38   C40   A    
O21   H23   S    
C63   H17   S    
C15   C19   A    
C47   H13   S    
C40   C42   A    
O18   V4    S    
C49   C51   A    
O17   V3    S    
C75   H46   S    
C29   O21   S    
C23   C69   S    
C7    C66   S    
C14   H6    S    
C8    C30   A    
C36   C38   A    
C45   C47   A    
C20   C28   A    
C58   H22   S    
C42   C44   A    
O25   H47   S    
C57   H21   S    
C65   O18   A    
C27   C73   S    
C41   C51   A    
O5    V1    S    
C73   H41   S    
C40   C46   A    
O6    V2    S    
C24   C26   A    
C7    C29   A    
C69   H31   S    
C53   C55   A    
C44   C58   A    
C2    O7    A    
O20   V3    S    
C76   H43   S    
C33   C35   A    
C23   C25   A    
C34   C36   A    
C39   C41   A    
C9    H3    S    
C16   C20   A    
C50   C60   A    
C59   H15   S    
C10   H4    S    
C62   C67   S    
C60   C62   A    
C54   C64   A    
C34   H10   S    
C4    C31   S    
O3    C1    A    
C26   H8    S    
C8    C65   S    
C37   H11   S    
C47   C49   A    
O4    V2    S    
C5    C29   A    
C75   H45   S    
O14   V4    S    
C6    C30   A    
C48   H14   S    
O6    C4    A    
C41   C43   A    
C45   O23   S    
C46   O24   S    
C42   C52   A    
O1    V2    S    
C64   H18   S    
O14   C66   A    
C60   H16   S    
C55   C57   A    
O24   H26   S    
C74   H38   S    
C70   H29   S    
C7    C27   A    
C52   C54   A    
C62   C64   A    
C35   C37   A    
C28   C75   S    
C49   C59   A    
O4    C2    A    
C72   H32   S    
C76   H44   S    
O3    V1    S    
C70   H28   S    
C43   C57   A    
O15   C67   A    
C18   C32   A    
C71   H36   S    
O12   V3    S    
C10   C12   A    
C75   C76   S    
C72   H33   S    
C74   H39   S    
C38   H12   S    
C61   C63   A    
C33   H9    S    
O23   H25   S    
C11   C13   A    
C73   C74   S    
C59   C61   A    
O13   C65   A    
C11   O25   S    
C19   C27   A    
C22   C24   A    
C71   C72   S    
O7    V1    S    
C10   C32   A    
C1    O8    A    
C15   C17   A    
O8    V2    S    
O22   H24   S    
C56   H20   S    
C16   C18   A    
C33   C43   A    
C69   H30   S    
C8    C28   A    
C34   C44   A    
C30   O22   S    
C14   C16   A    
C5    H1    S    
C20   C22   A    
C17   C25   A    
O19   V4    S    
C6    H2    S    
C18   C26   A    
C74   H37   S    
C9    C11   A    
C61   C68   S    
C48   C50   A    
C17   C31   A    
O9    V2    S    
C51   C53   A    
O10   V1    S    
C12   O26   S    
C50   C52   A    
C5    C21   A    
O26   H48   S    
C6    C22   A    
C53   C63   A    
C66   O17   A    
C39   C45   A    
C13   H5    S    
C70   H27   S    
O11   C67   A    
