data_mof_unit_42718.cif
_audit_creation_date              2012-12-10T20:31:55-0500
_audit_creation_method            fapswitch 2.2
_symmetry_space_group_name_H-M    P1
_symmetry_Int_Tables_number       1
_space_group_crystal_system       triclinic
_cell_length_a                    9.887287
_cell_length_b                    10.701808
_cell_length_c                    15.398645
_cell_angle_alpha                 90.231387
_cell_angle_beta                  68.284414
_cell_angle_gamma                 89.112261
_cell_volume                      1513.46122003

loop_
_atom_site_label
_atom_site_type_symbol
_atom_type_description
_atom_site_fract_x
_atom_site_fract_y
_atom_site_fract_z
_atom_type_partial_charge
C1    C     C_R   0.501295 0.740099 0.496341 0.941418
C2    C     C_R   0.423056 0.441109 0.907528 0.045185
C3    C     C_R   0.296175 0.371322 0.952228 0.110135
C4    C     C_R   0.533230 0.444059 0.945072 -0.055430
C5    C     C_R   0.497705 0.410977 0.039346 -0.003550
C6    C     C_R   0.365225 0.348931 0.086333 -0.176167
C7    C     C_R   0.268834 0.324831 0.041508 -0.180748
C8    C     C_R   0.679771 0.470610 0.889768 0.685193
C9    C     C_R   0.782585 0.484476 0.930828 -0.273958
C10   C     C_R   0.740713 0.476367 0.027529 0.046083
C11   C     C_R   0.596998 0.440619 0.082595 0.091507
C12   C     C_R   0.408530 0.498226 0.676115 0.954213
C13   C     C_R   0.839396 0.506017 0.070294 -0.144633
C14   C     C_R   0.793039 0.510141 0.167525 -0.187498
C15   C     C_R   0.552999 0.445780 0.179668 -0.215650
C16   C     C_R   0.390209 0.939059 0.477307 0.001044
C17   C     C_R   0.510399 0.871206 0.479080 -0.151463
C18   C     C_R   0.643090 0.932010 0.460179 -0.233763
C19   C     C_R   0.645327 0.061447 0.460278 0.619347
C20   C     C_R   0.513976 0.128625 0.479141 -0.199382
C21   C     C_R   0.392016 0.066540 0.478100 -0.093993
C22   C     C_3   0.235869 0.078210 0.541532 0.559268
C23   C     C_R   0.503387 0.260023 0.495980 0.947876
C24   C     C_3   0.233388 0.936944 0.540242 -0.456626
C25   C     C_R   0.884258 0.538211 0.577330 0.152333
C26   C     C_R   0.971172 0.452492 0.426426 -0.060345
C27   C     C_R   0.114993 0.452767 0.426310 -0.117701
C28   C     C_R   0.026285 0.534536 0.578300 0.108413
C29   C     C_3   0.007835 0.657574 0.625683 0.346265
C30   C     C_3   0.858394 0.666142 0.620391 0.356615
C31   C     C_R   0.590957 0.497180 0.323870 0.837110
C32   C     C_R   0.350941 0.473714 0.776263 -0.142307
C33   C     C_R   0.647962 0.484269 0.222189 -0.050318
C34   C     C_R   0.199169 0.350309 0.906516 -0.216214
C35   C     C_R   0.231262 0.395616 0.816219 -0.178810
C36   C     C_R   0.432864 0.509095 0.828234 0.381321
H1    H     H_    0.171256 0.272591 0.077600 0.151461
H2    H     H_    0.950431 0.530624 0.028701 0.158744
H3    H     H_    0.742428 0.880688 0.451732 0.243500
H4    H     H_    0.165663 0.124311 0.508520 0.097988
H5    H     H_    0.216420 0.894566 0.609262 0.245369
H6    H     H_    0.164202 0.901394 0.503138 0.178972
H7    H     H_    0.952239 0.415944 0.366393 0.146963
H8    H     H_    0.203822 0.416230 0.366089 0.140202
H9    H     H_    0.441674 0.427379 0.223373 0.142074
H10   H     H_    0.086055 0.726407 0.583863 0.112201
H11   H     H_    0.769959 0.672388 0.689362 0.228371
H12   H     H_    0.868772 0.537573 0.199724 0.156791
H13   H     H_    0.893803 0.505881 0.887230 0.217882
H14   H     H_    0.103449 0.294152 0.938427 0.170523
H15   H     H_    0.164553 0.368387 0.777408 0.221690
H16   H     H_    0.337987 0.311711 0.155706 0.137622
N1    N     N_R   0.856900 0.500860 0.500610 -0.091840
N2    N     N_R   0.142540 0.500820 0.500610 -0.131104
O1    O     O_R   0.385310 0.683210 0.499990 -0.626887
O2    O     O_R   0.614650 0.683240 0.500000 -0.570208
O3    O     O_R   0.319830 0.499970 0.632240 -0.583693
O4    O     O_R   0.549170 0.500000 0.632250 -0.577701
O5    O     O_R   0.385350 0.316760 0.500000 -0.611372
O6    O     O_R   0.614690 0.316790 0.500010 -0.558291
O7    O     O_R   0.450830 0.500000 0.367750 -0.632161
O8    O     O_R   0.680170 0.500030 0.367760 -0.631207
Zn1   Zn    Zn3+2 0.346870 0.499980 0.499990 0.989155
Zn2   Zn    Zn3+2 0.653130 0.500020 0.500010 1.046782
F1    F     F_    0.772024 0.118922 0.449336 -0.646048
F2    F     F_    0.218932 0.125977 0.628811 -0.628697
F3    F     F_    0.002652 0.645895 0.716337 -0.635175
F4    F     F_    0.850497 0.756725 0.558510 -0.671014
Cl1   Cl    Cl    0.506696 0.660191 0.811456 -0.579470
F5    F     F_    0.726854 0.473006 0.795116 -0.656193

loop_
_geom_bond_atom_site_label_1
_geom_bond_atom_site_label_2
_ccdc_geom_bond_type
C8    C9    A    
C2    C4    A    
C18   H3    S    
C31   C33   S    
C19   F1    S    
C16   C21   A    
C24   H6    S    
C9    C10   A    
C31   O7    A    
C8    F5    S    
C19   C20   A    
C3    C34   A    
C20   C23   S    
C4    C8    A    
C29   H10   S    
O6    Zn2   S    
C12   O4    A    
C14   C33   A    
O2    Zn2   S    
C17   C18   A    
C7    H1    S    
C27   N2    A    
C22   H4    S    
C16   C24   S    
C29   F3    S    
C13   C14   A    
C12   C32   S    
C25   C28   A    
C23   O5    A    
C24   H5    S    
C31   O8    A    
C13   H2    S    
C29   C30   S    
C14   H12   S    
C5    C6    A    
C12   O3    A    
C32   C36   A    
C28   C29   S    
C1    O2    A    
C25   N1    A    
C26   H7    S    
C5    C11   A    
C6    C7    A    
C3    C7    A    
C1    C17   S    
C26   C27   A    
C23   O6    A    
N1    Zn2   S    
C22   C24   S    
O5    Zn1   S    
C34   H14   S    
C16   C17   A    
C10   C11   A    
C15   H9    S    
C26   N1    A    
C30   H11   S    
C9    H13   S    
C20   C21   A    
C35   H15   S    
O8    Zn2   S    
C34   C35   A    
N2    Zn1   S    
C18   C19   A    
C2    C36   A    
C25   C30   S    
O7    Zn1   S    
C36   Cl1   S    
C28   N2    A    
C22   F2    S    
C2    C3    A    
O4    Zn2   S    
C6    H16   S    
C21   C22   S    
C11   C15   A    
C27   H8    S    
C15   C33   A    
C30   F4    S    
C32   C35   A    
O3    Zn1   S    
C4    C5    A    
C1    O1    A    
C10   C13   A    
O1    Zn1   S    
