data_mof_unit_32974.cif
_audit_creation_date              2012-10-26T19:46:27-0400
_audit_creation_method            fapswitch 2.2
_symmetry_space_group_name_H-M    P1
_symmetry_Int_Tables_number       1
_space_group_crystal_system       triclinic
_cell_length_a                    10.792986
_cell_length_b                    9.756951
_cell_length_c                    15.11265
_cell_angle_alpha                 89.808399
_cell_angle_beta                  94.06688
_cell_angle_gamma                 89.215042
_cell_volume                      1587.29110311

loop_
_atom_site_label
_atom_site_type_symbol
_atom_type_description
_atom_site_fract_x
_atom_site_fract_y
_atom_site_fract_z
_atom_type_partial_charge
C1    C     C_R   0.262670 0.500420 0.500042 0.529568
C2    C     C_R   0.929051 0.603785 0.457790 -0.137509
C3    C     C_R   0.941010 0.388189 0.538546 -0.143869
C4    C     C_R   0.056883 0.605012 0.458310 -0.152839
C5    C     C_R   0.501103 0.622880 0.093987 -0.122790
C6    C     C_R   0.463747 0.390301 0.904565 -0.123359
C7    C     C_R   0.568604 0.608668 0.905643 -0.122590
C8    C     C_R   0.549446 0.379678 0.098010 -0.123512
C9    C     C_R   0.499091 0.623223 0.185729 -0.136446
C10   C     C_R   0.456643 0.390780 0.812340 -0.134548
C11   C     C_R   0.560174 0.609800 0.813526 -0.135268
C12   C     C_R   0.737012 0.498963 0.500155 0.533013
C13   C     C_R   0.546092 0.380047 0.189841 -0.133678
C14   C     C_R   0.516034 0.500857 0.234239 0.011999
C15   C     C_R   0.505432 0.500168 0.766321 0.016653
C16   C     C_R   0.524205 0.500580 0.049246 0.034491
C17   C     C_R   0.520121 0.499113 0.951902 0.033224
C18   C     C_R   0.870771 0.496745 0.499096 0.023519
C19   C     C_R   0.128156 0.499560 0.500022 0.016064
C20   C     C_3   0.374887 0.132593 0.349002 -0.218257
C21   C     C_3   0.254986 0.218260 0.350486 -0.378794
C22   C     C_3   0.725788 0.884308 0.558293 -0.221172
C23   C     C_R   0.504826 0.500168 0.330574 0.526671
C24   C     C_3   0.763273 0.804116 0.643288 -0.413510
C25   C     C_3   0.586648 0.111023 0.659639 -0.223597
C26   C     C_3   0.705751 0.189023 0.684821 -0.414820
C27   C     C_3   0.282327 0.876559 0.422163 -0.222873
C28   C     C_3   0.274595 0.794841 0.335385 -0.395833
C29   C     C_R   0.500738 0.499910 0.669525 0.530952
C30   C     C_R   0.427413 0.073780 0.438009 0.117926
C31   C     C_R   0.590113 0.927871 0.547226 0.124942
C32   C     C_R   0.568732 0.069691 0.562970 0.124210
C33   C     C_R   0.410403 0.929807 0.451057 0.119023
C34   C     C_R   0.069604 0.389861 0.539294 -0.141184
Cu1   Cu    Cu3+1 0.500000 0.640660 0.500000 0.912137
Cu2   Cu    Cu3+1 0.500000 0.359340 0.500000 0.908269
H1    H     H_    0.482112 0.717933 0.058060 0.099611
H2    H     H_    0.875881 0.684904 0.423248 0.112892
H3    H     H_    0.897032 0.303406 0.569605 0.109955
H4    H     H_    0.098158 0.686537 0.423733 0.109706
H5    H     H_    0.207495 0.200866 0.412211 0.157129
H6    H     H_    0.273627 0.328604 0.341798 0.174235
H7    H     H_    0.189328 0.189254 0.293890 0.102941
H8    H     H_    0.447278 0.180756 0.313280 0.156431
H9    H     H_    0.353283 0.048491 0.302052 0.093041
H10   H     H_    0.706803 0.712044 0.649762 0.193808
H11   H     H_    0.861910 0.770596 0.642219 0.130737
H12   H     H_    0.422897 0.306315 0.938790 0.101307
H13   H     H_    0.754843 0.869106 0.702605 0.117028
H14   H     H_    0.753463 0.833458 0.497755 0.162965
H15   H     H_    0.785460 0.976261 0.559198 0.101428
H16   H     H_    0.789063 0.124826 0.675032 0.117898
H17   H     H_    0.711178 0.284515 0.646489 0.195064
H18   H     H_    0.707750 0.216788 0.756107 0.127244
H19   H     H_    0.502517 0.163485 0.680121 0.162698
H20   H     H_    0.589187 0.018057 0.702446 0.102138
H21   H     H_    0.346987 0.826330 0.291940 0.132270
H22   H     H_    0.282260 0.683225 0.346622 0.182179
H23   H     H_    0.613684 0.693119 0.940629 0.100382
H24   H     H_    0.183072 0.814190 0.298757 0.100851
H25   H     H_    0.240734 0.828371 0.478557 0.162683
H26   H     H_    0.216107 0.963630 0.411014 0.095745
H27   H     H_    0.572265 0.285082 0.065166 0.099417
H28   H     H_    0.483878 0.719448 0.218141 0.115504
H29   H     H_    0.410439 0.307364 0.777222 0.107436
H30   H     H_    0.597811 0.695768 0.779494 0.109671
H31   H     H_    0.569121 0.286233 0.225668 0.109981
H32   H     H_    0.123144 0.306364 0.571109 0.120947
N1    N     N_R   0.500000 0.852070 0.500000 -0.229859
N2    N     N_R   0.500000 0.147930 0.500000 -0.230832
O1    O     O_R   0.319640 0.618740 0.499990 -0.510221
O2    O     O_R   0.680360 0.381260 0.500010 -0.504681
O3    O     O_R   0.680360 0.618740 0.500010 -0.516133
O4    O     O_R   0.319640 0.381260 0.499990 -0.506019
O5    O     O_R   0.499990 0.618780 0.371460 -0.503288
O6    O     O_R   0.500010 0.381220 0.628540 -0.515403
O7    O     O_R   0.500010 0.618780 0.628540 -0.502467
O8    O     O_R   0.499990 0.381220 0.371460 -0.512633

loop_
_geom_bond_atom_site_label_1
_geom_bond_atom_site_label_2
_ccdc_geom_bond_type
C8    C13   A    
C5    H1    S    
C2    C18   A    
C9    H28   S    
Cu1   Cu2   S    
C25   H20   S    
C29   O6    A    
C20   C30   S    
C28   H21   S    
C27   C33   S    
C7    C11   A    
Cu1   O5    S    
C1    O1    A    
C6    H12   S    
C1    O4    A    
C10   C15   A    
C3    C18   A    
C5    C16   A    
C27   H25   S    
C20   H8    S    
C21   H7    S    
C4    C19   A    
C11   C15   A    
C4    H4    S    
C16   C17   S    
C7    C17   A    
Cu2   O6    S    
C20   H9    S    
C11   H30   S    
C33   N1    A    
C22   H14   S    
C25   C32   S    
C12   O2    A    
Cu1   O1    S    
C8    C16   A    
C12   O3    A    
C26   H18   S    
C7    H23   S    
C30   N2    A    
Cu2   N2    S    
C15   C29   S    
C28   H24   S    
C1    C19   S    
C22   C31   S    
C34   H32   S    
C32   N2    A    
C3    C34   A    
C25   C26   S    
Cu1   O7    S    
C14   C23   S    
C2    C4    A    
C9    C14   A    
C5    C9    A    
C27   H26   S    
C26   H16   S    
C2    H2    S    
C31   C32   A    
Cu2   O4    S    
C21   H5    S    
C22   C24   S    
C26   H17   S    
C13   H31   S    
C10   H29   S    
C24   H13   S    
C6    C17   A    
Cu1   O3    S    
C30   C33   A    
C24   H11   S    
C25   H19   S    
C23   O5    A    
C19   C34   A    
C6    C10   A    
C28   H22   S    
C24   H10   S    
Cu2   O8    S    
C23   O8    A    
C8    H27   S    
C3    H3    S    
C21   H6    S    
C31   N1    A    
C29   O7    A    
C20   C21   S    
Cu1   N1    S    
C12   C18   S    
C27   C28   S    
C13   C14   A    
Cu2   O2    S    
C22   H15   S    
