data_mof_unit_18779.cif
_audit_creation_date              2012-12-10T20:39:54-0500
_audit_creation_method            fapswitch 2.2
_symmetry_space_group_name_H-M    P1
_symmetry_Int_Tables_number       1
_space_group_crystal_system       triclinic
_cell_length_a                    23.318614
_cell_length_b                    10.676995
_cell_length_c                    9.850334
_cell_angle_alpha                 90.02776
_cell_angle_beta                  89.884057
_cell_angle_gamma                 89.953254
_cell_volume                      2452.45837162

loop_
_atom_site_label
_atom_site_type_symbol
_atom_type_description
_atom_site_fract_x
_atom_site_fract_y
_atom_site_fract_z
_atom_type_partial_charge
C1    C     C_R   0.498434 0.259958 0.500169 0.885128
C2    C     C_R   0.971003 0.460993 0.267398 -0.154956
C3    C     C_R   0.030533 0.460328 0.268717 -0.150638
C4    C     C_R   0.060499 0.516685 0.375957 -0.009508
C5    C     C_R   0.030407 0.578171 0.481148 -0.026998
C6    C     C_R   0.060407 0.636571 0.588997 -0.060547
C7    C     C_R   0.028700 0.698376 0.692785 -0.021802
C8    C     C_R   0.968847 0.697670 0.689455 -0.197146
C9    C     C_R   0.120045 0.509969 0.382327 0.515277
C10   C     C_R   0.120797 0.627820 0.588958 0.514118
C11   C     C_R   0.244023 0.615695 0.409359 -0.091625
C12   C     C_R   0.389381 0.499924 0.500151 0.877632
C13   C     C_R   0.302744 0.597667 0.410537 -0.237295
C14   C     C_R   0.327278 0.511078 0.499904 -0.086938
C15   C     C_R   0.292503 0.440293 0.588625 -0.084533
C16   C     C_R   0.232813 0.458164 0.586354 -0.003756
C17   C     C_R   0.209065 0.546691 0.496586 0.260404
C18   C     C_R   0.767168 0.477067 0.592617 -0.132834
C19   C     C_R   0.708139 0.457164 0.597281 -0.035549
C20   C     C_R   0.672919 0.513626 0.498245 -0.089257
C21   C     C_R   0.697405 0.588552 0.396471 -0.232905
C22   C     C_R   0.756104 0.608340 0.393292 -0.086869
C23   C     C_R   0.498480 0.740050 0.500171 0.877542
C24   C     C_R   0.790991 0.552529 0.491017 0.288794
C25   C     C_R   0.494988 0.064085 0.624257 0.081262
C26   C     C_R   0.490029 0.128546 0.501952 -0.113996
C27   C     C_R   0.474829 0.064721 0.382958 -0.191824
C28   C     C_R   0.474867 0.935198 0.382991 -0.202836
C29   C     C_R   0.490144 0.871495 0.502003 -0.113736
C30   C     C_R   0.495062 0.936068 0.624345 0.074834
C31   C     C_3   0.540786 0.928674 0.730851 -0.267562
C32   C     C_3   0.540557 0.072175 0.730912 -0.270059
C33   C     C_R   0.449933 0.486019 0.071513 0.235582
C34   C     C_R   0.610732 0.500402 0.499791 0.874323
C35   C     C_R   0.550029 0.501545 0.071654 -0.101847
C36   C     C_R   0.550019 0.501755 0.927841 -0.102765
C37   C     C_R   0.449925 0.485906 0.928829 0.242052
C38   C     C_3   0.399602 0.572016 0.923395 -0.475184
C39   C     C_3   0.399689 0.572302 0.077448 -0.505916
C40   C     C_R   0.879401 0.630321 0.584658 0.517288
C41   C     C_R   0.880604 0.513202 0.377833 0.510044
C42   C     C_R   0.940398 0.518062 0.373278 -0.014428
C43   C     C_R   0.970045 0.578554 0.479358 -0.018228
C44   C     C_R   0.939324 0.636790 0.584916 -0.027146
H1    H     H_    0.774644 0.666411 0.314523 0.153767
H2    H     H_    0.466601 0.113888 0.288784 0.183850
H3    H     H_    0.466626 0.885922 0.288844 0.178365
H4    H     H_    0.581434 0.887279 0.692111 0.152572
H5    H     H_    0.581092 0.114098 0.692456 0.160260
H6    H     H_    0.052942 0.413626 0.186597 0.197965
H7    H     H_    0.590323 0.507198 0.873993 0.165240
H8    H     H_    0.361114 0.525941 0.879824 0.218628
H9    H     H_    0.410560 0.664920 0.122236 0.216322
H10   H     H_    0.225394 0.683005 0.340003 0.155537
H11   H     H_    0.329275 0.653060 0.342985 0.157115
N1    N     N_R   0.851635 0.567348 0.483423 -0.355074
N2    N     N_R   0.148461 0.563005 0.488619 -0.354834
N3    N     N_R   0.499610 0.499140 0.142800 -0.112111
N4    N     N_R   0.499610 0.499180 0.857150 -0.114182
O1    O     O_R   0.500010 0.316790 0.614690 -0.610626
O2    O     O_2   0.851572 0.452440 0.279350 -0.551793
O3    O     O_2   0.149553 0.448899 0.284470 -0.547177
O4    O     O_2   0.152034 0.681732 0.688103 -0.543528
O5    O     O_R   0.500000 0.316760 0.385350 -0.613461
O6    O     O_R   0.416160 0.499980 0.614700 -0.614686
O7    O     O_R   0.416150 0.499940 0.385360 -0.621183
O8    O     O_R   0.500000 0.683240 0.614650 -0.616150
O9    O     O_R   0.499990 0.683210 0.385310 -0.620301
O10   O     O_R   0.583850 0.500060 0.614640 -0.622011
O11   O     O_R   0.583840 0.500020 0.385300 -0.622649
O12   O     O_2   0.849010 0.685511 0.684994 -0.552791
Zn1   Zn    Zn3+2 0.500000 0.500020 0.653130 0.968996
Zn2   Zn    Zn3+2 0.500000 0.499980 0.346870 0.959361
H12   H     H_    0.949108 0.414850 0.184405 0.195658
C45   C     C_1   0.685356 0.374790 0.700420 0.173539
N5    N     N_1   0.667173 0.308637 0.782971 -0.208872
H13   H     H_    0.670946 0.633465 0.320358 0.162136
C46   C     C_1   0.519901 0.867456 0.855831 0.265290
N6    N     N_1   0.503699 0.819645 0.954083 -0.229841
C47   C     C_1   0.519048 0.133465 0.855376 0.292072
N7    N     N_1   0.502216 0.181453 0.953021 -0.220236
H14   H     H_    0.590368 0.506414 0.125181 0.158082
H15   H     H_    0.410242 0.664426 0.877954 0.224663
H16   H     H_    0.361278 0.526255 0.121953 0.220008
C48   C     C_1   0.055249 0.761912 0.806016 0.289524
N8    N     N_1   0.076267 0.812875 0.896923 -0.152521
H17   H     H_    0.945270 0.743615 0.770464 0.193060
C49   C     C_1   0.317583 0.346615 0.677105 0.176075
N9    N     N_1   0.337671 0.271874 0.747603 -0.182172
C50   C     C_1   0.195551 0.384751 0.673080 0.214488
N10   N     N_1   0.165723 0.326195 0.742336 -0.163817
H18   H     H_    0.794990 0.432607 0.666370 0.151843

loop_
_geom_bond_atom_site_label_1
_geom_bond_atom_site_label_2
_ccdc_geom_bond_type
C28   H3    S    
C16   C50   S    
C33   N3    A    
C40   O12   S    
C38   H15   S    
C41   C42   A    
C19   C20   A    
C41   O2    S    
C45   N5    T    
C36   N4    A    
C7    C8    A    
C7    C48   S    
C48   N8    T    
C26   C27   A    
C33   C39   S    
C35   N3    A    
C18   C24   A    
C5    C6    A    
C23   C29   S    
C28   C29   A    
C37   C38   S    
C39   H16   S    
C18   C19   A    
C30   C31   S    
C38   H8    S    
O1    Zn1   S    
C15   C16   A    
O8    Zn1   S    
C23   O8    A    
C3    H6    S    
C10   O4    S    
C16   C17   A    
C40   N1    A    
O5    Zn2   S    
C34   O11   A    
C2    H12   S    
N4    Zn1   S    
C20   C34   S    
C25   C32   S    
C5    C43   A    
C21   C22   A    
C35   H14   S    
C38   C39   S    
C9    O3    S    
C10   N2    A    
C1    O1    A    
C46   N6    T    
C4    C5    A    
O9    Zn2   S    
O7    Zn2   S    
C12   O7    A    
C33   C37   A    
C35   C36   A    
C23   O9    A    
O10   Zn1   S    
C43   C44   A    
C41   N1    A    
C29   C30   A    
C32   C47   S    
C31   C32   S    
O11   Zn2   S    
C49   N9    T    
C11   H10   S    
C34   O10   A    
C37   N4    A    
C36   H7    S    
C27   H2    S    
C12   C14   S    
C31   H4    S    
C1    C26   S    
C22   C24   A    
C42   C43   A    
C3    C4    A    
C1    O5    A    
C31   C46   S    
C25   C30   A    
C11   C17   A    
C8    C44   A    
C47   N7    T    
C6    C10   A    
C6    C7    A    
C24   N1    S    
O6    Zn1   S    
C12   O6    A    
C8    H17   S    
C18   H18   S    
C19   C45   S    
C2    C3    A    
C25   C26   A    
C11   C13   A    
C50   N10   T    
C39   H9    S    
C2    C42   A    
C9    N2    A    
C32   H5    S    
C40   C44   A    
C22   H1    S    
C20   C21   A    
C21   H13   S    
C27   C28   A    
C14   C15   A    
C4    C9    A    
C13   C14   A    
N3    Zn2   S    
C17   N2    S    
C15   C49   S    
C13   H11   S    
