data_mof_unit_53145.cif
_audit_creation_date              2012-12-10T17:33:03-0500
_audit_creation_method            fapswitch 2.2
_symmetry_space_group_name_H-M    P1
_symmetry_Int_Tables_number       1
_space_group_crystal_system       triclinic
_cell_length_a                    12.375286
_cell_length_b                    13.342522
_cell_length_c                    14.348594
_cell_angle_alpha                 93.906679
_cell_angle_beta                  107.726114
_cell_angle_gamma                 117.305084
_cell_volume                      1943.89494248

loop_
_atom_site_label
_atom_site_type_symbol
_atom_type_description
_atom_site_fract_x
_atom_site_fract_y
_atom_site_fract_z
_atom_type_partial_charge
C1    C     C_R   0.653509 0.714430 0.512302 0.762673
C2    C     C_R   0.880132 0.541148 0.921224 0.088410
C3    C     C_R   0.862022 0.599229 0.995954 0.094117
C4    C     C_R   0.979512 0.510439 0.949646 0.033862
C5    C     C_R   0.047101 0.522832 0.053812 -0.022608
C6    C     C_R   0.007776 0.563048 0.125958 0.360695
C7    C     C_R   0.929899 0.613497 0.096998 -0.290573
C8    C     C_R   0.011688 0.466443 0.876360 -0.215866
C9    C     C_R   0.098710 0.425933 0.902007 -0.139607
C10   C     C_R   0.167129 0.436453 0.002837 0.030511
C11   C     C_R   0.148068 0.492588 0.079552 0.058621
C12   C     C_R   0.621185 0.520626 0.686643 0.795577
C13   C     C_R   0.258249 0.396300 0.029422 0.398479
C14   C     C_R   0.327349 0.411246 0.131327 -0.278999
C15   C     C_R   0.236120 0.522322 0.179028 -0.149941
C16   C     C_R   0.135852 0.968275 0.362603 -0.181600
C17   C     C_R   0.256772 0.161997 0.470619 -0.043567
C18   C     C_R   0.759428 0.917589 0.606599 -0.199873
C19   C     C_R   0.867846 0.029057 0.644217 -0.097487
C20   C     C_R   0.968883 0.062018 0.608565 -0.106495
C21   C     C_R   0.960055 0.985478 0.529228 0.055799
C22   C     C_R   0.844849 0.874165 0.486606 0.080239
C23   C     C_R   0.347111 0.285654 0.487206 0.815196
C24   C     C_R   0.059827 0.016625 0.488862 0.069550
C25   C     C_R   0.041362 0.937256 0.406086 0.166770
C26   C     C_R   0.925324 0.830740 0.363123 -0.216162
C27   C     C_R   0.826945 0.801318 0.400474 -0.171795
C28   C     C_R   0.173867 0.127076 0.523598 -0.256358
C29   C     C_R   0.242165 0.081042 0.393612 -0.165305
C30   C     C_R   0.749256 0.838114 0.530737 -0.095898
C31   C     C_R   0.254128 0.679938 0.666201 -0.276963
C32   C     C_R   0.650388 0.341211 0.363628 0.063113
C33   C     C_R   0.720963 0.293973 0.341085 -0.230885
C34   C     C_R   0.382785 0.484667 0.313601 0.833788
C35   C     C_R   0.854957 0.342336 0.399206 0.073090
C36   C     C_R   0.923354 0.449463 0.474301 -0.035972
C37   C     C_R   0.843201 0.490191 0.497679 0.272067
C38   C     C_R   0.065169 0.517766 0.528023 -0.004024
C39   C     C_R   0.118327 0.613688 0.610381 0.148629
C40   C     C_R   0.036519 0.645456 0.635523 -0.271827
C41   C     C_R   0.902951 0.587158 0.578897 -0.173336
C42   C     C_R   0.158585 0.500480 0.501646 0.199952
C43   C     C_R   0.338814 0.654202 0.639119 0.082127
C44   C     C_R   0.699240 0.544835 0.793850 -0.052209
C45   C     C_R   0.315973 0.473633 0.206318 -0.131640
C46   C     C_R   0.767169 0.633378 0.969153 -0.149674
C47   C     C_R   0.686503 0.606764 0.868470 -0.142637
C48   C     C_R   0.794303 0.511644 0.820605 -0.222580
Cu1   Cu    Cu3+1 0.416420 0.526630 0.522910 0.994384
Cu2   Cu    Cu3+1 0.583580 0.473370 0.477090 0.934389
H1    H     H_    0.908069 0.650847 0.153333 0.165781
H2    H     H_    0.307997 0.106805 0.353290 0.148676
H3    H     H_    0.908369 0.771519 0.297768 0.145855
H4    H     H_    0.122796 0.907772 0.300095 0.131367
H5    H     H_    0.195299 0.191832 0.586044 0.170440
H6    H     H_    0.686900 0.891591 0.640861 0.155207
H7    H     H_    0.051430 0.148545 0.644273 0.181019
H8    H     H_    0.876115 0.089146 0.704276 0.168054
H9    H     H_    0.735186 0.721608 0.359053 0.170495
H10   H     H_    0.443467 0.704420 0.682629 0.119091
H11   H     H_    0.244539 0.584125 0.236680 0.220023
H12   H     H_    0.076884 0.719074 0.698062 0.166036
H13   H     H_    0.294717 0.752007 0.730152 0.150389
H14   H     H_    0.129380 0.437175 0.435318 0.177271
H15   H     H_    0.545686 0.299175 0.321301 0.138043
H16   H     H_    0.668148 0.214068 0.282476 0.172020
H17   H     H_    0.849289 0.620915 0.601709 0.205471
H18   H     H_    0.391247 0.375218 0.152521 0.192813
H19   H     H_    0.113901 0.389312 0.841013 0.212093
H20   H     H_    0.753416 0.678386 0.026364 0.139447
H21   H     H_    0.614376 0.634327 0.849137 0.160287
H22   H     H_    0.795858 0.458740 0.761539 0.156164
H23   H     H_    0.971810 0.462786 0.797346 0.148543
N1    N     N_R   0.290690 0.566960 0.557640 -0.199049
N2    N     N_R   0.709100 0.433710 0.442970 -0.208104
O1    O     O_R   0.545970 0.684450 0.528810 -0.578716
O2    O     O_R   0.687130 0.639470 0.490120 -0.601552
O3    O     O_R   0.519670 0.535100 0.660030 -0.575822
O4    O     O_R   0.660830 0.490120 0.621340 -0.606963
O5    O     O_R   0.312870 0.360530 0.509880 -0.569920
O6    O     O_R   0.454030 0.315550 0.471190 -0.591649
O7    O     O_R   0.339170 0.509880 0.378660 -0.541105
O8    O     O_R   0.480330 0.464900 0.339970 -0.599636
S1    S     S_3+6 0.286920 0.325039 0.938475 -0.014953
O9    O     O_2   0.160172 0.217741 0.872369 -0.284705
O10   O     O_2   0.337185 0.404849 0.873764 -0.325809
O11   O     O_3   0.397442 0.285839 0.994298 -0.502095
H24   H     H_    0.483954 0.358378 0.017678 0.354720
C49   C     C_2   0.909919 0.266857 0.389283 0.816412
O12   O     O_2   0.883061 0.211407 0.305993 -0.534433
O13   O     O_R   0.986097 0.253401 0.475835 -0.803022
H25   H     H_    0.015429 0.198521 0.457606 0.338864
S2    S     S_3+6 0.015235 0.524648 0.242800 -0.047822
O14   O     O_2   0.891739 0.500704 0.258492 -0.315548
O15   O     O_2   0.025747 0.416922 0.242975 -0.262326
O16   O     O_3   0.144008 0.635514 0.338031 -0.573064
H26   H     H_    0.120797 0.697174 0.341317 0.343550

loop_
_geom_bond_atom_site_label_1
_geom_bond_atom_site_label_2
_ccdc_geom_bond_type
O11   H24   S    
Cu2   O2    S    
S2    O14   D    
C1    O2    A    
C35   C36   A    
S1    O11   S    
C4    C8    A    
Cu2   O4    S    
C32   N2    A    
C41   H17   S    
C13   S1    S    
C26   C27   A    
C17   C23   S    
C31   C43   A    
C36   C37   A    
C9    H19   S    
C5    C11   A    
C3    C7    A    
C38   C39   A    
C12   O4    A    
C40   H12   S    
Cu1   O3    S    
C18   C19   A    
C8    H23   S    
C11   C15   A    
C19   C20   A    
C8    C9    A    
C12   O3    A    
C33   H16   S    
C18   C30   A    
C13   C14   A    
C23   O5    A    
C49   O13   S    
C23   O6    A    
C9    C10   A    
C44   C47   A    
C18   H6    S    
C43   N1    A    
C37   N2    A    
S2    O15   D    
C21   C22   A    
C17   C28   A    
C48   H22   S    
C28   H5    S    
Cu2   O8    S    
C14   C45   A    
C19   H8    S    
C42   N1    A    
C31   H13   S    
C24   C25   A    
O13   H25   S    
C2    C48   A    
C16   C29   A    
Cu1   O7    S    
C2    C4    A    
C6    S2    S    
O16   H26   S    
C15   H11   S    
Cu1   O1    S    
C34   C45   S    
S1    O9    D    
C47   H21   S    
C43   H10   S    
C35   C49   S    
C40   C41   A    
S2    O16   S    
C22   C27   A    
C34   O8    A    
C15   C45   A    
C26   H3    S    
C42   H14   S    
C39   C40   A    
C16   C25   A    
C20   H7    S    
C46   C47   A    
C22   C30   A    
C1    O1    A    
C24   C28   A    
S1    O10   D    
C4    C5    A    
C10   C13   A    
C38   C42   A    
C6    C7    A    
C3    C46   A    
Cu1   O5    S    
C32   C33   A    
C36   C38   A    
C2    C3    A    
C25   C26   A    
C7    H1    S    
C12   C44   S    
C27   H9    S    
C17   C29   A    
C5    C6    A    
C1    C30   S    
C33   C35   A    
C31   C39   A    
C37   C41   A    
C16   H4    S    
C46   H20   S    
C10   C11   A    
C20   C21   A    
Cu1   Cu2   S    
C21   C24   A    
C14   H18   S    
Cu1   N1    S    
C34   O7    A    
C49   O12   D    
Cu2   N2    S    
C44   C48   A    
Cu2   O6    S    
C32   H15   S    
C29   H2    S    
