data_mof_unit_31701.cif
_audit_creation_date              2013-03-05T15:53:28-0500
_audit_creation_method            fapswitch 2.2
_symmetry_space_group_name_H-M    P1
_symmetry_Int_Tables_number       1
_space_group_crystal_system       triclinic
_cell_length_a                    24.452127
_cell_length_b                    17.204662
_cell_length_c                    15.500224
_cell_angle_alpha                 89.999519
_cell_angle_beta                  128.718681
_cell_angle_gamma                 90.004763
_cell_volume                      5087.69960951

loop_
_atom_site_label
_atom_site_type_symbol
_atom_site_description
_atom_site_fract_x
_atom_site_fract_y
_atom_site_fract_z
_atom_type_partial_charge
C1    C     C_R   0.840293 0.873089 0.216879 -0.135981
C2    C     C_R   0.159714 0.873114 0.783140 -0.135981
C3    C     C_R   0.333011 0.392799 0.198664 -0.130701
C4    C     C_R   0.667009 0.392893 0.801365 -0.130643
H1    H     H_    0.787757 0.866278 0.189539 0.122265
H2    H     H_    0.212248 0.866313 0.810466 0.122237
H3    H     H_    0.280295 0.394869 0.171905 0.104044
H4    H     H_    0.719708 0.395027 0.828063 0.103788
N1    N     N_R   0.888400 0.921830 0.294620 -0.051179
N2    N     N_R   0.111600 0.921830 0.705380 -0.051177
N3    N     N_R   0.388400 0.421830 0.294620 -0.049537
N4    N     N_R   0.611600 0.421830 0.705380 -0.049535
C5    C     C_R   0.090491 0.859680 0.405990 -0.095754
C6    C     C_R   0.909511 0.859659 0.593994 -0.095826
C7    C     C_R   0.585603 0.356279 0.405555 -0.090620
C8    C     C_R   0.414401 0.356268 0.594438 -0.090664
H5    H     H_    0.062751 0.845619 0.320992 0.109441
H6    H     H_    0.937277 0.845582 0.678988 0.109425
H7    H     H_    0.553630 0.340200 0.319651 0.110571
H8    H     H_    0.446405 0.340182 0.680342 0.110616
N5    N     N_R   0.079940 0.922160 0.443410 -0.038046
N6    N     N_R   0.920060 0.922160 0.556590 -0.038046
N7    N     N_R   0.579940 0.422160 0.443410 -0.037268
N8    N     N_R   0.420060 0.422160 0.556590 -0.037216
C9    C     C_R   0.166363 0.859011 0.589702 -0.126863
C10   C     C_R   0.833629 0.859009 0.410287 -0.126816
C11   C     C_R   0.662332 0.355688 0.590040 -0.117158
C12   C     C_R   0.337662 0.355682 0.409956 -0.117123
H9    H     H_    0.210238 0.844305 0.673311 0.112669
H10   H     H_    0.789751 0.844312 0.326674 0.112597
H11   H     H_    0.703256 0.339068 0.674829 0.117946
H12   H     H_    0.296738 0.339061 0.325165 0.117931
N9    N     N_R   0.125650 0.922400 0.556620 -0.047787
N10   N     N_R   0.874350 0.922400 0.443380 -0.047787
N11   N     N_R   0.625650 0.422400 0.556620 -0.049238
N12   N     N_R   0.374350 0.422400 0.443380 -0.049247
C13   C     C_R   0.069470 0.874198 0.785806 -0.103037
C14   C     C_R   0.930538 0.874180 0.214217 -0.103003
C15   C     C_R   0.576681 0.394035 0.803437 -0.142732
C16   C     C_R   0.423360 0.393925 0.196638 -0.142858
H13   H     H_    0.040708 0.867912 0.816876 0.114051
H14   H     H_    0.959302 0.867889 0.183152 0.114043
H15   H     H_    0.547826 0.397716 0.834900 0.134818
H16   H     H_    0.452223 0.397564 0.165185 0.134673
N13   N     N_R   0.054230 0.922730 0.705400 -0.040689
N14   N     N_R   0.945770 0.922730 0.294600 -0.040696
N15   N     N_R   0.554230 0.422730 0.705400 -0.044686
N16   N     N_R   0.445770 0.422730 0.294600 -0.044722
C17   C     C_R   0.868012 0.837913 0.172003 0.127621
C18   C     C_R   0.132001 0.837944 0.828034 0.127634
C19   C     C_R   0.353187 0.374770 0.135265 0.134712
C20   C     C_R   0.646873 0.374957 0.864846 0.134623
C21   C     C_R   0.142719 0.817233 0.495636 0.050189
C22   C     C_R   0.857278 0.817205 0.504337 0.050307
C23   C     C_R   0.637190 0.312903 0.495426 0.046540
C24   C     C_R   0.362808 0.312885 0.504562 0.046571
C25   C     C_R   0.811395 0.101120 0.408261 -0.205229
C26   C     C_R   0.188614 0.101097 0.591733 -0.205308
C27   C     C_R   0.311498 0.600939 0.407890 -0.189657
C28   C     C_R   0.688511 0.600925 0.592093 -0.189729
H17   H     H_    0.764019 0.093110 0.324322 0.133662
H18   H     H_    0.235986 0.093052 0.675661 0.133680
H19   H     H_    0.264381 0.592215 0.323970 0.130312
H20   H     H_    0.735627 0.592154 0.675992 0.130319
N17   N     N_R   0.873790 0.077030 0.443380 -0.061863
N18   N     N_R   0.126210 0.077030 0.556620 -0.061865
N19   N     N_R   0.373790 0.577030 0.443380 -0.060528
N20   N     N_R   0.626210 0.577030 0.556620 -0.060520
C29   C     C_R   0.941609 0.141651 0.242862 0.011490
C30   C     C_R   0.058414 0.141649 0.757174 0.011515
C31   C     C_R   0.424881 0.611623 0.201224 0.000923
C32   C     C_R   0.575109 0.611662 0.798747 0.000930
H21   H     H_    0.978092 0.158686 0.229515 0.190416
H22   H     H_    0.021941 0.158682 0.770544 0.190328
H23   H     H_    0.453527 0.610773 0.169560 0.200488
H24   H     H_    0.546449 0.610862 0.830387 0.200560
N21   N     N_R   0.945200 0.076700 0.294600 -0.048795
N22   N     N_R   0.054800 0.076700 0.705400 -0.048745
N23   N     N_R   0.445200 0.576700 0.294600 -0.056450
N24   N     N_R   0.554800 0.576700 0.705400 -0.056346
C33   C     C_R   0.149405 0.141191 0.756273 -0.171202
C34   C     C_R   0.850614 0.141198 0.243752 -0.171254
C35   C     C_R   0.664911 0.613104 0.795381 -0.173337
C36   C     C_R   0.335087 0.613085 0.204610 -0.173373
H25   H     H_    0.197035 0.154852 0.768906 0.110136
H26   H     H_    0.802989 0.154869 0.231124 0.110146
H27   H     H_    0.716865 0.614610 0.819008 0.102946
H28   H     H_    0.283135 0.614593 0.180992 0.102922
N25   N     N_R   0.111030 0.077600 0.705380 -0.035668
N26   N     N_R   0.888970 0.077600 0.294620 -0.035664
N27   N     N_R   0.611030 0.577600 0.705380 -0.034133
N28   N     N_R   0.388970 0.577600 0.294620 -0.034121
C37   C     C_R   0.884194 0.103295 0.591033 0.314368
C38   C     C_R   0.115810 0.103282 0.408967 0.314383
C39   C     C_R   0.384604 0.604154 0.590968 0.346235
C40   C     C_R   0.615381 0.604184 0.409023 0.346227
N29   N     N_R   0.919490 0.077280 0.556590 -0.093577
N30   N     N_R   0.080510 0.077280 0.443410 -0.093593
N31   N     N_R   0.419490 0.577280 0.556590 -0.090191
N32   N     N_R   0.580510 0.577280 0.443410 -0.090271
Ni1   Ni    Ni4+2 0.882160 0.999430 0.370180 0.213821
Ni2   Ni    Ni4+2 0.117840 0.999430 0.629820 0.213794
Ni3   Ni    Ni4+2 0.382160 0.499430 0.370180 0.206867
Ni4   Ni    Ni4+2 0.617840 0.499430 0.629820 0.206860
Ni5   Ni    Ni4+2 0.012460 0.999430 0.370180 0.291966
Ni6   Ni    Ni4+2 0.987540 0.999430 0.629820 0.291984
Ni7   Ni    Ni4+2 0.512460 0.499430 0.370180 0.278385
Ni8   Ni    Ni4+2 0.487540 0.499430 0.629820 0.278534
C41   C     C_R   0.815259 0.118429 0.498643 -0.056125
C42   C     C_R   0.184756 0.118395 0.501350 -0.055982
C43   C     C_R   0.315507 0.618180 0.498370 -0.068648
C44   C     C_R   0.684494 0.618174 0.501601 -0.068348
C45   C     C_R   0.883345 0.183862 0.211845 -0.110441
C46   C     C_R   0.116690 0.183859 0.788201 -0.110612
C47   C     C_R   0.355743 0.634073 0.142807 -0.099263
C48   C     C_R   0.644249 0.634114 0.857165 -0.099335
C49   C     C_R   0.847559 0.720733 0.611494 0.134564
C50   C     C_R   0.152600 0.721034 0.388449 0.134249
C51   C     C_R   0.348572 0.221775 0.611691 0.131702
C52   C     C_R   0.651560 0.222005 0.388308 0.131471
C53   C     C_R   0.832405 0.743096 0.511818 0.030542
C54   C     C_R   0.167617 0.743186 0.488087 0.030625
C55   C     C_R   0.336851 0.239711 0.513244 0.030951
C56   C     C_R   0.663174 0.239782 0.486705 0.031015
C57   C     C_R   0.786926 0.696350 0.418096 -0.186936
C58   C     C_R   0.212954 0.696296 0.581683 -0.186774
C59   C     C_R   0.291557 0.191633 0.420951 -0.186910
C60   C     C_R   0.708376 0.191612 0.578912 -0.186913
H29   H     H_    0.779013 0.706804 0.342095 0.149398
H30   H     H_    0.220759 0.706626 0.657619 0.149343
H31   H     H_    0.285441 0.199229 0.345987 0.150403
H32   H     H_    0.714415 0.199120 0.653821 0.150364
C61   C     C_R   0.247093 0.140021 0.420882 -0.122244
C62   C     C_R   0.752842 0.140014 0.578979 -0.122091
C63   C     C_R   0.744087 0.642531 0.418220 -0.123759
C64   C     C_R   0.255774 0.642470 0.581536 -0.123603
H33   H     H_    0.210212 0.106291 0.347461 0.188469
H34   H     H_    0.789657 0.106203 0.652337 0.188343
H35   H     H_    0.705916 0.611052 0.343101 0.194274
H36   H     H_    0.293827 0.610839 0.656555 0.194022
C65   C     C_R   0.246150 0.140234 0.510844 0.037086
C66   C     C_R   0.753874 0.140332 0.489110 0.037261
C67   C     C_R   0.745656 0.638859 0.510490 0.032571
C68   C     C_R   0.254340 0.638951 0.489394 0.032751
C69   C     C_R   0.303581 0.172961 0.610242 0.171542
C70   C     C_R   0.696550 0.173203 0.389761 0.171419
C71   C     C_R   0.804457 0.669211 0.610762 0.171766
C72   C     C_R   0.195691 0.669520 0.389173 0.171552
C73   C     C_3   0.810819 0.712052 0.701006 -0.501766
C74   C     C_3   0.189638 0.712591 0.299352 -0.501581
C75   C     C_3   0.306959 0.220062 0.694779 -0.513171
C76   C     C_3   0.693399 0.220469 0.305560 -0.513222
C77   C     C_3   0.858063 0.768471 0.701784 -0.488048
C78   C     C_3   0.142400 0.769004 0.298580 -0.487720
C79   C     C_3   0.356225 0.273805 0.696394 -0.474742
C80   C     C_3   0.644137 0.274205 0.303947 -0.474421
H37   H     H_    0.760942 0.739333 0.673388 0.212895
H38   H     H_    0.239629 0.739791 0.327367 0.212973
H39   H     H_    0.256265 0.248189 0.661611 0.208450
H40   H     H_    0.744171 0.248528 0.339018 0.208524
H41   H     H_    0.838708 0.677492 0.778506 0.189642
H42   H     H_    0.161807 0.678235 0.221692 0.189546
H43   H     H_    0.332804 0.188150 0.773939 0.190405
H44   H     H_    0.667605 0.188718 0.226299 0.190353
H45   H     H_    0.834999 0.827735 0.674409 0.215216
H46   H     H_    0.165567 0.828199 0.326348 0.215241
H47   H     H_    0.333704 0.332778 0.664192 0.217191
H48   H     H_    0.666734 0.333110 0.336447 0.217233
H49   H     H_    0.913036 0.766198 0.779786 0.193820
H50   H     H_    0.087489 0.766928 0.220418 0.193857
H51   H     H_    0.410249 0.272790 0.776617 0.192975
H52   H     H_    0.590168 0.273355 0.223622 0.193001
H53   H     H_    0.783856 0.277805 0.174568 0.110868
H54   H     H_    0.216143 0.277788 0.825336 0.110869
H55   H     H_    0.216652 0.631821 0.002278 0.113959
H56   H     H_    0.783330 0.631762 0.997760 0.113980
H57   H     H_    0.207867 0.729773 0.828015 0.158187
H58   H     H_    0.792148 0.729736 0.172033 0.158155
H59   H     H_    0.787046 0.375622 0.007958 0.173582
H60   H     H_    0.213055 0.376052 0.991669 0.173280
C81   C     C_2   0.160151 0.768789 0.896521 -0.236481
C82   C     C_2   0.839869 0.768748 0.103530 -0.236429
C83   C     C_2   0.692791 0.348285 0.979830 -0.239518
C84   C     C_2   0.307322 0.347914 0.020380 -0.239563
C85   C     C_2   0.198544 0.719751 0.887123 -0.001005
C86   C     C_2   0.801473 0.719708 0.112927 -0.001025
C87   C     C_2   0.762514 0.348025 0.038952 -0.008715
C88   C     C_2   0.237594 0.348043 0.960977 -0.008514
C89   C     C_2   0.858303 0.256916 0.149640 0.755000
C90   C     C_2   0.141762 0.256926 0.850408 0.755308
C91   C     C_2   0.310216 0.664419 0.030453 0.770279
C92   C     C_2   0.689775 0.664459 0.969523 0.770257
C93   C     C_2   0.804592 0.295233 0.132752 -0.347266
C94   C     C_2   0.195447 0.295242 0.867196 -0.347459
C95   C     C_2   0.240746 0.662647 0.972713 -0.366957
C96   C     C_2   0.759245 0.662623 0.027307 -0.366822
H61   H     H_    0.150859 0.758668 0.955650 0.144965
H62   H     H_    0.849165 0.758621 0.044404 0.144974
H63   H     H_    0.668748 0.320631 0.011844 0.148403
H64   H     H_    0.331374 0.319840 0.988676 0.148372
F1    F     F_    0.884142 0.279218 0.097045 -0.680579
F2    F     F_    0.116001 0.279234 0.903108 -0.680519
F3    F     F_    0.339481 0.703683 0.992043 -0.674968
F4    F     F_    0.660519 0.703768 0.007907 -0.675077
N33   N     N_R   0.909170 0.094277 0.702015 0.203842
O1    O     O_R   0.946230 0.033454 0.758685 -0.421407
O2    O     O_R   0.908833 0.153685 0.753632 -0.386095
N34   N     N_R   0.090815 0.094273 0.297976 0.203781
O3    O     O_R   0.053847 0.033382 0.241355 -0.421418
O4    O     O_R   0.091060 0.153715 0.246314 -0.386122
N35   N     N_R   0.409501 0.595157 0.701695 0.201236
O5    O     O_R   0.434902 0.528668 0.751652 -0.444657
O6    O     O_R   0.416949 0.656013 0.758025 -0.379535
N36   N     N_R   0.590430 0.595287 0.298258 0.201102
O7    O     O_R   0.565428 0.528674 0.248438 -0.444469
O8    O     O_R   0.582738 0.656224 0.241865 -0.379616

loop_
_geom_bond_atom_site_label_1
_geom_bond_atom_site_label_2
_geom_bond_distance
_ccdc_geom_bond_type
C26   H18   1.080819 S    
C35   H27   1.080102 S    
C76   H40   1.112549 S    
C52   C70   1.372899 A    
C46   C90   1.464996 S    
N25   Ni2   1.858011 S    
C30   N22   1.346004 A    
C77   H49   1.112259 S    
N18   Ni2   1.844484 S    
C29   N21   1.345900 A    
C6    H6    1.065968 S    
C82   H62   1.087451 S    
C20   C83   1.464388 S    
N17   Ni1   1.844524 S    
N27   Ni4   1.858010 S    
C68   C72   1.399850 A    
C81   H61   1.087410 S    
C31   N23   1.342801 A    
C12   C24   1.393802 A    
N19   Ni3   1.844524 S    
C14   C17   1.379608 A    
N5    Ni5   1.853550 S    
N33   O1    1.300834 A    
C30   C46   1.389870 A    
C61   H33   1.077583 S    
N31   Ni8   1.867802 S    
C40   C44   1.392579 A    
C29   C45   1.389811 A    
N8    N12   1.369279 A    
N30   Ni5   1.867619 S    
C4    C20   1.382698 A    
N12   Ni3   1.830621 S    
C1    H1    1.078208 S    
C92   C96   1.336189 D    
C44   C67   1.457543 S    
C86   C96   1.441391 S    
C71   C73   1.500637 S    
C9    C21   1.386430 A    
N4    Ni4   1.844159 S    
C3    H3    1.079841 S    
C21   C54   1.447951 S    
C66   C70   1.398497 A    
C11   C23   1.393761 A    
N16   Ni7   1.839229 S    
H59   C87   1.084681 S    
C80   H48   1.112589 S    
C39   N31   1.339440 A    
C59   H31   1.082685 S    
N14   Ni5   1.839228 S    
C10   C22   1.386467 A    
C52   C80   1.500802 S    
C32   N24   1.342767 A    
H57   C85   1.087370 S    
C78   H50   1.112153 S    
C49   C71   1.371706 A    
C82   C86   1.336224 D    
C4    H4    1.079814 S    
C73   C77   1.503084 S    
C49   C53   1.398639 A    
C2    C18   1.378179 A    
N28   Ni3   1.857973 S    
C27   N19   1.320521 A    
C40   N36   1.425822 S    
C64   H36   1.077318 S    
C10   N10   1.343469 A    
C38   N34   1.428949 S    
C25   C41   1.376476 A    
C76   C80   1.506261 S    
C79   H47   1.112671 S    
N34   O3    1.300872 A    
C84   H64   1.087327 S    
C33   C46   1.385299 A    
C30   H22   1.074933 S    
C27   C43   1.375668 A    
C29   H21   1.074878 S    
C41   C66   1.462692 S    
N8    Ni8   1.853368 S    
C75   C79   1.506270 S    
C4    N4    1.332453 A    
H60   C88   1.084303 S    
C32   H24   1.077862 S    
C56   C60   1.405382 A    
C33   N25   1.331763 A    
C57   C63   1.398918 A    
C7    N7    1.322832 A    
C15   C20   1.384166 A    
C48   C92   1.455828 S    
C88   C94   1.458131 S    
N1    N14   1.403099 A    
C8    N8    1.322875 A    
C87   C93   1.458153 S    
N3    N16   1.403099 A    
C2    H2    1.078212 S    
C91   F3    1.362262 S    
C85   C95   1.441399 S    
N4    N15   1.403099 A    
N6    N10   1.369279 A    
C60   H32   1.082667 S    
H55   C95   1.084460 S    
C26   N18   1.325526 A    
C60   C62   1.403207 A    
C5    C21   1.369391 A    
N33   O2    1.301205 A    
N22   N25   1.375220 A    
C9    H9    1.074808 S    
C74   H42   1.112043 S    
N21   N26   1.375228 A    
C31   H23   1.077883 S    
N10   Ni1   1.830621 S    
C31   C47   1.382842 A    
N9    Ni2   1.830656 S    
C39   C43   1.392589 A    
C24   C55   1.453473 S    
N20   Ni4   1.844482 S    
C12   H12   1.079420 S    
C1    N1    1.328747 A    
N11   Ni4   1.830657 S    
C3    C19   1.382705 A    
N36   O7    1.301077 A    
C90   F2    1.362029 S    
C15   H15   1.081735 S    
C89   F1    1.362091 S    
C34   H26   1.079202 S    
C11   H11   1.079426 S    
C80   H52   1.111949 S    
C83   H63   1.087725 S    
C84   C88   1.338261 D    
C75   H39   1.112625 S    
C54   C58   1.404503 A    
C42   C65   1.462871 S    
C7    H7    1.076303 S    
C8    C24   1.375001 A    
N26   Ni1   1.857973 S    
C53   C57   1.404545 A    
C28   C44   1.375777 A    
C89   C93   1.340912 D    
C63   C67   1.407938 A    
C62   C66   1.408927 A    
C55   C59   1.405409 A    
N35   O5    1.300925 A    
N2    Ni2   1.844159 S    
C8    H8    1.076307 S    
N7    Ni7   1.853550 S    
N19   N31   1.369275 A    
N2    N13   1.403099 A    
C92   F4    1.362236 S    
N23   Ni7   1.853278 S    
C76   H44   1.111828 S    
H56   C96   1.084437 S    
C25   H17   1.080852 S    
C28   N20   1.320632 A    
N23   N28   1.375228 A    
C69   C75   1.498364 S    
C43   C68   1.457346 S    
C70   C76   1.498257 S    
N29   Ni6   1.867803 S    
C72   C74   1.500523 S    
N34   O4    1.301203 A    
C6    C22   1.369464 A    
C22   C53   1.448144 S    
C7    C23   1.374949 A    
C19   C84   1.464188 S    
C36   C47   1.381448 A    
C75   H43   1.111914 S    
C57   H29   1.082795 S    
H53   C93   1.085457 S    
C51   C79   1.500899 S    
C18   C81   1.449939 S    
C73   H41   1.112147 S    
C13   N13   1.344753 A    
C2    N2    1.328747 A    
C37   N29   1.344155 A    
C67   C71   1.399976 A    
C35   N27   1.325011 A    
N13   Ni6   1.839411 S    
C15   N15   1.345620 A    
C37   N33   1.428989 S    
C16   N16   1.345577 A    
N24   Ni8   1.853098 S    
C23   C56   1.453328 S    
N32   Ni7   1.867619 S    
C81   C85   1.336238 D    
C74   H38   1.112509 S    
C58   C64   1.398930 A    
N35   O6    1.301057 A    
C26   C42   1.376526 A    
C27   H19   1.080321 S    
N20   N32   1.369278 A    
C59   C61   1.403195 A    
C34   C45   1.385262 A    
C25   N17   1.325490 A    
C62   H34   1.077609 S    
H54   C94   1.085385 S    
C51   C55   1.399567 A    
C39   N35   1.425894 S    
C51   C69   1.372972 A    
C16   C19   1.384080 A    
C45   C89   1.464883 S    
C32   C48   1.382808 A    
C61   C65   1.408975 A    
C34   N26   1.331769 A    
C5    H5    1.066022 S    
C28   H20   1.080286 S    
C63   H35   1.077320 S    
C11   N11   1.345040 A    
N18   N30   1.369278 A    
N24   N27   1.375220 A    
N21   Ni5   1.853278 S    
C47   C91   1.455857 S    
C64   C68   1.407873 A    
N6    Ni6   1.853367 S    
C5    N5    1.321279 A    
C49   C77   1.499828 S    
C13   C18   1.379669 A    
C6    N6    1.321366 A    
C36   H28   1.080116 S    
C1    C17   1.378175 A    
C50   C54   1.398507 A    
C40   N32   1.339347 A    
C50   C72   1.371577 A    
C65   C69   1.398592 A    
C38   C42   1.392906 A    
N22   Ni6   1.853099 S    
C50   C78   1.499723 S    
N36   O8    1.301123 A    
C38   N30   1.344106 A    
C13   H13   1.077943 S    
N7    N11   1.369281 A    
C91   C95   1.336255 D    
C14   N14   1.344709 A    
C3    N3    1.332611 A    
C90   C94   1.340903 D    
N17   N29   1.369275 A    
C17   C82   1.449906 S    
H58   C86   1.087404 S    
C14   H14   1.077933 S    
C79   H51   1.112050 S    
C16   H16   1.081729 S    
N5    N9    1.369281 A    
C12   N12   1.345057 A    
N1    Ni1   1.844189 S    
N15   Ni8   1.839412 S    
C74   C78   1.503069 S    
C77   H45   1.112853 S    
C35   C48   1.381448 A    
C58   H30   1.082773 S    
C78   H46   1.112768 S    
N3    Ni3   1.844189 S    
C36   N28   1.325033 A    
C73   H37   1.112600 S    
C9    N9    1.343486 A    
C33   H25   1.079203 S    
C83   C87   1.338626 D    
C52   C56   1.399478 A    
C37   C41   1.392889 A    
C10   H10   1.074792 S    
