data_mof_unit_42093.cif
_audit_creation_date              2012-10-26T21:17:42-0400
_audit_creation_method            fapswitch 2.2
_symmetry_space_group_name_H-M    P1
_symmetry_Int_Tables_number       1
_space_group_crystal_system       triclinic
_cell_length_a                    10.819406
_cell_length_b                    9.090559
_cell_length_c                    7.801445
_cell_angle_alpha                 89.967879
_cell_angle_beta                  91.136579
_cell_angle_gamma                 90.602814
_cell_volume                      767.113348632

loop_
_atom_site_label
_atom_site_type_symbol
_atom_type_description
_atom_site_fract_x
_atom_site_fract_y
_atom_site_fract_z
_atom_type_partial_charge
C1    C     C_R   0.502441 0.220158 0.500057 0.567282
C2    C     C_R   0.060954 0.433479 0.639555 -0.006936
C3    C     C_R   0.126829 0.483847 0.495402 0.033615
C4    C     C_R   0.873733 0.533120 0.514555 0.029288
C5    C     C_R   0.063866 0.554249 0.360518 -0.154964
C6    C     C_R   0.937188 0.572428 0.367344 -0.152014
C7    C     C_1   0.503827 0.065438 0.500066 -0.026770
C8    C     C_1   0.503088 0.934634 0.500023 -0.030376
C9    C     C_2   0.198604 0.218207 0.715257 0.590993
C10   C     C_2   0.817663 0.621282 0.887077 0.590790
C11   C     C_R   0.501130 0.779925 0.499987 0.552654
C12   C     C_R   0.261567 0.490559 0.498385 0.567647
C13   C     C_R   0.738415 0.515165 0.503344 0.550123
C14   C     C_R   0.108098 0.331702 0.762194 0.070016
C15   C     C_R   0.898645 0.499378 0.833251 0.072744
C16   C     C_R   0.050914 0.319545 0.921448 -0.142272
C17   C     C_R   0.950335 0.407229 0.958968 -0.165381
C18   C     C_R   0.942428 0.490716 0.663422 0.001802
Cu1   Cu    Cu3+1 0.500000 0.500000 0.669080 1.098347
Cu2   Cu    Cu3+1 0.500000 0.500000 0.330920 1.090913
H1    H     H_    0.112332 0.594841 0.249554 0.149468
H2    H     H_    0.889146 0.620167 0.259195 0.180821
H3    H     H_    0.084251 0.242450 0.017242 0.170640
H4    H     H_    0.912722 0.402318 0.086009 0.154752
H5    H     H_    0.255033 0.077762 0.533431 0.332219
H6    H     H_    0.755737 0.826536 0.841099 0.343121
N1    N     N_1   0.500000 0.500000 0.076820 -0.039163
N2    N     N_1   0.500000 0.500000 0.923180 -0.044834
O1    O     O_R   0.500000 0.288390 0.642760 -0.476832
O2    O     O_R   0.199799 0.165989 0.546773 -0.704870
O3    O     O_2   0.752268 0.607123 0.011834 -0.526686
O4    O     O_R   0.815455 0.752513 0.793352 -0.690836
O5    O     O_R   0.500000 0.711610 0.642760 -0.493777
O6    O     O_R   0.500000 0.288370 0.357190 -0.493250
O7    O     O_R   0.500000 0.711630 0.357190 -0.493766
O8    O     O_R   0.319650 0.500000 0.642810 -0.507986
O9    O     O_R   0.680350 0.500000 0.642810 -0.500227
O10   O     O_R   0.319630 0.500000 0.357240 -0.510363
O11   O     O_R   0.680370 0.500000 0.357240 -0.481891
O12   O     O_2   0.266988 0.164594 0.824722 -0.504042

loop_
_geom_bond_atom_site_label_1
_geom_bond_atom_site_label_2
_ccdc_geom_bond_type
C15   C18   A    
C9    C14   S    
H6    O4    S    
Cu2   N1    S    
C12   O8    A    
Cu2   O10   S    
C13   O9    A    
Cu1   Cu2   S    
C10   C15   S    
N1    N2    T    
Cu2   O6    S    
C1    O1    A    
C2    C3    A    
C4    C18   A    
C7    C8    T    
Cu1   N2    S    
C9    O2    S    
C8    C11   S    
C11   O7    A    
C1    O6    A    
C16   H3    S    
Cu1   O8    S    
C12   O10   A    
C5    C6    A    
C2    C14   A    
C14   C16   A    
C13   O11   A    
C17   H4    S    
C2    C18   A    
Cu1   O1    S    
C10   O4    S    
C11   O5    A    
C5    H1    S    
C4    C6    A    
Cu1   O5    S    
C4    C13   S    
C15   C17   A    
Cu2   O11   S    
H5    O2    S    
C3    C12   S    
Cu1   O9    S    
C1    C7    S    
Cu2   O7    S    
C10   O3    D    
C9    O12   D    
C16   C17   A    
C3    C5    A    
C6    H2    S    
