data_mof_unit_52985.cif
_audit_creation_date              2012-12-11T14:06:53-0500
_audit_creation_method            fapswitch 2.2
_symmetry_space_group_name_H-M    P1
_symmetry_Int_Tables_number       1
_space_group_crystal_system       triclinic
_cell_length_a                    6.921093
_cell_length_b                    17.355127
_cell_length_c                    24.115392
_cell_angle_alpha                 104.391616
_cell_angle_beta                  90.369695
_cell_angle_gamma                 90.304159
_cell_volume                      2805.62700778

loop_
_atom_site_label
_atom_site_type_symbol
_atom_type_description
_atom_site_fract_x
_atom_site_fract_y
_atom_site_fract_z
_atom_type_partial_charge
O1    O     O_R   0.494290 0.391990 0.999150 -0.569570
O2    O     O_R   0.827170 0.534410 0.082350 -0.542611
O3    O     O_R   0.994360 0.608010 0.000850 -0.539758
C1    C     C_R   0.659280 0.551514 0.105977 0.824289
O4    O     O_R   0.824210 0.388010 0.004470 -0.513344
O5    O     O_R   0.991370 0.460560 0.922410 -0.511046
C2    C     C_R   0.654369 0.355066 0.001572 0.692034
O6    O     O_R   0.497270 0.539440 0.077590 -0.516262
O7    O     O_3   0.659770 0.523970 0.973170 -0.356187
V1    V     V_3+5 0.935840 0.495550 0.004980 1.657861
O8    O     O_R   0.320910 0.465590 0.917650 -0.545758
C3    C     C_R   0.151428 0.451101 0.893803 0.774521
O9    O     O_R   0.323870 0.611990 0.995530 -0.521003
C4    C     C_R   0.153616 0.644752 0.997522 0.798503
V2    V     V_3+5 0.435470 0.504450 0.995020 1.634375
O10   O     O_3   0.161670 0.476030 0.026830 -0.367800
C5    C     C_2   0.137692 0.729924 0.997334 -0.312966
H1    H     H_    0.272290 0.763030 0.999722 0.182493
C6    C     C_2   0.966148 0.768579 0.997134 -0.275044
C7    C     C_R   0.107874 0.235509 0.627625 0.734330
N1    N     N_R   0.097125 0.316314 0.649498 -0.548984
C8    C     C_R   0.064092 0.365918 0.614283 0.622704
C9    C     C_R   0.051397 0.335386 0.554666 -0.009623
C10   C     C_R   0.061897 0.252436 0.531273 -0.080588
C11   C     C_R   0.087747 0.201650 0.567978 -0.180850
C12   C     C_R   0.031038 0.386235 0.518039 -0.100509
C13   C     C_R   0.021496 0.355478 0.459023 -0.081789
C14   C     C_R   0.024989 0.273077 0.435143 -0.042138
C15   C     C_R   0.046320 0.220761 0.471145 -0.015292
C16   C     C_R   0.052442 0.137543 0.447113 -0.202200
C17   C     C_R   0.082593 0.086501 0.484608 -0.155887
C18   C     C_R   0.097247 0.118934 0.544200 0.687816
C19   C     C_R   0.008223 0.242187 0.375786 0.622494
N2    N     N_R   0.009833 0.161806 0.352551 -0.533278
C20   C     C_R   0.025264 0.109485 0.386695 0.788258
O11   O     O_2   0.139852 0.188324 0.663485 -0.428290
O12   O     O_2   0.043735 0.444756 0.636927 -0.507827
H2    H     H_    0.025687 0.450177 0.534751 0.191376
H3    H     H_    0.012166 0.396624 0.432009 0.229787
O13   O     O_2   0.987232 0.292334 0.341437 -0.484062
O14   O     O_2   0.011578 0.030995 0.362048 -0.428416
C21   C     C_R   0.842506 0.086431 0.264096 0.659939
C22   C     C_R   0.832161 0.060442 0.204311 0.534720
C23   C     C_R   0.976088 0.082206 0.169581 -0.351125
C24   C     C_R   0.131911 0.131592 0.196830 -0.113530
C25   C     C_R   0.144552 0.153562 0.256873 -0.150151
H4    H     H_    0.263740 0.190599 0.277751 0.208505
C26   C     C_R   0.999899 0.132458 0.290857 0.121843
C27   C     C_R   0.275299 0.401648 0.733298 -0.042649
C28   C     C_R   0.282683 0.438923 0.793013 -0.197352
C29   C     C_R   0.140375 0.419937 0.830148 -0.259512
C30   C     C_R   0.989541 0.366959 0.806262 0.619999
C31   C     C_R   0.978424 0.333639 0.747474 -0.111547
H5    H     H_    0.858456 0.294460 0.730260 0.186565
C32   C     C_R   0.119395 0.349811 0.710589 0.198390
C33   C     C_R   0.512470 0.881905 0.612972 0.771903
N3    N     N_R   0.493281 0.831312 0.648182 -0.545254
C34   C     C_R   0.492819 0.750534 0.626273 0.688682
C35   C     C_R   0.514212 0.717675 0.567001 -0.003880
C36   C     C_R   0.535440 0.768392 0.530119 -0.093888
C37   C     C_R   0.533704 0.851628 0.553151 -0.284284
C38   C     C_R   0.519517 0.635235 0.544397 -0.156743
C39   C     C_R   0.550419 0.601970 0.485980 -0.031100
C40   C     C_R   0.567011 0.652310 0.447463 -0.062927
C41   C     C_R   0.558928 0.735912 0.470285 -0.092827
C42   C     C_R   0.574798 0.787459 0.433506 -0.296171
C43   C     C_R   0.577660 0.870409 0.457154 0.610655
C44   C     C_R   0.556329 0.902024 0.515964 0.617159
C45   C     C_R   0.588074 0.623044 0.387132 0.744545
N4    N     N_R   0.600615 0.674162 0.352005 -0.536689
C46   C     C_R   0.588099 0.754785 0.373967 0.705848
O15   O     O_2   0.510728 0.961150 0.635847 -0.409750
O16   O     O_2   0.474665 0.701988 0.661851 -0.479622
H6    H     H_    0.506427 0.595885 0.572813 0.181859
O17   O     O_2   0.593623 0.544238 0.363264 -0.451907
O18   O     O_2   0.585815 0.803178 0.337997 -0.420544
C47   C     C_R   0.786974 0.662796 0.261387 -0.129128
C48   C     C_R   0.796154 0.636711 0.200435 -0.162185
C49   C     C_R   0.651170 0.584364 0.169557 -0.349170
C50   C     C_R   0.495731 0.562619 0.199928 0.536655
C51   C     C_R   0.479767 0.593015 0.258980 0.659112
C52   C     C_R   0.624287 0.642379 0.290559 0.069898
C53   C     C_R   0.308153 0.859729 0.738692 0.721322
C54   C     C_R   0.300197 0.888905 0.798368 -0.308577
H7    H     H_    0.164939 0.884723 0.819780 0.223083
C55   C     C_R   0.465624 0.921648 0.830163 -0.268041
C56   C     C_R   0.639076 0.925560 0.800339 0.613388
C57   C     C_R   0.645958 0.896842 0.740722 -0.203165
H8    H     H_    0.780405 0.900060 0.718667 0.226695
C58   C     C_R   0.481565 0.863332 0.709467 0.142601
C59   C     C_2   0.644544 0.270333 0.002288 0.448927
C60   C     C_2   0.474498 0.230069 0.998100 -0.398648
H9    H     H_    0.339876 0.260424 0.994448 0.145045
O19   O     O_R   0.618210 0.960470 0.922400 -0.512741
O20   O     O_R   0.291310 0.111960 0.995450 -0.526337
O21   O     O_R   0.124210 0.039530 0.077580 -0.540006
C61   C     C_R   0.461560 0.145047 0.998473 0.839558
O22   O     O_R   0.288310 0.965490 0.917650 -0.546783
O23   O     O_R   0.121180 0.892010 0.999220 -0.546350
C62   C     C_R   0.456768 0.950737 0.893814 0.771690
O24   O     O_R   0.621230 0.107990 0.000760 -0.506237
O25   O     O_3   0.455770 0.976060 0.026840 -0.382760
V3    V     V_3+5 0.179680 0.004440 0.995020 1.620321
O26   O     O_R   0.791670 0.888040 0.004570 -0.553858
C63   C     C_R   0.960212 0.854795 0.000798 0.689004
O27   O     O_R   0.794680 0.034510 0.082370 -0.512765
C64   C     C_R   0.964127 0.051291 0.105994 0.840499
V4    V     V_3+5 0.680070 0.995560 0.005010 1.645240
O28   O     O_3   0.953840 0.023940 0.973160 -0.341244
C65   C     C_2   0.427592 0.417095 0.694051 0.869550
O29   O     O_2   0.498804 0.361547 0.658863 -0.553300
O30   O     O_R   0.487058 0.495044 0.696602 -0.618380
H10   H     H_    0.590485 0.497630 0.667516 0.331601
C66   C     C_2   0.436863 0.498337 0.816113 0.909874
O31   O     O_2   0.393780 0.564485 0.844762 -0.536647
O32   O     O_R   0.630748 0.478713 0.804967 -0.639691
H11   H     H_    0.721960 0.523974 0.823175 0.316339
F1    F     F_    0.852799 0.345911 0.839988 -0.659598
C67   C     C_2   0.571401 0.514527 0.468953 0.856198
O33   O     O_2   0.717660 0.484986 0.444830 -0.528927
O34   O     O_R   0.429547 0.466172 0.484205 -0.662179
H12   H     H_    0.462240 0.407548 0.471613 0.307856
F2    F     F_    0.608044 0.921838 0.423802 -0.532172
F3    F     F_    0.560048 0.982400 0.536092 -0.558204
C68   C     C_2   0.944136 0.712172 0.295293 0.986320
O35   O     O_2   0.008222 0.770027 0.280909 -0.494509
O36   O     O_R   0.014992 0.693456 0.344766 -0.633224
H13   H     H_    0.120245 0.731553 0.364501 0.303881
C69   C     C_2   0.775582 0.726935 0.989855 0.864164
O37   O     O_2   0.734430 0.680728 0.944203 -0.518457
O38   O     O_R   0.640093 0.741916 0.033876 -0.650974
H14   H     H_    0.688689 0.781459 0.069611 0.291630
C70   C     C_2   0.952187 0.666564 0.169012 0.903015
O39   O     O_2   0.910966 0.697120 0.129984 -0.578245
O40   O     O_R   0.145422 0.660403 0.184211 -0.624629
H15   H     H_    0.237499 0.682912 0.159604 0.295766
F4    F     F_    0.356736 0.511537 0.172240 -0.615714
F5    F     F_    0.320554 0.574463 0.285735 -0.591171
F6    F     F_    0.147085 0.827726 0.709321 -0.646389
F7    F     F_    0.802050 0.957959 0.828463 -0.657253
F8    F     F_    0.814770 0.233441 0.007109 -0.648115
C71   C     C_2   0.111910 0.999465 0.464053 1.042974
O41   O     O_2   0.233057 0.973608 0.427660 -0.475093
O42   O     O_R   0.008773 0.947286 0.488826 -0.610455
H16   H     H_    0.044078 0.889579 0.472102 0.281373
F9    F     F_    0.127882 0.068928 0.578742 -0.561110
F10   F     F_    0.697483 0.067368 0.296017 -0.571922
F11   F     F_    0.681083 0.013193 0.180508 -0.613704
C72   C     C_2   0.277363 0.166258 0.164922 0.877541
O43   O     O_2   0.228072 0.191400 0.123938 -0.553945
O44   O     O_R   0.469793 0.173812 0.183611 -0.636460
H17   H     H_    0.555273 0.198642 0.158669 0.298420

loop_
_geom_bond_atom_site_label_1
_geom_bond_atom_site_label_2
_ccdc_geom_bond_type
C6    C69   S    
O23   V3    S    
C56   C57   A    
C7    C11   A    
C56   F7    S    
C1    O6    A    
C44   F3    S    
C53   F6    S    
C66   O31   D    
O40   H15   S    
C47   C48   A    
O32   H11   S    
O19   V4    S    
C12   C13   A    
C15   C16   A    
C16   C20   A    
C14   C15   A    
C54   C55   A    
C72   O44   S    
O5    C3    A    
C46   O18   S    
C18   F9    S    
O27   C64   A    
O22   V3    S    
V4    O28   S    
N2    C20   A    
C9    C12   A    
C65   O29   D    
O30   H10   S    
C22   F11   S    
C10   C15   A    
O8    V2    S    
C53   C54   A    
C13   H3    S    
C33   O15   S    
O44   H17   S    
O25   V4    S    
N4    C46   A    
O1    V2    S    
C55   C62   S    
O7    V1    S    
C57   H8    S    
C11   C18   A    
C67   O34   S    
C42   C43   A    
C35   C36   A    
O9    C4    A    
C70   O40   S    
C4    C5    S    
O25   V3    S    
C20   O14   S    
C21   F10   S    
C8    C9    A    
O26   C63   A    
O20   V3    S    
C60   C61   S    
C5    H1    S    
C31   C32   A    
C51   F5    S    
O23   C63   A    
C25   C26   A    
C19   O13   S    
C71   O41   D    
N3    C58   S    
C43   C44   A    
C54   H7    S    
C1    C49   S    
C59   C60   D    
N1    C32   S    
C48   C49   A    
C12   H2    S    
C28   C29   A    
C34   C35   A    
C31   H5    S    
C8    O12   S    
C51   C52   A    
C29   C30   A    
C36   C37   A    
C28   C66   S    
O2    C1    A    
C22   C23   A    
O5    V1    S    
C38   C39   A    
C70   O39   D    
C39   C67   S    
C42   C46   A    
O19   C62   A    
C9    C10   A    
C2    C59   S    
C19   N2    A    
C21   C26   A    
C40   C45   A    
C10   C11   A    
C67   O33   D    
O34   H12   S    
O3    C4    A    
C6    C63   S    
O21   C64   A    
C57   C58   A    
C36   C41   A    
C41   C42   A    
O6    V2    S    
O22   C62   A    
O9    V2    S    
C68   O35   D    
C71   O42   S    
C49   C50   A    
N2    C26   S    
C33   N3    A    
O38   H14   S    
O2    V1    S    
O26   V4    S    
C3    C29   S    
C47   C68   S    
C23   C24   A    
C55   C56   A    
O4    C2    A    
C69   O37   D    
C23   C64   S    
C53   C58   A    
C25   H4    S    
C35   C38   A    
O1    C2    A    
C17   C18   A    
C50   C51   A    
C43   F2    S    
C14   C19   A    
C66   O32   S    
O8    C3    A    
O20   C61   A    
O36   H13   S    
V3    O28   S    
O42   H16   S    
C40   C41   A    
C17   C71   S    
O7    V2    S    
O4    V1    S    
O3    V1    S    
C27   C32   A    
C72   O43   D    
C37   C44   A    
N3    C34   A    
C16   C17   A    
O27   V4    S    
C47   C52   A    
O24   V4    S    
V2    O10   S    
C60   H9    S    
C5    C6    D    
C45   O17   S    
C24   C72   S    
C45   N4    A    
N4    C52   S    
C48   C70   S    
C65   O30   S    
C39   C40   A    
C7    O11   S    
C24   C25   A    
C7    N1    A    
C27   C28   A    
C21   C22   A    
O21   V3    S    
C13   C14   A    
C68   O36   S    
C33   C37   A    
C38   H6    S    
V1    O10   S    
C69   O38   S    
N1    C8    A    
C61   O24   A    
C50   F4    S    
C34   O16   S    
C30   C31   A    
C27   C65   S    
C59   F8    S    
C30   F1    S    
