data_mof_unit_17936.cif
_audit_creation_date              2012-12-10T20:46:34-0500
_audit_creation_method            fapswitch 2.2
_symmetry_space_group_name_H-M    P1
_symmetry_Int_Tables_number       1
_space_group_crystal_system       triclinic
_cell_length_a                    10.401443
_cell_length_b                    8.93468
_cell_length_c                    8.116603
_cell_angle_alpha                 90.345901
_cell_angle_beta                  101.621855
_cell_angle_gamma                 89.911125
_cell_volume                      738.826946218

loop_
_atom_site_label
_atom_site_type_symbol
_atom_type_description
_atom_site_fract_x
_atom_site_fract_y
_atom_site_fract_z
_atom_type_partial_charge
C1    C     C_R   0.499433 0.217973 0.499568 0.922388
C2    C     C_1   0.500946 0.934811 0.500742 -0.195261
C3    C     C_3   0.837598 0.255068 0.372361 -0.934999
C4    C     C_3   0.148838 0.223486 0.534452 -0.979516
C5    C     C_3   0.938837 0.675167 0.770566 0.060779
C6    C     C_3   0.911868 0.801362 0.640821 -0.334594
C7    C     C_3   0.861911 0.940705 0.717467 -0.983962
C8    C     C_3   0.065196 0.685854 0.224091 0.047725
C9    C     C_3   0.140166 0.826626 0.297592 -0.361060
C10   C     C_3   0.200474 0.906322 0.165652 -0.914102
C11   C     C_R   0.501269 0.782002 0.500651 0.940595
C12   C     C_R   0.255856 0.498723 0.433566 0.807003
C13   C     C_R   0.744359 0.493623 0.566117 0.769147
C14   C     C_2   0.113109 0.480530 0.404840 0.317259
C15   C     C_2   0.886625 0.463004 0.592004 0.349771
C16   C     C_2   0.066143 0.359580 0.474213 0.194666
C17   C     C_2   0.928044 0.359057 0.490297 0.161120
C18   C     C_1   0.500273 0.065169 0.499697 -0.206552
H1    H     H_    0.892138 0.156300 0.338633 0.244850
H2    H     H_    0.837846 0.766933 0.528724 0.226083
H3    H     H_    0.768325 0.916131 0.757925 0.276140
H4    H     H_    0.844222 0.030655 0.622692 0.271982
H5    H     H_    0.935532 0.981008 0.827195 0.265791
H6    H     H_    0.973427 0.723280 0.139597 0.156944
H7    H     H_    0.119852 0.619889 0.143694 0.156605
H8    H     H_    0.071669 0.904531 0.343615 0.215360
H9    H     H_    0.219254 0.797349 0.405909 0.217984
H10   H     H_    0.270511 0.831145 0.118733 0.280137
H11   H     H_    0.254438 0.007263 0.222013 0.263879
H12   H     H_    0.757979 0.213122 0.432000 0.228288
H13   H     H_    0.122544 0.941681 0.058585 0.252123
H14   H     H_    0.794943 0.314374 0.254147 0.274937
H15   H     H_    0.087903 0.132657 0.571750 0.254579
H16   H     H_    0.195614 0.180337 0.432345 0.225553
H17   H     H_    0.225449 0.251725 0.646288 0.277973
H18   H     H_    0.020503 0.714373 0.870811 0.160680
H19   H     H_    0.855258 0.655154 0.833513 0.152960
H20   H     H_    0.004315 0.829150 0.599266 0.240553
N1    N     N_1   0.500020 0.500000 0.073650 -0.031789
N2    N     N_1   0.499980 0.500000 0.926350 -0.031160
O1    O     O_R   0.499990 0.285340 0.636850 -0.607413
O2    O     O_3   0.027718 0.599645 0.351862 -0.666193
O3    O     O_R   0.500010 0.714660 0.363150 -0.605761
O4    O     O_R   0.500010 0.285340 0.363150 -0.609274
O5    O     O_R   0.499990 0.714660 0.636850 -0.611403
O6    O     O_R   0.317810 0.500000 0.585760 -0.596579
O7    O     O_R   0.682190 0.500000 0.414240 -0.603343
O8    O     O_R   0.317820 0.500000 0.312020 -0.624297
O9    O     O_R   0.682180 0.500000 0.687980 -0.617813
O10   O     O_3   0.983023 0.542508 0.704095 -0.647252
Zn1   Zn    Zn3+2 0.499990 0.500000 0.682780 0.978196
Zn2   Zn    Zn3+2 0.500010 0.500000 0.317220 0.970274

loop_
_geom_bond_atom_site_label_1
_geom_bond_atom_site_label_2
_ccdc_geom_bond_type
C4    C16   S    
C3    H12   S    
C6    H20   S    
C3    H1    S    
C6    C7    S    
C5    H19   S    
C2    C18   T    
N2    Zn1   S    
C6    H2    S    
C9    C10   S    
C1    O4    A    
C14   O2    S    
C12   O8    A    
O4    Zn2   S    
N1    Zn2   S    
C4    H17   S    
C11   O3    A    
C8    H7    S    
C10   H11   S    
C1    C18   S    
C3    H14   S    
C13   O9    A    
C2    C11   S    
C10   H13   S    
C1    O1    A    
C8    H6    S    
C12   C14   S    
C9    H8    S    
C3    C17   S    
C14   C16   D    
C13   C15   S    
C4    H16   S    
C5    C6    S    
C5    O10   S    
C7    H5    S    
O3    Zn2   S    
C11   O5    A    
O5    Zn1   S    
C7    H4    S    
C5    H18   S    
O8    Zn2   S    
C9    H9    S    
C12   O6    A    
C15   O10   S    
C10   H10   S    
N1    N2    T    
C15   C17   D    
O7    Zn2   S    
C4    H15   S    
C8    C9    S    
C7    H3    S    
C13   O7    A    
O6    Zn1   S    
O1    Zn1   S    
C8    O2    S    
C16   C17   S    
O9    Zn1   S    
