data_mof_unit_18997.cif
_audit_creation_date              2012-12-10T17:19:17-0500
_audit_creation_method            fapswitch 2.2
_symmetry_space_group_name_H-M    P1
_symmetry_Int_Tables_number       1
_space_group_crystal_system       triclinic
_cell_length_a                    18.278451
_cell_length_b                    18.309678
_cell_length_c                    34.438831
_cell_angle_alpha                 89.966217
_cell_angle_beta                  90.012793
_cell_angle_gamma                 89.991767
_cell_volume                      11525.7290538

loop_
_atom_site_label
_atom_site_type_symbol
_atom_type_description
_atom_site_fract_x
_atom_site_fract_y
_atom_site_fract_z
_atom_type_partial_charge
C1    C     C_R   0.470301 0.129712 0.520212 -0.108407
C2    C     C_R   0.029118 0.370146 0.979788 -0.110917
C3    C     C_R   0.565950 0.988179 0.959271 0.018630
C4    C     C_R   0.014665 0.434745 0.040768 0.019614
C5    C     C_R   0.985043 0.565216 0.959230 0.019902
C6    C     C_R   0.565872 0.987709 0.040749 0.017150
C7    C     C_R   0.434129 0.012225 0.959251 0.016920
C8    C     C_R   0.999987 0.499840 0.644085 0.508828
C9    C     C_R   0.000013 0.500079 0.355916 0.509130
C10   C     C_R   0.500106 0.000024 0.644102 0.530114
C11   C     C_R   0.499925 0.999978 0.355897 0.530405
C12   C     C_R   0.499988 0.999882 0.144084 0.508992
C13   C     C_R   0.368890 0.023913 0.020235 -0.119342
C14   C     C_R   0.500013 0.000112 0.855916 0.509422
C15   C     C_R   0.000064 0.500022 0.144102 0.530805
C16   C     C_R   0.999910 0.499978 0.855897 0.530467
C17   C     C_R   0.860029 0.639735 0.750092 0.478656
C18   C     C_R   0.139960 0.360262 0.249926 0.478341
C19   C     C_R   0.359876 0.860407 0.749862 0.483832
C20   C     C_R   0.640103 0.139578 0.250137 0.483474
C21   C     C_R   0.139894 0.360160 0.750008 0.490540
C22   C     C_R   0.860035 0.639752 0.249898 0.490178
C23   C     C_R   0.639934 0.139742 0.749939 0.483120
C24   C     C_R   0.631110 0.976017 0.979765 -0.113902
C25   C     C_R   0.360035 0.860237 0.250064 0.484084
C26   C     C_R   0.859866 0.360421 0.249853 0.484523
C27   C     C_R   0.140089 0.639589 0.750129 0.483216
C28   C     C_R   0.360018 0.139724 0.250105 0.478565
C29   C     C_R   0.639955 0.860258 0.749934 0.478499
C30   C     C_R   0.139968 0.639716 0.249916 0.483400
C31   C     C_R   0.860054 0.360206 0.750040 0.483715
C32   C     C_R   0.639946 0.860231 0.250070 0.490942
C33   C     C_R   0.360105 0.139807 0.749946 0.489109
C34   C     C_R   0.284947 0.608732 0.778269 -0.080261
C35   C     C_R   0.029273 0.370188 0.020303 -0.112034
C36   C     C_R   0.714812 0.391209 0.221720 -0.080702
C37   C     C_R   0.274040 0.167026 0.681605 -0.039452
C38   C     C_R   0.727481 0.834153 0.318091 -0.041220
C39   C     C_R   0.843236 0.264359 0.684647 -0.085788
C40   C     C_R   0.153479 0.738420 0.314112 -0.082236
C41   C     C_R   0.732261 0.839201 0.683308 -0.088027
C42   C     C_R   0.269622 0.162830 0.317344 -0.084100
C43   C     C_R   0.160261 0.268101 0.316444 -0.138742
C44   C     C_R   0.840747 0.732993 0.683895 -0.144993
C45   C     C_R   0.261778 0.844886 0.314653 -0.123083
C46   C     C_R   0.970396 0.629765 0.979696 -0.114477
C47   C     C_R   0.736869 0.155975 0.684990 -0.124118
C48   C     C_R   0.836420 0.728511 0.317430 -0.123306
C49   C     C_R   0.166881 0.274389 0.681609 -0.123526
C50   C     C_R   0.608452 0.282847 0.221134 -0.124432
C51   C     C_R   0.391592 0.716809 0.778599 -0.127331
C52   C     C_R   0.784879 0.108875 0.278477 -0.080867
C53   C     C_R   0.214595 0.891438 0.722131 -0.081415
C54   C     C_R   0.773611 0.666959 0.181586 -0.043769
C55   C     C_R   0.226954 0.333730 0.818177 -0.041538
C56   C     C_R   0.345534 0.762272 0.185472 -0.085875
C57   C     C_R   0.631069 0.975768 0.020275 -0.115863
C58   C     C_R   0.655041 0.236918 0.814704 -0.082096
C59   C     C_R   0.231727 0.338614 0.183128 -0.087847
C60   C     C_R   0.769087 0.662245 0.817161 -0.083780
C61   C     C_R   0.659874 0.767680 0.816321 -0.139283
C62   C     C_R   0.340403 0.232612 0.183794 -0.144802
C63   C     C_R   0.763593 0.343101 0.815292 -0.122948
C64   C     C_R   0.238817 0.654199 0.185636 -0.124500
C65   C     C_R   0.335977 0.228186 0.817566 -0.123056
C66   C     C_R   0.664602 0.772497 0.182248 -0.123012
C67   C     C_R   0.108278 0.783046 0.721439 -0.125253
C68   C     C_R   0.368931 0.024156 0.979725 -0.119022
C69   C     C_R   0.891444 0.217031 0.278875 -0.127414
C70   C     C_R   0.355067 0.592071 0.792440 0.040074
C71   C     C_R   0.644400 0.407977 0.207936 0.039892
C72   C     C_R   0.233610 0.179450 0.647569 0.061182
C73   C     C_R   0.769442 0.822990 0.351735 0.056395
C74   C     C_R   0.836238 0.218634 0.652123 0.038256
C75   C     C_R   0.158801 0.785525 0.346132 0.038524
C76   C     C_R   0.776246 0.830123 0.650222 0.044845
C77   C     C_R   0.226728 0.173113 0.350740 0.047420
C78   C     C_R   0.169540 0.225055 0.349706 -0.011932
C79   C     C_R   0.321240 0.733563 0.763915 0.004308
C80   C     C_R   0.832744 0.777396 0.651036 -0.014422
C81   C     C_R   0.215077 0.838509 0.346754 -0.013814
C82   C     C_R   0.783234 0.162419 0.652795 -0.020222
C83   C     C_R   0.826028 0.770409 0.350988 -0.016905
C84   C     C_R   0.180281 0.235334 0.647378 -0.012405
C85   C     C_R   0.590902 0.352278 0.206851 -0.015359
C86   C     C_R   0.409579 0.646829 0.791989 -0.011690
C87   C     C_R   0.854940 0.092318 0.292770 0.039928
C88   C     C_R   0.144069 0.908334 0.708557 0.044295
C89   C     C_R   0.732600 0.679064 0.147706 0.059632
C90   C     C_R   0.678697 0.266335 0.236031 0.004299
C91   C     C_R   0.268730 0.322450 0.851877 0.055895
C92   C     C_R   0.339747 0.715453 0.153328 0.034915
C93   C     C_R   0.661253 0.283152 0.847035 0.038445
C94   C     C_R   0.275475 0.329269 0.149974 0.045180
C95   C     C_R   0.725920 0.672224 0.850482 0.048056
C96   C     C_R   0.668851 0.724301 0.849486 -0.012132
C97   C     C_R   0.332125 0.276713 0.150842 -0.015126
C98   C     C_R   0.717735 0.335914 0.847685 -0.013916
C99   C     C_R   0.286444 0.659502 0.153894 -0.021221
C100  C     C_R   0.325387 0.269944 0.851152 -0.016768
C101  C     C_R   0.208555 0.262991 0.715747 0.002814
C102  C     C_R   0.675954 0.731567 0.148441 -0.018105
C103  C     C_R   0.090605 0.852611 0.707389 -0.014764
C104  C     C_R   0.909403 0.147123 0.292376 -0.011619
C105  C     C_R   0.500203 0.000041 0.520383 0.066000
C106  C     C_R   0.500011 0.999992 0.479614 0.067242
C107  C     C_R   0.999931 0.499422 0.520385 0.068274
C108  C     C_R   0.999978 0.499678 0.479620 0.069466
C109  C     C_R   0.999922 0.500000 0.020384 0.067486
C110  C     C_R   0.999765 0.499957 0.979615 0.067620
C111  C     C_R   0.499981 0.999846 0.020381 0.069802
C112  C     C_R   0.529933 0.870326 0.479785 -0.111227
C113  C     C_R   0.792660 0.738046 0.283886 0.004082
C114  C     C_R   0.500021 0.000089 0.979619 0.069834
C115  C     C_2   0.016135 0.862720 0.690945 0.219253
C116  C     C_2   0.986306 0.134735 0.304754 0.231908
C117  C     C_2   0.376879 0.257603 0.883876 0.220647
C118  C     C_2   0.625453 0.744935 0.115410 0.238402
C119  C     C_2   0.733028 0.383875 0.881496 0.231296
C120  C     C_2   0.278772 0.603837 0.122846 0.233767
C121  C     C_2   0.615593 0.734826 0.881547 0.189662
C122  C     C_2   0.385791 0.266513 0.118932 0.217909
C123  C     C_2   0.258117 0.372192 0.114446 0.286320
C124  C     C_R   0.742510 0.203236 0.717326 0.003156
C125  C     C_2   0.744447 0.630737 0.886335 0.263896
C126  C     C_2   0.387316 0.728785 0.119007 0.287652
C127  C     C_2   0.605586 0.277663 0.878377 0.292868
C128  C     C_2   0.752414 0.638567 0.111777 0.287911
C129  C     C_2   0.249778 0.363896 0.887623 0.266653
C130  C     C_2   0.868100 0.018888 0.309743 0.293151
C131  C     C_2   0.127055 0.985077 0.697752 0.273687
C132  C     C_2   0.516540 0.362253 0.190241 0.220840
C133  C     C_2   0.486551 0.634322 0.804206 0.232758
C134  C     C_2   0.877576 0.758068 0.383680 0.220977
C135  C     C_R   0.256475 0.797512 0.282348 0.005045
C136  C     C_2   0.138140 0.257084 0.612318 0.222122
C137  C     C_2   0.229303 0.887525 0.380263 0.231304
C138  C     C_2   0.774615 0.107622 0.621377 0.234544
C139  C     C_2   0.116492 0.235801 0.381844 0.192719
C140  C     C_2   0.886545 0.767328 0.619177 0.217441
C141  C     C_2   0.759307 0.873554 0.614815 0.286025
C142  C     C_2   0.245682 0.132128 0.386697 0.264434
C143  C     C_2   0.882147 0.233411 0.617336 0.270804
C144  C     C_2   0.102494 0.780596 0.377169 0.293288
C145  C     C_2   0.245237 0.130318 0.613765 0.308054
C146  C     C_R   0.794940 0.740424 0.716769 0.000143
C147  C     C_2   0.750735 0.864613 0.387460 0.266320
C148  C     C_2   0.368237 0.518601 0.809371 0.293717
C149  C     C_2   0.627546 0.484579 0.196794 0.290858
C150  C     C_R   0.205601 0.260170 0.283423 0.005719
C151  C     C_R   0.260201 0.206109 0.283624 -0.014738
C152  C     C_R   0.740564 0.794713 0.716653 -0.017400
C153  C     C_R   0.202109 0.743206 0.282256 -0.015091
C154  C     C_R   0.796713 0.257707 0.717304 -0.017865
C155  C     C_R   0.738106 0.792140 0.284043 -0.004170
C156  C     C_R   0.869518 0.526880 0.520238 -0.118613
C157  C     C_R   0.263031 0.208830 0.715685 -0.009729
C158  C     C_R   0.732731 0.320974 0.236044 -0.018365
C159  C     C_R   0.267272 0.678863 0.763722 -0.017854
C160  C     C_R   0.821171 0.233668 0.264049 0.004120
C161  C     C_R   0.178605 0.766434 0.736194 0.003955
C162  C     C_R   0.707787 0.762405 0.215958 0.001044
C163  C     C_R   0.292424 0.237856 0.783958 0.004338
C164  C     C_R   0.243542 0.702295 0.217658 0.003129
C165  C     C_R   0.757382 0.296616 0.782662 0.005299
C166  C     C_R   0.294737 0.240201 0.216714 0.000230
C167  C     C_R   0.130377 0.472165 0.479766 -0.110571
C168  C     C_R   0.705389 0.759940 0.783356 0.005485
C169  C     C_R   0.759951 0.705840 0.783537 -0.014790
C170  C     C_R   0.240314 0.294441 0.216574 -0.017480
C171  C     C_R   0.702945 0.242386 0.782564 -0.015016
C172  C     C_R   0.297823 0.756693 0.217692 -0.017113
C173  C     C_R   0.237820 0.291896 0.784083 -0.003859
C174  C     C_R   0.762361 0.708334 0.215799 -0.012027
C175  C     C_R   0.232632 0.821077 0.736237 -0.019240
C176  C     C_R   0.767228 0.178943 0.263842 -0.018064
C177  C     C_R   0.303692 0.804215 0.750025 0.024631
C178  C     C_R   0.530093 0.870367 0.520300 -0.112393
C179  C     C_R   0.696247 0.195759 0.249977 0.024670
C180  C     C_R   0.196095 0.304002 0.749992 0.028327
C181  C     C_R   0.804077 0.696135 0.249876 0.024899
C182  C     C_R   0.696034 0.195936 0.749954 0.025341
C183  C     C_R   0.303900 0.804003 0.250028 0.025353
C184  C     C_R   0.804015 0.696072 0.750109 0.023940
C185  C     C_R   0.196061 0.304024 0.249939 0.025222
C186  C     C_R   0.304027 0.196083 0.250126 0.023807
C187  C     C_R   0.696078 0.804043 0.749948 0.025313
C188  C     C_R   0.196077 0.695915 0.249941 0.025261
C189  C     C_R   0.470086 0.129659 0.479697 -0.112332
C190  C     C_R   0.803874 0.304002 0.750005 0.025096
C191  C     C_R   0.696029 0.803976 0.250058 0.028102
C192  C     C_R   0.304142 0.196165 0.749908 0.025610
C193  C     C_R   0.803690 0.304227 0.250012 0.024742
C194  C     C_R   0.196232 0.695765 0.749979 0.024779
C195  C     C_R   0.514997 0.935287 0.581283 -0.099750
C196  C     C_R   0.485119 0.064725 0.418716 -0.095032
C197  C     C_R   0.065054 0.485809 0.581269 -0.113913
C198  C     C_R   0.934895 0.513547 0.418742 -0.122423
C199  C     C_R   0.485777 0.064890 0.581237 -0.094117
C200  C     C_R   0.130327 0.471891 0.520280 -0.102762
C201  C     C_R   0.514485 0.935152 0.418758 -0.096639
C202  C     C_R   0.934764 0.512802 0.581241 -0.119847
C203  C     C_R   0.065190 0.486591 0.418757 -0.114129
C204  C     C_R   0.014531 0.435198 0.081281 -0.097166
C205  C     C_R   0.985266 0.564780 0.918716 -0.096420
C206  C     C_R   0.565416 0.987789 0.081257 -0.121318
C207  C     C_R   0.434585 0.012158 0.918744 -0.123356
C208  C     C_R   0.985732 0.564912 0.081239 -0.102162
C209  C     C_R   0.014052 0.435063 0.918762 -0.096455
C210  C     C_R   0.434469 0.011435 0.081236 -0.121112
C211  C     C_R   0.869564 0.527131 0.479727 -0.118631
C212  C     C_R   0.565534 0.988524 0.918763 -0.113252
C213  C     C_R   0.500323 0.000076 0.601602 0.030078
C214  C     C_R   0.499812 0.999941 0.398396 0.033236
C215  C     C_R   0.999937 0.499460 0.601593 0.021649
C216  C     C_R   0.000044 0.500120 0.398411 0.023634
C217  C     C_R   0.000141 0.500057 0.101602 0.032133
C218  C     C_R   0.999720 0.499932 0.898397 0.033096
C219  C     C_R   0.499954 0.999668 0.101588 0.021693
C220  C     C_R   0.500050 0.000301 0.898412 0.023435
C221  C     C_R   0.485379 0.065275 0.540722 0.018979
C222  C     C_R   0.970544 0.629806 0.020210 -0.116551
C223  C     C_R   0.514866 0.934765 0.459274 0.021336
C224  C     C_R   0.934341 0.513059 0.540732 0.016570
C225  C     C_R   0.065576 0.486096 0.459269 0.017376
C226  C     C_R   0.515200 0.934850 0.540767 0.019047
C227  C     C_R   0.484976 0.065175 0.459230 0.019101
C228  C     C_R   0.065485 0.485593 0.540756 0.018837
C229  C     C_R   0.934428 0.513540 0.459252 0.017406
C230  C     C_R   0.985339 0.565297 0.040723 0.018709
C231  C     C_R   0.014362 0.434663 0.959276 0.021348
C232  C     C_R   0.434052 0.011761 0.040728 0.016291
H1    H     H_    0.243633 0.566502 0.779659 0.166821
H2    H     H_    0.884968 0.693664 0.683785 0.105986
H3    H     H_    0.303243 0.887068 0.315535 0.115772
H4    H     H_    0.697139 0.112119 0.684762 0.118343
H5    H     H_    0.880939 0.689544 0.317608 0.122279
H6    H     H_    0.123759 0.314819 0.680878 0.122694
H7    H     H_    0.566566 0.241159 0.219544 0.110160
H8    H     H_    0.434003 0.758029 0.779458 0.109042
H9    H     H_    0.743594 0.066614 0.279827 0.166596
H10   H     H_    0.255109 0.934478 0.722084 0.169606
H11   H     H_    0.815020 0.624880 0.180687 0.177893
H12   H     H_    0.755339 0.434240 0.221651 0.169295
H13   H     H_    0.185528 0.375797 0.819051 0.174840
H14   H     H_    0.387400 0.803989 0.184787 0.163940
H15   H     H_    0.610844 0.197623 0.814509 0.161089
H16   H     H_    0.190040 0.380468 0.182262 0.165719
H17   H     H_    0.810929 0.620562 0.818089 0.166751
H18   H     H_    0.615338 0.806656 0.816350 0.102907
H19   H     H_    0.384728 0.193400 0.183713 0.106412
H20   H     H_    0.805084 0.385245 0.816194 0.117135
H21   H     H_    0.198843 0.610559 0.185346 0.117388
H22   H     H_    0.380548 0.189279 0.817762 0.122111
H23   H     H_    0.312959 0.122571 0.681396 0.178065
H24   H     H_    0.620001 0.811365 0.182044 0.125281
H25   H     H_    0.066404 0.741354 0.719791 0.110250
H26   H     H_    0.933821 0.258286 0.279749 0.108675
H27   H     H_    0.526695 0.885261 0.596973 0.143851
H28   H     H_    0.473348 0.114736 0.403027 0.145552
H29   H     H_    0.115361 0.475014 0.596950 0.139379
H30   H     H_    0.884592 0.524399 0.403068 0.129604
H31   H     H_    0.474131 0.114931 0.596891 0.153348
H32   H     H_    0.526191 0.885127 0.403102 0.142925
H33   H     H_    0.884447 0.523580 0.596897 0.132874
H34   H     H_    0.686029 0.876201 0.318981 0.174354
H35   H     H_    0.115518 0.475901 0.403094 0.134311
H36   H     H_    0.026074 0.385126 0.096968 0.143966
H37   H     H_    0.973754 0.614856 0.903027 0.144288
H38   H     H_    0.616000 0.978291 0.096925 0.131709
H39   H     H_    0.384000 0.021654 0.903076 0.130252
H40   H     H_    0.974254 0.614997 0.096893 0.141593
H41   H     H_    0.025553 0.384981 0.903110 0.142953
H42   H     H_    0.383871 0.020852 0.096885 0.132938
H43   H     H_    0.616133 0.979116 0.903113 0.134887
H44   H     H_    0.458695 0.180109 0.535504 0.127095
H45   H     H_    0.885051 0.306109 0.683898 0.165807
H46   H     H_    0.541547 0.819930 0.464493 0.117663
H47   H     H_    0.818831 0.537507 0.535540 0.115897
H48   H     H_    0.181062 0.461530 0.464463 0.120881
H49   H     H_    0.541806 0.819996 0.535628 0.118634
H50   H     H_    0.458339 0.180023 0.464369 0.120467
H51   H     H_    0.180976 0.461066 0.535598 0.130348
H52   H     H_    0.818907 0.537925 0.464411 0.114561
H53   H     H_    0.959138 0.680255 0.035502 0.115130
H54   H     H_    0.040517 0.319694 0.964497 0.117494
H55   H     H_    0.317939 0.033214 0.035537 0.115375
H56   H     H_    0.109450 0.698930 0.313929 0.160356
H57   H     H_    0.682061 0.966715 0.964462 0.117814
H58   H     H_    0.040770 0.319762 0.035631 0.118459
H59   H     H_    0.958896 0.680190 0.964367 0.117067
H60   H     H_    0.681993 0.966300 0.035592 0.116339
H61   H     H_    0.318006 0.033619 0.964408 0.114379
H62   H     H_    0.971948 0.827355 0.700434 0.107958
H63   H     H_    0.019673 0.180900 0.313503 0.115518
H64   H     H_    0.404170 0.205180 0.886723 0.139160
H65   H     H_    0.598716 0.797654 0.112627 0.135605
H66   H     H_    0.763170 0.434277 0.877224 0.167050
H67   H     H_    0.690617 0.881105 0.682471 0.165322
H68   H     H_    0.226117 0.577892 0.118118 0.148634
H69   H     H_    0.588305 0.787149 0.884840 0.106346
H70   H     H_    0.413273 0.214288 0.115657 0.104638
H71   H     H_    0.279704 0.356462 0.086403 0.174154
H72   H     H_    0.722107 0.646334 0.914230 0.178771
H73   H     H_    0.374318 0.705332 0.090991 0.175941
H74   H     H_    0.595828 0.322859 0.897974 0.193808
H75   H     H_    0.734639 0.657588 0.083533 0.158630
H76   H     H_    0.268005 0.345467 0.915897 0.164067
H77   H     H_    0.911358 0.010132 0.330735 0.181004
H78   H     H_    0.311488 0.121177 0.318294 0.166852
H79   H     H_    0.071072 0.004237 0.696306 0.169632
H80   H     H_    0.472298 0.326931 0.199707 0.106801
H81   H     H_    0.520001 0.680414 0.812962 0.115724
H82   H     H_    0.904594 0.705522 0.386618 0.139985
H83   H     H_    0.086742 0.286099 0.615641 0.164968
H84   H     H_    0.259299 0.937944 0.375773 0.166953
H85   H     H_    0.721950 0.081436 0.617056 0.147810
H86   H     H_    0.089199 0.288136 0.385075 0.106943
H87   H     H_    0.913980 0.715090 0.615849 0.104128
H88   H     H_    0.780736 0.857872 0.586729 0.173624
H89   H     H_    0.115639 0.306977 0.316453 0.102835
H90   H     H_    0.223265 0.147794 0.414562 0.182181
H91   H     H_    0.868112 0.210674 0.589294 0.174577
H92   H     H_    0.091922 0.826348 0.396278 0.193721
H93   H     H_    0.203782 0.124506 0.591514 0.184384
H94   H     H_    0.769146 0.846321 0.415726 0.163746
H95   H     H_    0.411729 0.509730 0.830213 0.181267
H96   H     H_    0.571605 0.503860 0.195334 0.171930
O1    O     O_3   0.000000 0.500000 0.750000 -0.446336
O2    O     O_R   0.060740 0.500000 0.337440 -0.542399
O3    O     O_R   0.500000 0.939260 0.662560 -0.536816
O4    O     O_R   0.500000 0.060740 0.337440 -0.537854
O5    O     O_R   0.560740 0.000000 0.162560 -0.548810
O6    O     O_R   0.439260 0.000000 0.837440 -0.551455
O7    O     O_R   0.000000 0.560740 0.162560 -0.547979
O8    O     O_R   0.000000 0.439260 0.837440 -0.545637
O9    O     O_R   0.439260 0.000000 0.162560 -0.546392
O10   O     O_R   0.560740 0.000000 0.837440 -0.542617
O11   O     O_R   0.000000 0.439260 0.162560 -0.535602
O12   O     O_3   0.000000 0.500000 0.250000 -0.445798
O13   O     O_R   0.000000 0.560740 0.837440 -0.537972
O14   O     O_R   0.853850 0.585450 0.727070 -0.537333
O15   O     O_R   0.146150 0.414550 0.272930 -0.541914
O16   O     O_R   0.414550 0.853850 0.727070 -0.533949
O17   O     O_R   0.585450 0.146150 0.272930 -0.541433
O18   O     O_R   0.146150 0.414550 0.727070 -0.532404
O19   O     O_R   0.853850 0.585450 0.272930 -0.540410
O20   O     O_R   0.585450 0.146150 0.727070 -0.540890
O21   O     O_R   0.414550 0.853850 0.272930 -0.538403
O22   O     O_R   0.853850 0.414550 0.272930 -0.545421
O23   O     O_3   0.500000 0.000000 0.750000 -0.446328
O24   O     O_R   0.146150 0.585450 0.727070 -0.535942
O25   O     O_R   0.414550 0.146150 0.272930 -0.552751
O26   O     O_R   0.585450 0.853850 0.727070 -0.548017
O27   O     O_R   0.146150 0.585450 0.272930 -0.534707
O28   O     O_R   0.853850 0.414550 0.727070 -0.538082
O29   O     O_R   0.585450 0.853850 0.272930 -0.548156
O30   O     O_R   0.414550 0.146150 0.727070 -0.540298
O31   O     O_R   0.353850 0.085450 0.227070 -0.537810
O32   O     O_R   0.646150 0.914550 0.772930 -0.542096
O33   O     O_R   0.914550 0.353850 0.227070 -0.533372
O34   O     O_3   0.500000 0.000000 0.250000 -0.445962
O35   O     O_R   0.085450 0.646150 0.772930 -0.541753
O36   O     O_R   0.646150 0.914550 0.227070 -0.534949
O37   O     O_R   0.353850 0.085450 0.772930 -0.541564
O38   O     O_R   0.085450 0.646150 0.227070 -0.541475
O39   O     O_R   0.914550 0.353850 0.772930 -0.539667
O40   O     O_R   0.353850 0.914550 0.772930 -0.545409
O41   O     O_R   0.646150 0.085450 0.227070 -0.536481
O42   O     O_R   0.914550 0.646150 0.772930 -0.553102
O43   O     O_R   0.085450 0.353850 0.227070 -0.548440
O44   O     O_R   0.646150 0.085450 0.772930 -0.535573
O45   O     O_R   0.060740 0.500000 0.662560 -0.547870
O46   O     O_R   0.353850 0.914550 0.227070 -0.538682
O47   O     O_R   0.085450 0.353850 0.772930 -0.549567
O48   O     O_R   0.914550 0.646150 0.227070 -0.544969
O49   O     O_2   0.003835 0.907269 0.665393 -0.449823
O50   O     O_2   0.014579 0.074407 0.303453 -0.491891
O51   O     O_2   0.392671 0.306227 0.906599 -0.475307
O52   O     O_2   0.609874 0.696851 0.092322 -0.451528
O53   O     O_2   0.716225 0.366344 0.914500 -0.478924
O54   O     O_2   0.331155 0.583330 0.103779 -0.445972
O55   O     O_2   0.598243 0.684783 0.903077 -0.480707
O56   O     O_R   0.939260 0.500000 0.337440 -0.551333
O57   O     O_2   0.403182 0.316654 0.097478 -0.441388
O58   O     O_2   0.217523 0.425115 0.115864 -0.533534
O59   O     O_2   0.786992 0.579330 0.885384 -0.544531
O60   O     O_2   0.441307 0.767826 0.121397 -0.516088
O61   O     O_2   0.568605 0.222573 0.882266 -0.515332
O62   O     O_2   0.790506 0.583802 0.113190 -0.488865
O63   O     O_2   0.211932 0.418814 0.886030 -0.509441
O64   O     O_2   0.829738 0.966998 0.300770 -0.508295
O65   O     O_2   0.175906 0.028727 0.691042 -0.530465
O66   O     O_2   0.504394 0.406636 0.164586 -0.440028
O67   O     O_R   0.500000 0.060740 0.662560 -0.545018
O68   O     O_2   0.514776 0.573986 0.802754 -0.490462
O69   O     O_2   0.893702 0.806801 0.406271 -0.476508
O70   O     O_2   0.161664 0.247048 0.579596 -0.503405
O71   O     O_2   0.211747 0.870896 0.413288 -0.478894
O72   O     O_2   0.826314 0.088042 0.601526 -0.455630
O73   O     O_2   0.099308 0.185912 0.403510 -0.479875
O74   O     O_2   0.904082 0.817567 0.597822 -0.445297
O75   O     O_2   0.719285 0.926895 0.616389 -0.531572
O76   O     O_2   0.288706 0.081112 0.385871 -0.544400
O77   O     O_2   0.935840 0.272921 0.619370 -0.538638
O78   O     O_R   0.500000 0.939260 0.337440 -0.545516
O79   O     O_2   0.065939 0.725304 0.381353 -0.515639
O80   O     O_2   0.301198 0.094297 0.610711 -0.513340
O81   O     O_2   0.712894 0.919535 0.385861 -0.509563
O82   O     O_2   0.329613 0.466813 0.800549 -0.507270
O83   O     O_2   0.676488 0.527962 0.189786 -0.499014
O84   O     O_R   0.939260 0.500000 0.662560 -0.545623
Zn1   Zn    Zn3+2 1.000000 0.586740 0.782740 0.938680
Zn2   Zn    Zn3+2 0.500000 0.913260 0.717260 0.946157
Zn3   Zn    Zn3+2 0.913260 0.500000 0.282740 0.935247
Zn4   Zn    Zn3+2 0.086740 0.500000 0.717260 0.947709
Zn5   Zn    Zn3+2 0.500000 0.913260 0.282740 0.946803
Zn6   Zn    Zn3+2 0.500000 0.086740 0.717260 0.950058
Zn7   Zn    Zn3+2 0.086740 0.500000 0.282740 0.938921
Zn8   Zn    Zn3+2 0.913260 0.500000 0.717260 0.938090
Zn9   Zn    Zn3+2 0.000000 0.413260 0.217260 0.947626
Zn10  Zn    Zn3+2 0.413260 0.000000 0.782740 0.934180
Zn11  Zn    Zn3+2 0.586740 1.000000 0.217260 0.944655
Zn12  Zn    Zn3+2 1.000000 0.413260 0.782740 0.945090
Zn13  Zn    Zn3+2 0.000000 0.586740 0.217260 0.945343
Zn14  Zn    Zn3+2 0.586740 0.000000 0.782740 0.938229
Zn15  Zn    Zn3+2 0.413260 1.000000 0.217260 0.937140
Zn16  Zn    Zn3+2 0.500000 0.086740 0.282740 0.939246

loop_
_geom_bond_atom_site_label_1
_geom_bond_atom_site_label_2
_ccdc_geom_bond_type
C159  C194  A    
O15   Zn7   S    
C63   C98   A    
O10   Zn14  S    
C131  O65   D    
O34   Zn15  S    
C27   O35   A    
C43   H89   S    
C198  C216  A    
C12   O5    A    
C150  C185  A    
C48   H5    S    
C175  C177  A    
C119  O53   D    
C87   C130  S    
C58   H15   S    
C22   C181  S    
C123  O58   D    
O2    Zn7   S    
C35   H58   S    
C10   O67   A    
C69   C160  A    
C1    C221  A    
C209  C231  A    
C39   C74   A    
C120  H68   S    
O12   Zn9   S    
C7    C68   A    
C104  C116  S    
C125  H72   S    
C50   C90   A    
C176  C179  A    
C127  O61   D    
C61   H18   S    
C167  C200  A    
C163  C192  A    
C91   C100  A    
C20   O17   A    
C134  H82   S    
C24   H57   S    
C36   C71   A    
C64   C164  A    
C63   H20   S    
C168  C187  A    
C166  C186  A    
C42   H78   S    
C115  H62   S    
C28   O31   A    
C14   C220  S    
C189  C227  A    
O13   Zn1   S    
C113  C155  A    
C152  C187  A    
C12   O9    A    
C204  H36   S    
C45   C81   A    
O6    Zn10  S    
C145  O80   D    
C39   C154  A    
C133  O68   D    
C31   O39   A    
C23   O20   A    
C212  C220  A    
C94   C97   A    
C131  H79   S    
C40   H56   S    
C32   C191  S    
C124  C182  A    
C109  C230  A    
O30   Zn6   S    
C189  H50   S    
C165  C190  A    
O28   Zn8   S    
C19   O40   A    
C72   C84   A    
C116  O50   D    
C29   O26   A    
C30   O38   A    
O3    Zn2   S    
C168  C169  A    
O24   Zn4   S    
O36   Zn11  S    
C121  O55   D    
C206  H38   S    
C70   C148  S    
C119  H66   S    
C203  C225  A    
C112  C178  A    
O20   Zn6   S    
C208  C217  A    
C136  O70   D    
C23   O44   A    
C122  H70   S    
C195  H27   S    
O17   Zn16  S    
C164  C188  A    
C10   C213  S    
C91   C129  S    
C206  C219  A    
O1    Zn8   S    
C5    C46   A    
C122  O57   D    
C46   C222  A    
C61   C168  A    
C54   C174  A    
C58   C171  A    
C82   C138  S    
C52   H9    S    
C41   C76   A    
C79   C159  A    
C17   C184  S    
C170  C185  A    
C17   O42   A    
C46   H59   S    
C112  H46   S    
C201  C214  A    
C11   C214  S    
C60   C95   A    
C106  C227  A    
C15   O11   A    
C100  C117  S    
O47   Zn12  S    
C73   C83   A    
C165  C171  A    
C151  C186  A    
C74   C143  S    
C116  H63   S    
C90   C158  A    
C6    C111  A    
C135  C183  A    
C78   C139  S    
C61   C96   A    
C67   C103  A    
C169  C184  A    
O1    Zn4   S    
C96   C121  S    
C144  H92   S    
C60   C169  A    
C49   C84   A    
C50   H7    S    
C33   O37   A    
C5    C110  A    
C14   O10   A    
C72   C145  S    
C37   C157  A    
C95   C125  S    
C139  O73   D    
C13   H55   S    
C64   C99   A    
C207  H39   S    
C24   C57   A    
C208  H40   S    
C55   C91   A    
C107  C108  A    
C79   C177  A    
C145  H93   S    
C51   H8    S    
O16   Zn2   S    
O43   Zn9   S    
C19   C177  S    
C18   O15   A    
C34   C159  A    
C117  O51   D    
C107  C228  A    
C156  C211  A    
C3    C24   A    
C38   C155  A    
O1    Zn12  S    
O35   Zn1   S    
C20   C179  S    
C136  H83   S    
C8    O84   A    
C45   C135  A    
C126  H73   S    
C7    C207  A    
O12   Zn13  S    
O37   Zn10  S    
O23   Zn6   S    
C127  H74   S    
C210  C219  A    
O42   Zn1   S    
C25   O21   A    
C28   C186  S    
C62   C97   A    
C196  C214  A    
C106  C223  A    
C68   H61   S    
C65   C163  A    
C27   C194  S    
C42   C151  A    
C57   H60   S    
C59   H16   S    
C43   C150  A    
C62   C166  A    
C66   H24   S    
C166  C170  A    
C11   O4    A    
C130  O64   D    
C60   H17   S    
C40   C153  A    
C164  C172  A    
C201  C223  A    
C163  C173  A    
C53   C175  A    
C107  C224  A    
C212  H43   S    
O78   Zn5   S    
C34   C70   A    
C199  C213  A    
O34   Zn16  S    
C76   C80   A    
C3    C114  A    
O39   Zn12  S    
C18   C185  S    
C48   C83   A    
C146  C184  A    
C156  C224  A    
C143  H91   S    
C54   H11   S    
O29   Zn5   S    
C137  O71   D    
C101  C180  A    
C76   C141  S    
C13   C232  A    
C172  C183  A    
C105  C221  A    
C26   O33   A    
C210  H42   S    
O9    Zn15  S    
C149  O83   D    
C51   C79   A    
C196  C227  A    
C9    O56   A    
C110  C231  A    
C33   O30   A    
C197  C228  A    
C142  O76   D    
C63   C165  A    
O84   Zn8   S    
C42   C77   A    
C210  C232  A    
C150  C151  A    
C88   C131  S    
C34   H1    S    
C30   O27   A    
O8    Zn12  S    
C92   C99   A    
C160  C193  A    
C16   O8    A    
C13   C68   A    
C1    C189  A    
C2    C35   A    
O22   Zn3   S    
O23   Zn2   S    
C11   O78   A    
C201  H32   S    
C133  H81   S    
C4    C109  A    
C198  C229  A    
C118  O52   D    
C77   C78   A    
C43   C78   A    
C81   C137  S    
C207  C220  A    
C141  H88   S    
C73   C147  S    
C7    C114  A    
C58   C93   A    
C64   H21   S    
C124  C154  A    
C49   C101  A    
C16   O13   A    
C108  C225  A    
O1    Zn1   S    
C66   C162  A    
C200  C228  A    
O34   Zn5   S    
C125  O59   D    
C1    H44   S    
C197  H29   S    
C50   C85   A    
C18   O43   A    
C59   C94   A    
C126  O60   D    
C202  C215  A    
C15   C217  S    
C52   C176  A    
C195  C226  A    
C94   C123  S    
C137  H84   S    
C154  C190  A    
C4    C35   A    
C101  C157  A    
C56   C172  A    
C6    C57   A    
C74   C82   A    
C51   C86   A    
C162  C191  A    
O12   Zn3   S    
C14   O6    A    
C147  O81   D    
C113  C181  A    
C141  O75   D    
C36   H12   S    
C202  C224  A    
C203  C216  A    
C44   C80   A    
C32   O36   A    
C173  C180  A    
C80   C140  S    
C29   C187  S    
C30   C188  S    
C28   O25   A    
C103  C115  S    
C67   C161  A    
C86   C133  S    
C83   C134  S    
O21   Zn5   S    
C65   H22   S    
O44   Zn14  S    
C22   O48   A    
C67   H25   S    
C156  H47   S    
O27   Zn7   S    
C62   H19   S    
C144  O79   D    
C112  C223  A    
O23   Zn10  S    
O32   Zn14  S    
C47   H4    S    
C140  H87   S    
C84   C136  S    
C211  C229  A    
C32   O29   A    
O67   Zn6   S    
C45   H3    S    
C65   C100  A    
C49   H6    S    
C92   C126  S    
C22   O19   A    
C153  C188  A    
C105  C106  A    
C40   C75   A    
O34   Zn11  S    
C157  C192  A    
C203  H35   S    
C109  C110  A    
C41   H67   S    
C47   C124  A    
C71   C149  S    
O46   Zn15  S    
C31   C190  S    
C8    O45   A    
C111  C114  A    
C21   O18   A    
C142  H90   S    
C195  C213  A    
C4    C204  A    
C75   C144  S    
C87   C104  A    
O38   Zn13  S    
C37   C72   A    
C211  H52   S    
C26   C193  S    
C167  H48   S    
C48   C113  A    
C89   C128  S    
C128  O62   D    
C89   C102  A    
C10   O3    A    
C66   C102  A    
C171  C182  A    
C95   C96   A    
C55   C173  A    
C8    C215  S    
C98   C119  S    
C41   C152  A    
C31   O28   A    
O11   Zn9   S    
O25   Zn16  S    
C33   C192  S    
C209  C218  A    
C222  H53   S    
C85   C132  S    
C199  H31   S    
C161  C175  A    
C129  H76   S    
O48   Zn13  S    
C167  C225  A    
C9    O2    A    
C178  H49   S    
O4    Zn16  S    
C47   C82   A    
C196  H28   S    
C77   C142  S    
C147  H94   S    
C99   C120  S    
C71   C85   A    
C21   C180  S    
O26   Zn2   S    
C37   H23   S    
C44   C146  A    
C199  C221  A    
C59   C170  A    
C12   C219  S    
O19   Zn3   S    
C102  C118  S    
C36   C158  A    
C2    H54   S    
C139  H86   S    
C21   O47   A    
C128  H75   S    
C138  O72   D    
C134  O69   D    
O31   Zn15  S    
C111  C232  A    
C160  C176  A    
O45   Zn4   S    
C174  C181  A    
O23   Zn14  S    
C108  C229  A    
C9    C216  S    
C205  H37   S    
C205  C218  A    
C6    C206  A    
C23   C182  S    
C117  H64   S    
C143  O77   D    
C53   H10   S    
C54   C89   A    
C198  H30   S    
C75   C81   A    
C56   H14   S    
C121  H69   S    
C26   O22   A    
C123  H71   S    
C93   C127  S    
C148  H95   S    
C97   C122  S    
C115  O49   D    
C44   H2    S    
C39   H45   S    
O40   Zn10  S    
C25   O46   A    
C105  C226  A    
C132  H80   S    
C16   C218  S    
C222  C230  A    
C158  C193  A    
O12   Zn7   S    
C155  C191  A    
C2    C231  A    
C146  C152  A    
C209  H41   S    
C20   O41   A    
C120  O54   D    
C149  H96   S    
C132  O66   D    
C70   C86   A    
C88   C103  A    
C69   C104  A    
C3    C212  A    
C90   C179  A    
C118  H65   S    
C129  O63   D    
C52   C87   A    
C15   O7    A    
C197  C215  A    
O41   Zn11  S    
C162  C174  A    
O5    Zn11  S    
C135  C153  A    
C204  C217  A    
O7    Zn13  S    
C38   H34   S    
C27   O24   A    
C148  O82   D    
O33   Zn9   S    
C161  C194  A    
C53   C88   A    
O18   Zn4   S    
C202  H33   S    
C178  C226  A    
C138  H85   S    
C5    C205  A    
C17   O14   A    
C56   C92   A    
O14   Zn8   S    
C29   O32   A    
C19   O16   A    
C55   H13   S    
C140  O74   D    
C200  H51   S    
C93   C98   A    
C38   C73   A    
C25   C183  S    
O56   Zn3   S    
C208  C230  A    
C69   H26   S    
C130  H77   S    
