data_mof_unit_17639.cif
_audit_creation_date              2012-12-10T16:50:12-0500
_audit_creation_method            fapswitch 2.2
_symmetry_space_group_name_H-M    P1
_symmetry_Int_Tables_number       1
_space_group_crystal_system       triclinic
_cell_length_a                    7.786752
_cell_length_b                    8.56675
_cell_length_c                    10.603317
_cell_angle_alpha                 90.951828
_cell_angle_beta                  85.688126
_cell_angle_gamma                 93.740929
_cell_volume                      703.763583209

loop_
_atom_site_label
_atom_site_type_symbol
_atom_type_description
_atom_site_fract_x
_atom_site_fract_y
_atom_site_fract_z
_atom_type_partial_charge
C1    C     C_R   0.545798 0.794680 0.496837 0.928390
C2    C     C_R   0.454209 0.205311 0.503304 0.979744
C3    C     C_R   0.498837 0.503104 0.260690 0.854778
C4    C     C_R   0.413831 0.786500 0.876873 -0.276134
C5    C     C_R   0.366427 0.918236 0.946913 0.680896
C6    C     C_R   0.362104 0.916948 0.078403 -0.235646
C7    C     C_R   0.404490 0.783763 0.140211 -0.275259
C8    C     C_R   0.451139 0.648665 0.070535 0.102544
C9    C     C_R   0.456240 0.650208 0.938228 0.002626
C10   C     C_R   0.508039 0.515500 0.871252 -0.069888
C11   C     C_R   0.559863 0.385081 0.930708 -0.121245
C12   C     C_R   0.554270 0.383273 0.059702 -0.199847
C13   C     C_R   0.497858 0.512275 0.128495 -0.069304
C14   C     C_2   0.569790 0.958271 0.495015 -0.377621
C15   C     C_2   0.430183 0.041692 0.505257 -0.350879
C16   C     C_R   0.502573 0.504483 0.739217 0.885196
F1    F     F_    0.325897 0.047936 0.886880 -0.686632
H1    H     H_    0.600317 0.283190 0.877084 0.180502
H2    H     H_    0.986689 0.617964 0.594570 0.198440
H3    H     H_    0.419314 0.793250 0.774897 0.165453
H4    H     H_    0.326910 0.019679 0.132744 0.161303
H5    H     H_    0.402116 0.788573 0.242224 0.176366
H6    H     H_    0.592033 0.280434 0.106340 0.149569
H7    H     H_    0.701575 0.009501 0.485211 0.185815
H8    H     H_    0.298399 0.990444 0.515069 0.185973
H9    H     H_    0.013330 0.382059 0.405422 0.194896
N1    N     N_2   0.950330 0.457950 0.466250 -0.169039
N2    N     N_2   0.049670 0.542050 0.533750 -0.167510
O1    O     O_R   0.389250 0.738570 0.508280 -0.624491
O2    O     O_R   0.678390 0.711630 0.486650 -0.624583
O3    O     O_R   0.355400 0.513470 0.694050 -0.599615
O4    O     O_R   0.644540 0.486530 0.672420 -0.626923
O5    O     O_R   0.321610 0.288370 0.513350 -0.618676
O6    O     O_R   0.610750 0.261430 0.491720 -0.616576
O7    O     O_R   0.355460 0.513470 0.327580 -0.628431
O8    O     O_R   0.644600 0.486530 0.305950 -0.611207
Zn1   Zn    Zn3+2 0.306930 0.517990 0.514440 0.961434
Zn2   Zn    Zn3+2 0.693070 0.482010 0.485560 0.955583

loop_
_geom_bond_atom_site_label_1
_geom_bond_atom_site_label_2
_ccdc_geom_bond_type
C11   C12   A    
C11   H1    S    
C6    C7    A    
H2    N2    S    
O4    Zn2   S    
C16   O4    A    
C7    H5    S    
C9    C10   A    
C3    C13   S    
C3    O7    A    
C2    O6    A    
O8    Zn2   S    
C7    C8    A    
C10   C16   S    
C16   O3    A    
C2    C15   S    
C12   H6    S    
H9    N1    S    
C8    C13   A    
C3    O8    A    
N2    Zn1   S    
C2    O5    A    
C1    O1    A    
C1    O2    A    
O7    Zn1   S    
C5    C6    A    
C15   H8    S    
C5    F1    S    
C10   C11   A    
N1    Zn2   S    
O1    Zn1   S    
C4    H3    S    
C12   C13   A    
O2    Zn2   S    
C14   H7    S    
N1    N2    D    
C14   C15   D    
C8    C9    A    
C1    C14   S    
C4    C9    A    
O6    Zn2   S    
C6    H4    S    
O5    Zn1   S    
O3    Zn1   S    
C4    C5    A    
