data_mof_unit_34776.cif
_audit_creation_date              2012-12-10T19:05:22-0500
_audit_creation_method            fapswitch 2.2
_symmetry_space_group_name_H-M    P1
_symmetry_Int_Tables_number       1
_space_group_crystal_system       triclinic
_cell_length_a                    9.527643
_cell_length_b                    10.868826
_cell_length_c                    17.241544
_cell_angle_alpha                 90.373322
_cell_angle_beta                  86.808114
_cell_angle_gamma                 90.885091
_cell_volume                      1782.42479727

loop_
_atom_site_label
_atom_site_type_symbol
_atom_type_description
_atom_site_fract_x
_atom_site_fract_y
_atom_site_fract_z
_atom_type_partial_charge
C1    C     C_R   0.501511 0.737865 0.501283 0.817502
C2    C     C_R   0.520265 0.521937 0.265661 -0.154820
C3    C     C_R   0.378009 0.933901 0.505372 0.045775
C4    C     C_R   0.483064 0.490715 0.649642 0.829156
C5    C     C_R   0.504436 0.871453 0.508070 -0.154273
C6    C     C_R   0.628490 0.941323 0.521751 -0.010606
C7    C     C_R   0.622730 0.069720 0.523121 -0.191211
C8    C     C_R   0.498009 0.130047 0.508063 -0.086469
C9    C     C_R   0.374939 0.060032 0.503073 0.080275
C10   C     C_3   0.255906 0.058935 0.448726 -0.083702
C11   C     C_3   0.259436 0.918292 0.452950 -0.458002
C12   C     C_R   0.586035 0.406801 0.768713 0.116094
C13   C     C_R   0.929267 0.415461 0.456687 0.265326
C14   C     C_R   0.921774 0.573469 0.549387 -0.039835
C15   C     C_R   0.070861 0.573914 0.549162 -0.062074
C16   C     C_R   0.499009 0.262568 0.501319 0.880360
C17   C     C_R   0.076763 0.416569 0.456074 0.274152
C18   C     C_3   0.090105 0.402567 0.369999 -0.488882
C19   C     C_3   0.931125 0.398024 0.370796 -0.429317
C20   C     C_R   0.517197 0.506012 0.350051 0.874716
C21   C     C_R   0.478915 0.472675 0.733749 -0.111735
C22   C     C_R   0.370509 0.525632 0.779987 -0.195312
C23   C     C_R   0.391705 0.493040 0.149470 0.172099
C24   C     C_R   0.373586 0.522546 0.860277 -0.083974
C25   C     C_R   0.488247 0.471317 0.895224 0.101743
C26   C     C_R   0.592637 0.409453 0.849953 0.169681
C27   C     C_2   0.768389 0.887358 0.528211 0.899962
C28   C     C_2   0.121145 0.111016 0.484842 0.831854
C29   C     C_2   0.291089 0.104903 0.366950 0.808683
C30   C     C_2   0.459924 0.705195 0.991125 0.904215
C31   C     C_R   0.409906 0.467731 0.226718 -0.211877
C32   C     C_R   0.617470 0.601407 0.225293 0.099159
C33   C     C_R   0.607100 0.618367 0.144826 0.159982
C34   C     C_R   0.491474 0.566647 0.107525 -0.032692
C35   C     C_2   0.496796 0.477579 0.979757 -0.210741
C36   C     C_2   0.480556 0.580347 0.023275 -0.027853
Cu1   Cu    Cu3+1 0.359330 0.500020 0.500000 0.988254
Cu2   Cu    Cu3+1 0.640670 0.499980 0.500000 1.007823
H1    H     H_    0.285565 0.572715 0.753988 0.172227
H2    H     H_    0.887973 0.476695 0.339960 0.240573
H3    H     H_    0.888238 0.306343 0.354458 0.236935
H4    H     H_    0.519801 0.392041 0.008559 0.194803
H5    H     H_    0.289113 0.564575 0.895245 0.169403
H6    H     H_    0.933718 0.803846 0.473448 0.322588
H7    H     H_    0.024463 0.204272 0.573641 0.342837
H8    H     H_    0.232679 0.111954 0.256393 0.354999
H9    H     H_    0.497249 0.824859 0.903091 0.352996
H10   H     H_    0.718676 0.122179 0.531130 0.196931
H11   H     H_    0.166440 0.875092 0.484243 0.197243
H12   H     H_    0.292687 0.871229 0.397543 0.214362
H13   H     H_    0.862820 0.634724 0.588126 0.172319
H14   H     H_    0.124026 0.635887 0.587576 0.153580
H15   H     H_    0.135832 0.485906 0.340645 0.227414
H16   H     H_    0.333949 0.408008 0.257347 0.184699
H17   H     H_    0.138877 0.314599 0.351412 0.220627
I1    I     I_    0.770180 0.715317 0.078550 -0.145935
I2    I     I_    0.766054 0.710078 0.285747 -0.196240
I3    I     I_    0.764778 0.327770 0.904901 -0.202145
I4    I     I_    0.207385 0.419552 0.101048 -0.272291
I5    I     I_    0.730873 0.294176 0.700916 -0.275513
N1    N     N_R   0.852130 0.499070 0.499500 -0.190162
N2    N     N_R   0.148040 0.499110 0.499500 -0.190799
O1    O     O_R   0.381190 0.680360 0.500000 -0.587361
O2    O     O_R   0.837282 0.835167 0.462656 -0.688338
O3    O     O_2   0.011195 0.095954 0.452395 -0.564798
O4    O     O_R   0.121405 0.174926 0.555525 -0.733176
O5    O     O_2   0.397869 0.165721 0.351423 -0.610970
O6    O     O_R   0.199614 0.076257 0.308564 -0.697429
O7    O     O_2   0.396984 0.782239 0.030997 -0.541165
O8    O     O_R   0.517504 0.736838 0.917431 -0.736852
O9    O     O_R   0.618770 0.680320 0.499990 -0.563280
O10   O     O_R   0.367430 0.500040 0.613600 -0.582103
O11   O     O_R   0.605020 0.500000 0.613590 -0.570237
O12   O     O_R   0.381230 0.319680 0.500010 -0.559717
O13   O     O_R   0.618810 0.319640 0.500000 -0.585952
O14   O     O_R   0.394980 0.500000 0.386410 -0.590675
O15   O     O_R   0.632570 0.499960 0.386400 -0.568404
O16   O     O_2   0.826296 0.894393 0.589628 -0.594430

loop_
_geom_bond_atom_site_label_1
_geom_bond_atom_site_label_2
_ccdc_geom_bond_type
Cu1   O12   S    
C16   O13   A    
C35   C36   D    
C27   O16   D    
Cu1   N2    S    
C7    C8    A    
H6    O2    S    
C23   I4    S    
C1    O9    A    
C20   O15   A    
C16   O12   A    
C22   C24   A    
C5    C6    A    
C20   O14   A    
C2    C32   A    
C18   C19   S    
C35   H4    S    
C18   H15   S    
C30   O8    S    
C29   O5    D    
C14   H13   S    
C8    C9    A    
C9    C10   S    
Cu2   N1    S    
C33   I1    S    
C8    C16   S    
C21   C22   A    
C32   I2    S    
C19   H2    S    
C1    O1    A    
Cu1   O1    S    
C33   C34   A    
Cu2   O13   S    
C13   C19   S    
C2    C20   S    
C24   C25   A    
C27   O2    S    
C25   C26   A    
C14   N1    A    
C12   C21   A    
C12   C26   A    
C2    C31   A    
C23   C31   A    
C28   O4    S    
H9    O8    S    
H8    O6    S    
Cu1   Cu2   S    
C11   H11   S    
C17   N2    A    
C29   O6    S    
C6    C27   S    
C23   C34   A    
C17   C18   S    
C15   H14   S    
C3    C9    A    
C26   I3    S    
C4    O11   A    
C18   H17   S    
C25   C35   S    
Cu1   O14   S    
C1    C5    S    
C4    O10   A    
C30   O7    D    
C10   C28   S    
Cu2   O9    S    
C3    C5    A    
C6    C7    A    
Cu2   O15   S    
C30   C36   S    
C13   C17   A    
C7    H10   S    
C28   O3    D    
C11   H12   S    
C32   C33   A    
C4    C21   S    
C10   C29   S    
C22   H1    S    
C15   N2    A    
C34   C36   S    
C31   H16   S    
C3    C11   S    
C10   C11   S    
C12   I5    S    
C13   N1    A    
Cu1   O10   S    
H7    O4    S    
C24   H5    S    
C14   C15   A    
C19   H3    S    
Cu2   O11   S    
