data_mof_unit_55736.cif
_audit_creation_date              2012-10-26T20:21:29-0400
_audit_creation_method            fapswitch 2.2
_symmetry_space_group_name_H-M    P1
_symmetry_Int_Tables_number       1
_space_group_crystal_system       triclinic
_cell_length_a                    10.833624
_cell_length_b                    9.687941
_cell_length_c                    11.708635
_cell_angle_alpha                 90.002921
_cell_angle_beta                  94.93995
_cell_angle_gamma                 90.00184
_cell_volume                      1224.32105619

loop_
_atom_site_label
_atom_site_type_symbol
_atom_type_description
_atom_site_fract_x
_atom_site_fract_y
_atom_site_fract_z
_atom_type_partial_charge
C1    C     C_R   0.262497 0.499999 0.499520 0.538500
C2    C     C_R   0.936113 0.625405 0.500007 -0.140723
C3    C     C_R   0.936143 0.374596 0.500405 -0.140730
C4    C     C_R   0.063857 0.625404 0.499595 -0.140730
C5    C     C_R   0.871609 0.500002 0.500398 0.020797
C6    C     C_R   0.128391 0.499998 0.499602 0.020796
C7    C     C_R   0.419000 0.074114 0.425379 0.128295
C8    C     C_R   0.581000 0.925886 0.574621 0.128295
C9    C     C_R   0.580994 0.074129 0.574628 0.128313
C10   C     C_R   0.419006 0.925871 0.425371 0.128313
C11   C     C_3   0.326465 0.145670 0.340012 -0.338315
C12   C     C_R   0.737503 0.500001 0.500479 0.538501
C13   C     C_3   0.673535 0.854330 0.659988 -0.338315
C14   C     C_3   0.673464 0.145699 0.660058 -0.338328
C15   C     C_3   0.326536 0.854301 0.339942 -0.338329
C16   C     C_R   0.499441 0.499997 0.284329 0.540119
C17   C     C_R   0.500559 0.500003 0.715671 0.540119
C18   C     C_1   0.499553 0.499993 0.162496 -0.025327
C19   C     C_1   0.500447 0.500007 0.837504 -0.025327
C20   C     C_1   0.499809 0.499996 0.059956 -0.043573
C21   C     C_1   0.500191 0.500004 0.940044 -0.043573
C22   C     C_R   0.063887 0.374594 0.499993 -0.140723
Cu1   Cu    Cu3+1 0.500000 0.640660 0.500000 0.911735
Cu2   Cu    Cu3+1 0.500000 0.359340 0.500000 0.911735
H1    H     H_    0.111791 0.276454 0.500086 0.129830
H2    H     H_    0.655971 0.883709 0.748710 0.099416
H3    H     H_    0.673346 0.257379 0.660024 0.198811
H4    H     H_    0.655725 0.116431 0.748759 0.099514
H5    H     H_    0.769301 0.116377 0.643580 0.084962
H6    H     H_    0.326654 0.742621 0.339976 0.198811
H7    H     H_    0.230699 0.883623 0.356420 0.084962
H8    H     H_    0.344275 0.883569 0.251241 0.099514
H9    H     H_    0.888209 0.723546 0.499913 0.129830
H10   H     H_    0.888263 0.276456 0.500634 0.129766
H11   H     H_    0.111737 0.723544 0.499366 0.129766
H12   H     H_    0.326676 0.257350 0.339967 0.198838
H13   H     H_    0.344029 0.116291 0.251290 0.099416
H14   H     H_    0.230650 0.116451 0.356650 0.085091
H15   H     H_    0.673324 0.742649 0.660033 0.198838
H16   H     H_    0.769350 0.883548 0.643350 0.085091
N1    N     N_R   0.500000 0.852070 0.500000 -0.222904
N2    N     N_R   0.500000 0.147930 0.500000 -0.222904
O1    O     O_R   0.319640 0.618740 0.499990 -0.517559
O2    O     O_R   0.680360 0.381260 0.500010 -0.517559
O3    O     O_R   0.680360 0.618740 0.500010 -0.517582
O4    O     O_R   0.319640 0.381260 0.499990 -0.517582
O5    O     O_R   0.500010 0.618790 0.337200 -0.504477
O6    O     O_R   0.499990 0.381210 0.662800 -0.504477
O7    O     O_R   0.499990 0.618790 0.662800 -0.504469
O8    O     O_R   0.500010 0.381210 0.337200 -0.504469

loop_
_geom_bond_atom_site_label_1
_geom_bond_atom_site_label_2
_ccdc_geom_bond_type
C7    C10   A    
C2    C4    A    
C9    C14   S    
C15   H7    S    
C8    C13   S    
Cu1   O3    S    
C14   H3    S    
C11   H14   S    
Cu2   N2    S    
Cu1   N1    S    
C17   O6    A    
Cu1   Cu2   S    
Cu2   O4    S    
C4    H11   S    
Cu1   O1    S    
C15   H8    S    
C12   O2    A    
C8    N1    A    
C10   N1    A    
C7    C11   S    
C9    N2    A    
C15   H6    S    
C16   O5    A    
C1    O4    A    
C11   H12   S    
C17   C19   S    
C16   O8    A    
C18   C20   T    
C10   C15   S    
Cu2   O8    S    
Cu2   O2    S    
C13   H2    S    
Cu1   O7    S    
C2    C5    A    
C13   H15   S    
C14   H5    S    
C1    C6    S    
Cu2   O6    S    
C3    C5    A    
Cu1   O5    S    
C20   C21   S    
C2    H9    S    
C5    C12   S    
C16   C18   S    
C4    C6    A    
C7    N2    A    
C17   O7    A    
C11   H13   S    
C8    C9    A    
C3    C22   A    
C3    H10   S    
C14   H4    S    
C19   C21   T    
C1    O1    A    
C12   O3    A    
C13   H16   S    
C22   H1    S    
C6    C22   A    
