data_mof_unit_23854.cif
_audit_creation_date              2013-03-05T16:02:39-0500
_audit_creation_method            fapswitch 2.2
_symmetry_space_group_name_H-M    P1
_symmetry_Int_Tables_number       1
_space_group_crystal_system       triclinic
_cell_length_a                    6.94416
_cell_length_b                    17.091729
_cell_length_c                    19.062959
_cell_angle_alpha                 105.870025
_cell_angle_beta                  89.618692
_cell_angle_gamma                 90.687995
_cell_volume                      2176.13072072

loop_
_atom_site_label
_atom_site_type_symbol
_atom_site_description
_atom_site_fract_x
_atom_site_fract_y
_atom_site_fract_z
_atom_type_partial_charge
O1    O     O_R   0.494360 0.415680 0.413760 -0.597445
O2    O     O_R   0.818810 0.432910 0.557230 -0.569203
O3    O     O_R   0.994290 0.584320 0.586240 -0.593600
C1    C     C_R   0.650242 0.419127 0.583184 1.029610
O4    O     O_R   0.823740 0.406440 0.412520 -0.559785
O5    O     O_R   0.999250 0.557660 0.440500 -0.559809
C2    C     C_R   0.654674 0.381717 0.385629 1.079803
O6    O     O_R   0.489400 0.442340 0.559500 -0.565962
O7    O     O_3   0.662500 0.549650 0.509350 -0.265613
V1    V     V_3+5 0.935340 0.490790 0.498270 1.253787
O8    O     O_R   0.329270 0.567090 0.442770 -0.577857
C3    C     C_R   0.161603 0.582327 0.417940 1.052674
O9    O     O_R   0.324340 0.593560 0.587480 -0.590681
C4    C     C_R   0.155152 0.618339 0.614148 0.967996
V2    V     V_3+5 0.435970 0.509210 0.501730 1.232015
O10   O     O_3   0.158940 0.450350 0.490650 -0.250705
C5    C     C_R   0.941524 0.601122 0.739386 -0.380150
C6    C     C_R   0.831237 0.589885 0.796911 0.629442
C7    C     C_R   0.847481 0.645570 0.864726 -0.325273
C8    C     C_R   0.961960 0.715471 0.874224 0.271104
C9    C     C_R   0.041607 0.736572 0.812136 -0.045396
C10   C     C_R   0.040942 0.675583 0.743817 0.043536
C11   C     C_R   0.120324 0.815324 0.816418 -0.214114
C12   C     C_R   0.208899 0.830942 0.753639 -0.134240
C13   C     C_R   0.228968 0.766790 0.687461 -0.095943
C14   C     C_R   0.142435 0.688282 0.682307 -0.148217
C15   C     C_R   0.277517 0.910698 0.754690 0.391535
C16   C     C_R   0.407936 0.921280 0.702068 0.334623
C17   C     C_R   0.438421 0.858219 0.639315 0.088224
C18   C     C_R   0.331241 0.785353 0.628185 0.155516
H1    H     H_    0.943743 0.549903 0.691780 0.162497
H2    H     H_    0.781480 0.631011 0.911318 0.200349
C19   C     C_1   0.110666 0.864902 0.133565 -0.198921
C20   C     C_1   0.117840 0.821569 0.176495 0.092315
C21   C     C_1   0.127521 0.770455 0.227593 0.007545
C22   C     C_1   0.136146 0.727561 0.270853 0.023079
C23   C     C_1   0.146218 0.676856 0.322268 0.095268
C24   C     C_1   0.153984 0.634121 0.365667 -0.226593
C25   C     C_1   0.641516 0.367760 0.635819 -0.156637
C26   C     C_1   0.637461 0.325107 0.679354 0.140379
C27   C     C_1   0.634290 0.274603 0.731005 0.022312
C28   C     C_1   0.631925 0.231859 0.774466 -0.019552
C29   C     C_1   0.628449 0.180761 0.825612 0.074708
C30   C     C_1   0.623954 0.137163 0.868327 -0.266200
C31   C     C_R   0.674328 0.416111 0.242325 0.311503
C32   C     C_R   0.650869 0.434150 0.174591 0.329176
C33   C     C_R   0.633883 0.371271 0.110415 0.336894
C34   C     C_R   0.656578 0.290670 0.112657 0.302999
C35   C     C_R   0.642253 0.269914 0.179934 -0.167850
C36   C     C_R   0.652629 0.333777 0.246744 -0.135236
C37   C     C_R   0.626280 0.187202 0.181313 -0.116137
C38   C     C_R   0.630175 0.167450 0.248551 0.048173
C39   C     C_R   0.636898 0.229518 0.316174 -0.084940
C40   C     C_R   0.646870 0.313961 0.315598 -0.151039
C41   C     C_R   0.629881 0.084558 0.248458 -0.434646
C42   C     C_R   0.634371 0.060967 0.312332 0.491642
C43   C     C_R   0.639544 0.119764 0.379192 0.176273
C44   C     C_R   0.636763 0.203187 0.381600 0.142398
H3    H     H_    0.627549 0.035681 0.198500 0.165754
O11   O     O_R   0.775690 0.057750 0.940570 -0.597520
O12   O     O_R   0.441200 0.093570 0.087490 -0.616922
O13   O     O_R   0.265840 0.942320 0.059480 -0.577224
C45   C     C_R   0.611287 0.119280 0.112639 1.025744
O14   O     O_R   0.446270 0.067110 0.942790 -0.551739
O15   O     O_R   0.270950 0.915660 0.913750 -0.543725
C46   C     C_R   0.615248 0.084055 0.919365 1.046119
O16   O     O_R   0.770580 0.084400 0.086300 -0.596880
O17   O     O_3   0.602640 0.950400 0.990690 -0.249387
V3    V     V_3+5 0.329740 0.009200 0.001730 1.207946
O18   O     O_R   0.940900 0.906360 0.912450 -0.609058
C47   C     C_R   0.109861 0.882235 0.885870 1.107764
O19   O     O_R   0.935830 0.932820 0.057160 -0.551470
C48   C     C_R   0.103445 0.917238 0.081729 1.038685
V4    V     V_3+5 0.829130 0.990680 0.998180 1.206023
O20   O     O_3   0.106100 0.049590 0.009310 -0.295704
N1    N     N_R   0.561679 0.872558 0.583248 0.294557
O21   O     O_R   0.488631 0.877031 0.521788 -0.295603
O22   O     O_R   0.739757 0.895131 0.598283 -0.327460
O23   O     O_3   0.751797 0.475158 0.300926 -0.632648
C49   C     C_3   0.636404 0.545261 0.321420 -0.002762
H4    H     H_    0.480862 0.532186 0.309346 0.052009
H5    H     H_    0.691305 0.592326 0.296057 0.161910
H6    H     H_    0.651130 0.572257 0.380833 0.180724
O24   O     O_3   0.677899 0.512971 0.169913 -0.575495
C50   C     C_3   0.500113 0.544692 0.155277 -0.127802
H7    H     H_    0.375627 0.524927 0.183803 0.077096
H8    H     H_    0.473400 0.528587 0.095723 0.187616
H9    H     H_    0.508443 0.612029 0.174805 0.152908
O25   O     O_3   0.634199 0.390116 0.044203 -0.563989
C51   C     C_3   0.459421 0.362840 0.007684 -0.160924
H10   H     H_    0.331945 0.384935 0.043069 0.088103
H11   H     H_    0.454002 0.295479 0.986857 0.162629
H12   H     H_    0.449797 0.387708 0.959839 0.167158
O26   O     O_3   0.707390 0.233835 0.048656 -0.643122
C52   C     C_3   0.908454 0.240207 0.038694 -0.111163
H13   H     H_    0.989477 0.224724 0.083209 0.125169
H14   H     H_    0.952180 0.301743 0.034822 0.138393
H15   H     H_    0.950762 0.196602 0.986536 0.153585
O27   O     O_3   0.639815 0.979191 0.308867 -0.581401
C53   C     C_3   0.449053 0.949443 0.306203 -0.039550
H16   H     H_    0.372986 0.955773 0.256879 0.078261
H17   H     H_    0.367334 0.980482 0.356337 0.158835
H18   H     H_    0.453024 0.883737 0.303135 0.166530
N2    N     N_R   0.635380 0.259394 0.451763 0.213012
O28   O     O_R   0.469098 0.280422 0.482500 -0.386567
O29   O     O_R   0.787648 0.264417 0.492207 -0.392948
O30   O     O_3   0.727205 0.518578 0.788551 -0.623134
C54   C     C_3   0.529904 0.536073 0.785278 -0.258188
H19   H     H_    0.499493 0.561276 0.738451 0.127576
H20   H     H_    0.478707 0.578459 0.837169 0.169671
H21   H     H_    0.445885 0.478662 0.776819 0.170707
N3    N     N_R   0.017298 0.756244 0.947381 0.212082
O31   O     O_R   0.199791 0.764145 0.963209 -0.448880
O32   O     O_R   0.893088 0.762236 0.999978 -0.409000
O33   O     O_3   0.215376 0.980323 0.805284 -0.612296
C55   C     C_3   0.034089 0.001391 0.782999 -0.136895
H22   H     H_    0.920239 0.957397 0.789040 0.141330
H23   H     H_    0.036083 0.005519 0.725721 0.141388
H24   H     H_    0.995285 0.062181 0.818370 0.152754
O34   O     O_3   0.503846 0.994993 0.711863 -0.604313
C56   C     C_3   0.407589 0.043769 0.674332 0.021593
H25   H     H_    0.319140 0.009072 0.627115 0.136098
H26   H     H_    0.517071 0.079091 0.652759 0.182621
H27   H     H_    0.314763 0.087955 0.713121 0.112532
N4    N     N_R   0.306959 0.737502 0.554761 0.242911
O35   O     O_R   0.140509 0.738668 0.524220 -0.400337
O36   O     O_R   0.457728 0.713511 0.513977 -0.351125
N5    N     N_R   0.646402 0.094388 0.445191 0.276034
O37   O     O_R   0.524619 0.122952 0.497875 -0.332478
O38   O     O_R   0.763311 0.037262 0.450269 -0.291749

loop_
_geom_bond_atom_site_label_1
_geom_bond_atom_site_label_2
_geom_bond_distance
_ccdc_geom_bond_type
C41   C42   1.384000 A    
C41   H3    1.081602 S    
C27   C28   1.245380 T    
C30   C46   1.501702 S    
C52   H13   1.113294 S    
C12   C15   1.433626 A    
C1    O6    1.313042 A    
N5    O37   1.301008 A    
C43   N5    1.439818 S    
N2    O29   1.300874 A    
C43   C44   1.414341 A    
C52   H15   1.107459 S    
C17   N1    1.435637 S    
C50   H7    1.115494 S    
C42   C43   1.391008 A    
C23   C24   1.246159 T    
C34   O26   1.382377 S    
C54   H21   1.109153 S    
C16   C17   1.390863 A    
N1    O22   1.301141 A    
C6    C7    1.384270 A    
O5    C3    1.309599 A    
O17   V4    1.700362 S    
O33   C55   1.413009 S    
C54   H19   1.114463 S    
C20   C21   1.477936 S    
O12   C45   1.303001 A    
C6    O30   1.380877 S    
N2    O28   1.300609 A    
C56   H27   1.110201 S    
C8    N3    1.430861 S    
O8    V2    1.851409 S    
O24   C50   1.413988 S    
C33   C34   1.400714 A    
C54   H20   1.113247 S    
O17   V3    2.137829 S    
C35   C37   1.424079 A    
O18   V4    2.017939 S    
O30   C54   1.411253 S    
O13   C48   1.310278 A    
O18   C47   1.301079 A    
O1    V2    2.018040 S    
O7    V1    2.137896 S    
C38   C41   1.416273 A    
C18   N4    1.424851 S    
O11   C46   1.313110 A    
C9    C10   1.428385 A    
C33   O25   1.385352 S    
C49   H6    1.104861 S    
C7    H2    1.083318 S    
N3    O32   1.301625 A    
N3    O31   1.301509 A    
C19   C20   1.246464 T    
C50   H8    1.108915 S    
C45   O16   1.294536 A    
V4    O20   2.144778 S    
C37   C38   1.412423 A    
C11   C47   1.496225 S    
C37   C45   1.496696 S    
N1    O21   1.301405 A    
O19   V4    1.851456 S    
C16   O34   1.385128 S    
C25   C26   1.245418 T    
O4    C2    1.302801 A    
O19   C48   1.314524 A    
C13   C14   1.442409 A    
O15   C47   1.298715 A    
C53   H18   1.109127 S    
C4    C14   1.508845 S    
O13   V3    1.839856 S    
C21   C22   1.246388 T    
O14   C46   1.309881 A    
O2    C1    1.311458 A    
C29   C30   1.245070 T    
C17   C18   1.409021 A    
C51   H11   1.110737 S    
O27   C53   1.409424 S    
C1    C25   1.503630 S    
C11   C12   1.429241 A    
C53   H17   1.113352 S    
C5    C6    1.387949 A    
C31   O23   1.390753 S    
O16   V4    2.021862 S    
C36   C40   1.442642 A    
O14   V3    1.863805 S    
C12   C13   1.434573 A    
C56   H25   1.116150 S    
O3    C4    1.300790 A    
C32   O24   1.384739 S    
C19   C48   1.504748 S    
C34   C35   1.423666 A    
O6    V2    1.833228 S    
C9    C11   1.428307 A    
N4    O35   1.300458 A    
C5    H1    1.075099 S    
C44   N2    1.417486 S    
C28   C29   1.476089 S    
O2    V1    1.863735 S    
C38   C39   1.428650 A    
C51   H12   1.109279 S    
C50   H9    1.109437 S    
O12   V3    2.012940 S    
C13   C18   1.435918 A    
C32   C33   1.394764 A    
C26   C27   1.476206 S    
O1    C2    1.304291 A    
C49   H4    1.113072 S    
N5    O38   1.301351 A    
O5    V1    1.840031 S    
C39   C44   1.437023 A    
C52   H14   1.112794 S    
C39   C40   1.447133 A    
C5    C10   1.422785 A    
C2    C40   1.510040 S    
C55   H24   1.108133 S    
C7    C8    1.397483 A    
O9    V2    2.018050 S    
O7    V2    1.701582 S    
O4    V1    2.013022 S    
O3    V1    2.015580 S    
V1    O10   1.696355 S    
C51   H10   1.114447 S    
C31   C36   1.438640 A    
O15   V3    2.015569 S    
O11   V4    1.833593 S    
C53   H16   1.112851 S    
C49   H5    1.108654 S    
C55   H23   1.113234 S    
C55   H22   1.111557 S    
V3    O20   1.696298 S    
C3    C24   1.504558 S    
O26   C52   1.414737 S    
C56   H26   1.110048 S    
O23   C49   1.411822 S    
C31   C32   1.417951 A    
C8    C9    1.434134 A    
C22   C23   1.477667 S    
C35   C36   1.434476 A    
C10   C14   1.429421 A    
C15   C16   1.393697 A    
N4    O36   1.301476 A    
O34   C56   1.414085 S    
C42   O27   1.382065 S    
O25   C51   1.412503 S    
O9    C4    1.305515 A    
V2    O10   2.144804 S    
O8    C3    1.315108 A    
C15   O33   1.382622 S    
