data_mof_unit_22151.cif
_audit_creation_date              2012-12-10T18:42:57-0500
_audit_creation_method            fapswitch 2.2
_symmetry_space_group_name_H-M    P1
_symmetry_Int_Tables_number       1
_space_group_crystal_system       triclinic
_cell_length_a                    18.117623
_cell_length_b                    18.160508
_cell_length_c                    18.053545
_cell_angle_alpha                 119.937994
_cell_angle_beta                  90.113264
_cell_angle_gamma                 59.671553
_cell_volume                      4187.42744864

loop_
_atom_site_label
_atom_site_type_symbol
_atom_type_description
_atom_site_fract_x
_atom_site_fract_y
_atom_site_fract_z
_atom_type_partial_charge
C1    C     C_R   0.891630 0.216604 0.608350 0.766955
C2    C     C_3   0.550018 0.896975 0.949803 -0.341897
C3    C     C_3   0.802835 0.713857 0.526223 0.110398
C4    C     C_3   0.719386 0.826827 0.587494 -0.291620
C5    C     C_3   0.685551 0.875109 0.534975 -1.014119
C6    C     C_3   0.065312 0.260143 0.305206 0.126989
C7    C     C_3   0.004104 0.261969 0.246615 -0.339491
C8    C     C_3   0.058279 0.200767 0.147251 -0.976109
C9    C     C_3   0.042024 0.701771 0.629601 0.120303
C10   C     C_3   0.122796 0.620660 0.637846 -0.385559
C11   C     C_3   0.191319 0.646930 0.659239 -0.964182
C12   C     C_3   0.437441 0.036285 0.073046 0.317443
C13   C     C_3   0.562319 0.964093 0.929430 0.308407
C14   C     C_3   0.006465 0.413282 0.448783 0.462718
C15   C     C_3   0.994296 0.589553 0.555183 0.494661
C16   C     C_3   0.085574 0.420241 0.469162 0.390972
C17   C     C_3   0.915193 0.581827 0.534362 0.481802
C18   C     C_3   0.049376 0.506118 0.452426 -0.258935
C19   C     C_3   0.950502 0.496762 0.550454 -0.175271
C20   C     C_3   0.969299 0.498816 0.431702 -0.523066
C21   C     C_R   0.108307 0.783401 0.391671 0.783192
C22   C     C_3   0.030048 0.503831 0.572090 -0.477409
C23   C     C_3   0.921512 0.035406 0.482783 -0.171942
C24   C     C_3   0.078360 0.964612 0.517360 -0.187604
C25   C     C_R   0.608147 0.782928 0.891978 0.959092
C26   C     C_R   0.391778 0.217117 0.108360 0.947659
C27   C     C_3   0.956484 0.965857 0.518055 -0.187548
C28   C     C_3   0.043409 0.034147 0.482078 -0.176272
C29   C     C_3   0.050951 0.898007 0.448816 0.053649
C30   C     C_3   0.948937 0.102007 0.551298 0.064289
C31   C     C_3   0.016862 0.965791 0.412597 -0.125251
C32   C     C_3   0.554002 0.429204 0.412417 -0.224594
C33   C     C_3   0.983013 0.034237 0.587543 -0.133952
C34   C     C_3   0.927829 0.514172 0.038828 0.500189
C35   C     C_3   0.073383 0.484187 0.960221 0.480148
C36   C     C_3   0.952229 0.593294 0.083092 -0.507914
C37   C     C_3   0.048909 0.405010 0.915774 -0.539455
C38   C     C_3   0.051622 0.499492 0.051204 -0.198769
C39   C     C_3   0.949288 0.499309 0.948001 -0.202933
C40   C     C_3   0.026039 0.421576 0.007905 0.469677
C41   C     C_3   0.975263 0.576556 0.991349 0.465376
C42   C     C_3   0.585007 0.419546 0.971071 0.514818
C43   C     C_3   0.445305 0.566526 0.588097 -0.321187
C44   C     C_3   0.414213 0.579657 0.027358 0.466568
C45   C     C_3   0.506321 0.411377 0.951265 0.414368
C46   C     C_3   0.493047 0.587766 0.047093 0.464008
C47   C     C_3   0.448207 0.500471 0.051789 -0.255281
C48   C     C_3   0.551575 0.498821 0.947253 -0.165862
C49   C     C_R   0.608507 0.499828 0.891338 0.901238
C50   C     C_R   0.391464 0.500331 0.108796 0.863168
C51   C     C_3   0.527884 0.508814 0.072188 -0.526059
C52   C     C_3   0.472535 0.490203 0.925856 -0.534104
C53   C     C_R   0.892243 0.498784 0.608144 0.880467
C54   C     C_3   0.445560 0.968916 0.973396 0.358088
C55   C     C_R   0.107671 0.501719 0.392325 0.885299
C56   C     C_R   0.891355 0.500039 0.891634 0.882983
C57   C     C_R   0.108486 0.500080 0.108550 0.858343
C58   C     C_R   0.608216 0.500565 0.608537 0.810459
C59   C     C_R   0.391760 0.498449 0.391440 0.865861
C60   C     C_3   0.549674 0.527263 0.483523 -0.326601
C61   C     C_3   0.449496 0.468324 0.516215 -0.378747
C62   C     C_3   0.445555 0.591791 0.518325 0.574727
C63   C     C_3   0.554196 0.403720 0.482146 0.595413
C64   C     C_3   0.449513 0.495826 0.448052 -0.068195
C65   C     C_3   0.553732 0.031736 0.028882 0.341456
C66   C     C_3   0.550397 0.500027 0.551979 -0.080942
C67   C     C_3   0.367286 0.772357 0.613858 0.071479
C68   C     C_3   0.273198 0.826201 0.675705 -0.321976
C69   C     C_3   0.251232 0.916682 0.770354 -1.018541
C70   C     C_3   0.588226 0.275707 0.505831 0.060656
C71   C     C_3   0.585504 0.328564 0.604799 -0.367050
C72   C     C_3   0.567877 0.282802 0.648305 -0.952932
C73   C     C_3   0.838936 0.554120 0.162155 -0.305099
C74   C     C_3   0.161822 0.443467 0.836024 -0.354057
C75   C     C_3   0.069574 0.253407 0.953814 0.081014
C76   C     C_3   0.459169 0.033763 0.951476 0.247667
C77   C     C_3   0.981831 0.263786 0.941147 -0.321340
C78   C     C_3   0.001031 0.158294 0.868880 -0.986304
C79   C     C_3   0.982061 0.714123 0.025440 0.122726
C80   C     C_3   0.904594 0.824663 0.104207 -0.364779
C81   C     C_3   0.939479 0.889747 0.156773 -0.965648
C82   C     C_3   0.436334 0.327586 0.891164 0.069313
C83   C     C_3   0.419442 0.270197 0.920500 -0.374431
C84   C     C_3   0.321818 0.304007 0.934558 -0.850155
C85   C     C_3   0.449452 0.736088 0.186807 0.133318
C86   C     C_3   0.416172 0.849354 0.232918 -0.332008
C87   C     C_3   0.540941 0.966011 0.050305 0.250366
C88   C     C_3   0.378620 0.911644 0.335901 -0.997590
C89   C     C_3   0.689727 0.278260 0.974193 0.143380
C90   C     C_3   0.744190 0.295079 0.037936 -0.373635
C91   C     C_3   0.761168 0.235090 0.079674 -0.952899
C92   C     C_3   0.272032 0.657309 0.010759 0.144870
C93   C     C_3   0.271169 0.699169 0.954945 -0.351340
C94   C     C_3   0.216216 0.683322 0.891878 -0.982075
C95   C     C_3   0.438529 0.991322 0.811781 0.159488
C96   C     C_3   0.452741 0.016699 0.746349 -0.361960
C97   C     C_3   0.459537 0.941148 0.651239 -0.995892
C98   C     C_3   0.449624 0.103153 0.051764 -0.333862
C99   C     C_3   0.561479 0.999446 0.187468 0.106307
C100  C     C_3   0.627973 0.952071 0.228650 -0.332648
C101  C     C_3   0.602905 0.033939 0.328845 -1.003680
C102  C     C_3   0.300138 0.016506 0.975555 -0.306213
C103  C     C_3   0.695226 0.991771 0.037181 -0.248233
C104  C     C_3   0.367901 0.007172 0.152467 -0.286834
C105  C     C_3   0.634995 0.998234 0.858813 -0.174807
C106  C     C_3   0.197755 0.277799 0.467060 0.123582
C107  C     C_3   0.253266 0.298333 0.528574 -0.358345
C108  C     C_3   0.275976 0.238880 0.571651 -1.001309
H1    H     H_    0.921965 0.935728 0.531740 0.133493
H2    H     H_    0.451996 0.480661 0.865501 0.176763
H3    H     H_    0.326720 0.987054 0.112173 0.194583
H4    H     H_    0.334648 0.040453 0.223373 0.165592
H5    H     H_    0.694469 0.992183 0.879300 0.177140
H6    H     H_    0.573404 0.079525 0.906940 0.166142
H7    H     H_    0.646214 0.984376 0.791615 0.144093
H8    H     H_    0.239470 0.193399 0.410465 0.152712
H9    H     H_    0.136678 0.294089 0.504795 0.132602
H10   H     H_    0.317366 0.273778 0.488123 0.228308
H11   H     H_    0.214538 0.383144 0.583228 0.211748
H12   H     H_    0.212752 0.263003 0.613135 0.258195
H13   H     H_    0.589965 0.553004 0.472293 0.159722
H14   H     H_    0.315399 0.256307 0.616382 0.263356
H15   H     H_    0.317354 0.153444 0.518416 0.271174
H16   H     H_    0.788004 0.669041 0.466612 0.131648
H17   H     H_    0.859334 0.714369 0.502446 0.131696
H18   H     H_    0.664269 0.830086 0.619045 0.243382
H19   H     H_    0.737612 0.872852 0.641972 0.226880
H20   H     H_    0.739630 0.873072 0.503230 0.263843
H21   H     H_    0.626045 0.957735 0.582087 0.272607
H22   H     H_    0.664598 0.832041 0.481432 0.267826
H23   H     H_    0.114693 0.178225 0.282864 0.148258
H24   H     H_    0.405970 0.446213 0.527819 0.155915
H25   H     H_    0.106240 0.285240 0.293128 0.182824
H26   H     H_    0.970155 0.227349 0.252051 0.233647
H27   H     H_    0.950810 0.343897 0.271378 0.220685
H28   H     H_    0.090960 0.235781 0.140055 0.287343
H29   H     H_    0.012151 0.203061 0.106531 0.268349
H30   H     H_    0.111321 0.117989 0.120400 0.255065
H31   H     H_    0.013545 0.779676 0.693471 0.157042
H32   H     H_    0.063478 0.707248 0.576418 0.183313
H33   H     H_    0.097882 0.619509 0.693173 0.224471
H34   H     H_    0.158583 0.541779 0.573180 0.236555
H35   H     H_    0.597310 0.371812 0.339875 0.174641
H36   H     H_    0.218720 0.646726 0.604131 0.293451
H37   H     H_    0.248479 0.587670 0.665260 0.262768
H38   H     H_    0.158921 0.724956 0.724298 0.257500
H39   H     H_    0.403398 0.621862 0.660979 0.174819
H40   H     H_    0.944516 0.498337 0.375322 0.166948
H41   H     H_    0.052899 0.503818 0.629114 0.170211
H42   H     H_    0.365834 0.828672 0.604225 0.161641
H43   H     H_    0.419872 0.751474 0.646245 0.133662
H44   H     H_    0.221112 0.855968 0.646214 0.227008
H45   H     H_    0.077984 0.064212 0.468368 0.136783
H46   H     H_    0.270299 0.769387 0.681041 0.223628
H47   H     H_    0.304307 0.888001 0.799216 0.292967
H48   H     H_    0.184978 0.950733 0.815027 0.268830
H49   H     H_    0.247508 0.978320 0.767838 0.258414
H50   H     H_    0.636758 0.189977 0.470595 0.177956
H51   H     H_    0.521596 0.290308 0.500907 0.127023
H52   H     H_    0.651448 0.317435 0.607425 0.223241
H53   H     H_    0.530632 0.413524 0.644662 0.215298
H54   H     H_    0.621485 0.197539 0.609961 0.266640
H55   H     H_    0.500595 0.296607 0.649801 0.257860
H56   H     H_    0.856160 0.066604 0.469733 0.142054
H57   H     H_    0.568677 0.320680 0.718868 0.273804
H58   H     H_    0.822196 0.633734 0.209028 0.156057
H59   H     H_    0.900068 0.496366 0.166284 0.192937
H60   H     H_    0.781296 0.555477 0.185247 0.181898
H61   H     H_    0.099616 0.497755 0.830016 0.196181
H62   H     H_    0.182257 0.362073 0.790136 0.170586
H63   H     H_    0.217303 0.445400 0.813352 0.183284
H64   H     H_    0.105920 0.194157 0.968652 0.166612
H65   H     H_    0.116667 0.222682 0.890394 0.129710
H66   H     H_    0.935645 0.297299 0.006495 0.234629
H67   H     H_    0.143637 0.933487 0.530546 0.137828
H68   H     H_    0.947231 0.317039 0.920095 0.264594
H69   H     H_    0.050580 0.120964 0.803991 0.268109
H70   H     H_    0.937180 0.169423 0.856866 0.278722
H71   H     H_    0.028254 0.106181 0.891912 0.261083
H72   H     H_    0.014256 0.718904 0.977236 0.151879
H73   H     H_    0.035374 0.678441 0.051544 0.167318
H74   H     H_    0.855152 0.863130 0.077304 0.223176
H75   H     H_    0.869250 0.821003 0.151116 0.219512
H76   H     H_    0.987559 0.853854 0.186146 0.266261
H77   H     H_    0.881561 0.969682 0.212933 0.276906
H78   H     H_    0.031596 0.936007 0.339917 0.149335
H79   H     H_    0.974330 0.895520 0.111431 0.263719
H80   H     H_    0.442216 0.293332 0.818594 0.154102
H81   H     H_    0.376232 0.410580 0.930564 0.134100
H82   H     H_    0.466432 0.185054 0.867922 0.222572
H83   H     H_    0.433062 0.286780 0.985029 0.240325
H84   H     H_    0.275342 0.389106 0.987318 0.274473
H85   H     H_    0.309986 0.263755 0.958047 0.287306
H86   H     H_    0.306749 0.285680 0.870421 0.266017
H87   H     H_    0.503193 0.699502 0.211842 0.134511
H88   H     H_    0.390865 0.735972 0.205554 0.161119
H89   H     H_    0.968325 0.064033 0.660233 0.151984
H90   H     H_    0.473113 0.851655 0.214428 0.228022
H91   H     H_    0.361699 0.885968 0.208679 0.221930
H92   H     H_    0.320614 0.911821 0.356102 0.269421
H93   H     H_    0.354518 0.993566 0.366711 0.258261
H94   H     H_    0.432280 0.877572 0.362081 0.270734
H95   H     H_    0.729451 0.193841 0.917920 0.157399
H96   H     H_    0.625722 0.298520 0.010852 0.163380
H97   H     H_    0.810382 0.268274 0.999540 0.239452
H98   H     H_    0.706838 0.379565 0.093138 0.224021
H99   H     H_    0.695746 0.262611 0.120454 0.279244
H100  H     H_    0.915245 0.668533 0.151269 0.167606
H101  H     H_    0.801482 0.248177 0.124798 0.267003
H102  H     H_    0.799612 0.150046 0.025683 0.261929
H103  H     H_    0.201384 0.703439 0.055255 0.165883
H104  H     H_    0.293771 0.575210 0.966208 0.123122
H105  H     H_    0.241028 0.783928 0.001566 0.230831
H106  H     H_    0.341589 0.658768 0.913734 0.238789
H107  H     H_    0.246346 0.598823 0.843311 0.263180
H108  H     H_    0.216570 0.714953 0.852906 0.273604
H109  H     H_    0.144874 0.725003 0.931745 0.261181
H110  H     H_    0.380825 0.984900 0.807021 0.150402
H111  H     H_    0.085226 0.331428 0.846441 0.164779
H112  H     H_    0.500181 0.913283 0.788692 0.160160
H113  H     H_    0.394921 0.097005 0.771250 0.235482
H114  H     H_    0.515940 0.012601 0.742878 0.219649
H115  H     H_    0.511386 0.858896 0.626700 0.264858
H116  H     H_    0.478884 0.955351 0.603889 0.278083
H117  H     H_    0.392667 0.954363 0.651711 0.257474
H118  H     H_    0.492881 0.030262 0.224329 0.178293
H119  H     H_    0.560566 0.065677 0.197598 0.171797
H120  H     H_    0.627543 0.887772 0.221336 0.234528
H121  H     H_    0.697599 0.919008 0.191801 0.223891
H122  H     H_    0.549268 0.516363 0.131770 0.171204
H123  H     H_    0.603088 0.098645 0.337093 0.271164
H124  H     H_    0.653204 0.997909 0.356603 0.267045
H125  H     H_    0.534540 0.065824 0.367656 0.269116
H126  H     H_    0.288062 0.050345 0.936392 0.181778
H127  H     H_    0.275784 0.080092 0.048448 0.209073
H128  H     H_    0.257355 0.987667 0.967479 0.175980
H129  H     H_    0.722696 0.919176 0.968155 0.201648
H130  H     H_    0.701485 0.973727 0.088007 0.178537
H131  H     H_    0.738345 0.019026 0.039014 0.167535
H132  H     H_    0.436509 0.934647 0.127267 0.189934
O1    O     O_3   0.750010 0.499980 0.749990 -0.520752
O2    O     O_R   0.305750 0.265450 0.132730 -0.617726
O3    O     O_R   0.867280 0.265410 0.571220 -0.634760
O4    O     O_R   0.132720 0.734590 0.428780 -0.651251
O5    O     O_R   0.571230 0.734580 0.867270 -0.618116
O6    O     O_R   0.428770 0.265420 0.132730 -0.626437
O7    O     O_R   0.694200 0.438470 0.867270 -0.602288
O8    O     O_R   0.305800 0.561530 0.132730 -0.631492
O9    O     O_R   0.867340 0.561470 0.694210 -0.625509
O10   O     O_R   0.132660 0.438530 0.305790 -0.627224
O11   O     O_R   0.867310 0.438430 0.867270 -0.645440
O12   O     O_3   0.249990 0.500020 0.250010 -0.498568
O13   O     O_R   0.132690 0.561570 0.132730 -0.653685
O14   O     O_R   0.694200 0.438520 0.571220 -0.614137
O15   O     O_R   0.305800 0.561480 0.428780 -0.633638
O16   O     O_R   0.867340 0.561440 0.867270 -0.610315
O17   O     O_R   0.132660 0.438560 0.132730 -0.611691
O18   O     O_R   0.571190 0.561530 0.694210 -0.661853
O19   O     O_R   0.428810 0.438470 0.305790 -0.650007
O20   O     O_3   0.386783 0.686888 0.527859 -0.654662
O21   O     O_3   0.620972 0.302854 0.459617 -0.642794
O22   O     O_3   0.849488 0.526358 0.072848 -0.594171
O23   O     O_R   0.571190 0.561490 0.867270 -0.638325
O24   O     O_3   0.150604 0.473680 0.926048 -0.625817
O25   O     O_3   0.051272 0.348057 0.028468 -0.626852
O26   O     O_3   0.947174 0.656130 0.978470 -0.620085
O27   O     O_3   0.518884 0.314086 0.900841 -0.640398
O28   O     O_3   0.485846 0.681947 0.092190 -0.627405
O29   O     O_3   0.676692 0.333689 0.935834 -0.614966
O30   O     O_3   0.324643 0.671293 0.067236 -0.631103
O31   O     O_3   0.417197 0.073469 0.901710 -0.655578
O32   O     O_3   0.588272 0.920836 0.094722 -0.636632
O33   O     O_3   0.392019 0.931520 0.942924 -0.585755
O34   O     O_R   0.428810 0.438510 0.132730 -0.649153
O35   O     O_3   0.604656 0.072769 0.059737 -0.592869
O36   O     O_3   0.369990 0.083674 0.152246 -0.603493
O37   O     O_3   0.628642 0.920485 0.851221 -0.597791
O38   O     O_3   0.177931 0.334642 0.429001 -0.645704
O39   O     O_3   0.823586 0.669131 0.575287 -0.612803
O40   O     O_3   0.012556 0.319819 0.397132 -0.633785
O41   O     O_3   0.969207 0.691908 0.620473 -0.633243
O42   O     O_R   0.867310 0.438490 0.571220 -0.619599
O43   O     O_R   0.132690 0.561510 0.428780 -0.679902
O44   O     O_R   0.867280 0.265380 0.694210 -0.647716
O45   O     O_R   0.132720 0.734620 0.305790 -0.648185
O46   O     O_R   0.694250 0.734550 0.867270 -0.606549
Zn1   Zn    Zn3+2 0.618190 0.587870 0.793920 0.991386
Zn2   Zn    Zn3+2 0.381810 0.412130 0.206080 0.981464
Zn3   Zn    Zn3+2 0.793940 0.412090 0.793920 0.989440
Zn4   Zn    Zn3+2 0.206060 0.587910 0.206080 0.952486
Zn5   Zn    Zn3+2 0.793970 0.587840 0.793920 1.025996
Zn6   Zn    Zn3+2 0.206030 0.412160 0.206080 0.992054
Zn7   Zn    Zn3+2 0.793940 0.412130 0.618200 0.989521
Zn8   Zn    Zn3+2 0.206060 0.587870 0.381800 0.950676

loop_
_geom_bond_atom_site_label_1
_geom_bond_atom_site_label_2
_ccdc_geom_bond_type
C15   C18   S    
C97   H117  S    
C56   O11   A    
C97   H116  S    
C102  H128  S    
C93   C94   S    
C8    H28   S    
C78   H69   S    
C105  O37   S    
C72   H57   S    
C108  H12   S    
C83   H82   S    
O6    Zn2   S    
C95   C96   S    
C103  H131  S    
C73   H59   S    
O14   Zn7   S    
C6    O40   S    
C12   O36   S    
C41   O26   S    
C13   O37   S    
C7    C8    S    
C39   C41   S    
C13   C65   S    
C85   C86   S    
C27   C33   S    
C71   H52   S    
C17   O39   S    
C59   C64   S    
C77   H66   S    
O46   Zn5   S    
C58   O18   A    
C34   C40   S    
C46   O28   S    
C105  H5    S    
C100  H121  S    
C35   C37   S    
C65   C98   S    
C70   O21   S    
C68   H46   S    
C43   C66   S    
C1    C30   S    
O1    Zn7   S    
O3    Zn7   S    
C80   C81   S    
C9    H32   S    
C86   C88   S    
O1    Zn3   S    
C75   H65   S    
C106  C107  S    
O43   Zn8   S    
C76   C98   S    
O9    Zn5   S    
C76   O31   S    
O12   Zn2   S    
C99   O32   S    
C17   C20   S    
O10   Zn6   S    
C27   C29   S    
C31   H78   S    
C18   C20   S    
C8    H30   S    
C70   H51   S    
C36   H100  S    
C80   H75   S    
C107  H11   S    
C25   O46   A    
C100  H120  S    
C2    C13   S    
C22   H41   S    
C24   C29   S    
C100  C101  S    
C32   H35   S    
C16   O38   S    
C1    O3    A    
C61   H24   S    
C91   H99   S    
C90   H98   S    
C3    O39   S    
C58   C66   S    
C15   C22   S    
C83   C84   S    
C84   H86   S    
C68   C69   S    
C74   H61   S    
C69   H49   S    
C107  C108  S    
C20   H40   S    
C10   H34   S    
C82   O27   S    
C106  O38   S    
C23   C27   S    
C88   H93   S    
C101  H124  S    
C11   H36   S    
O12   Zn8   S    
C107  H10   S    
C34   C36   S    
C67   O20   S    
C30   C33   S    
C44   C47   S    
C91   H101  S    
C86   H91   S    
C40   O25   S    
C44   C52   S    
C5    H21   S    
C45   O27   S    
C63   C66   S    
C60   C66   S    
C102  H127  S    
C102  O33   S    
C72   H54   S    
C51   H122  S    
C55   O43   A    
C85   O28   S    
C59   O19   A    
C36   C41   S    
C60   H13   S    
O15   Zn8   S    
C50   O8    A    
C63   O21   S    
C74   O24   S    
C81   H77   S    
C44   C46   S    
C65   C87   S    
C47   C50   S    
C45   C47   S    
C49   O23   A    
C37   C39   S    
C26   O2    A    
C46   C48   S    
C69   H48   S    
O23   Zn1   S    
C34   O22   S    
C59   O15   A    
C34   C39   S    
C23   C30   S    
C14   C20   S    
C105  H6    S    
C53   O42   A    
C35   C38   S    
C79   C80   S    
C32   C64   S    
C7    H26   S    
C73   H60   S    
C2    C54   S    
C84   H84   S    
C104  H4    S    
C85   H87   S    
C42   C48   S    
C49   O7    A    
C45   C52   S    
C75   O25   S    
C77   C78   S    
C93   H105  S    
C46   C51   S    
C94   H109  S    
C78   H71   S    
C82   H80   S    
C8    H29   S    
O12   Zn6   S    
C42   C45   S    
C23   C31   S    
C35   O24   S    
C61   C64   S    
C26   O6    A    
C67   C68   S    
C7    H27   S    
C68   H44   S    
O5    Zn1   S    
C87   O32   S    
O1    Zn5   S    
C90   H97   S    
C92   O30   S    
C83   H83   S    
O2    Zn6   S    
C39   C56   S    
C13   C76   S    
C52   H2    S    
C84   H85   S    
C103  H129  S    
C79   H73   S    
C96   C97   S    
O7    Zn3   S    
C61   C63   S    
C95   H112  S    
C94   H107  S    
C55   O10   A    
C9    O41   S    
C2    C87   S    
C101  H123  S    
C69   H47   S    
O1    Zn1   S    
C95   O31   S    
C65   O35   S    
C75   C77   S    
C74   H63   S    
C70   C71   S    
C35   C41   S    
C50   O34   A    
C26   C98   S    
C21   O4    A    
C54   C76   S    
C3    H16   S    
C18   C55   S    
C16   C18   S    
C5    H22   S    
C89   H95   S    
C86   H90   S    
O44   Zn3   S    
C82   C83   S    
C77   H68   S    
C80   H74   S    
C56   O16   A    
C82   H81   S    
C101  H125  S    
C28   H45   S    
O11   Zn3   S    
C14   C16   S    
C15   O41   S    
C94   H108  S    
O34   Zn2   S    
C32   C60   S    
C108  H15   S    
C90   C91   S    
C3    C4    S    
C96   H113  S    
C62   O20   S    
C73   O22   S    
C43   C61   S    
C44   O30   S    
C23   H56   S    
C9    C10   S    
C14   O40   S    
C106  H9    S    
C15   C17   S    
C85   H88   S    
C104  O36   S    
C48   C49   S    
C53   O9    A    
C16   C22   S    
C71   H53   S    
C4    H19   S    
C93   H106  S    
C78   H70   S    
C12   C98   S    
C14   C19   S    
C105  H7    S    
C28   C31   S    
C11   H37   S    
C24   C28   S    
C32   C63   S    
C108  H14   S    
C4    C5    S    
C92   H103  S    
C43   C62   S    
C1    O44   A    
C47   C51   S    
C95   H110  S    
C3    H17   S    
C11   H38   S    
C102  H126  S    
C6    C7    S    
C89   O29   S    
C4    H18   S    
C37   C40   S    
C42   C51   S    
C96   H114  S    
C24   C33   S    
C6    H23   S    
C99   C100  S    
O8    Zn4   S    
C88   H92   S    
C42   O29   S    
C36   C38   S    
C62   C64   S    
C103  O35   S    
C71   C72   S    
C29   C31   S    
C60   C62   S    
C38   C40   S    
C9    H31   S    
C19   C53   S    
C12   C87   S    
O4    Zn8   S    
C38   C57   S    
C21   C29   S    
C54   O33   S    
C103  H130  S    
O45   Zn4   S    
C5    H20   S    
C57   O17   A    
C92   C93   S    
C17   C19   S    
C72   H55   S    
C28   C30   S    
C58   O14   A    
C2    C25   S    
O12   Zn4   S    
O42   Zn7   S    
C57   O13   A    
O19   Zn2   S    
C73   H58   S    
C12   C54   S    
C74   H62   S    
C99   H118  S    
C43   H39   S    
C10   C11   S    
C33   H89   S    
C104  H3    S    
C97   H115  S    
C48   C52   S    
C89   H96   S    
C27   H1    S    
C91   H102  S    
C19   C22   S    
C106  H8    S    
C75   H64   S    
C67   H43   S    
C104  H132  S    
C79   H72   S    
O18   Zn1   S    
C6    H25   S    
C37   H111  S    
C81   H76   S    
C88   H94   S    
C89   C90   S    
C24   H67   S    
C21   O45   A    
C79   O26   S    
C10   H33   S    
O16   Zn5   S    
C99   H119  S    
C92   H104  S    
C70   H50   S    
O17   Zn6   S    
C81   H79   S    
C67   H42   S    
O13   Zn4   S    
C25   O5    A    
