data_mof_unit_33076.cif
_audit_creation_date              2012-12-11T16:06:22-0500
_audit_creation_method            fapswitch 2.2
_symmetry_space_group_name_H-M    P1
_symmetry_Int_Tables_number       1
_space_group_crystal_system       triclinic
_cell_length_a                    7.194428
_cell_length_b                    14.758272
_cell_length_c                    15.598769
_cell_angle_alpha                 90.000197
_cell_angle_beta                  89.999848
_cell_angle_gamma                 89.999973
_cell_volume                      1656.23557051

loop_
_atom_site_label
_atom_site_type_symbol
_atom_type_description
_atom_site_fract_x
_atom_site_fract_y
_atom_site_fract_z
_atom_type_partial_charge
O1    O     O_R   0.388780 0.834790 0.412340 -0.528524
O2    O     O_R   0.111220 0.165210 0.912340 -0.528630
O3    O     O_R   0.888780 0.665210 0.587660 -0.528538
O4    O     O_R   0.611220 0.334790 0.087660 -0.528564
O5    O     O_R   0.059040 0.845930 0.587040 -0.542482
O6    O     O_R   0.440960 0.154070 0.087040 -0.542484
O7    O     O_R   0.559040 0.654070 0.412960 -0.542480
O8    O     O_R   0.940960 0.345930 0.912960 -0.542498
C1    C     C_R   0.228227 0.866039 0.616908 0.668927
C2    C     C_R   0.271773 0.133962 0.116909 0.668957
C3    C     C_R   0.728227 0.633961 0.383092 0.668966
C4    C     C_R   0.771773 0.366038 0.883091 0.668854
O9    O     O_R   0.059070 0.845930 0.412970 -0.539802
O10   O     O_R   0.440930 0.154070 0.912970 -0.539780
O11   O     O_R   0.559070 0.654070 0.587030 -0.539802
O12   O     O_R   0.940930 0.345930 0.087030 -0.539780
O13   O     O_R   0.888760 0.665210 0.412340 -0.547147
O14   O     O_R   0.611240 0.334790 0.912340 -0.547140
O15   O     O_R   0.388760 0.834790 0.587660 -0.547146
O16   O     O_R   0.111240 0.165210 0.087660 -0.547134
C5    C     C_R   0.227750 0.868115 0.384796 0.633343
C6    C     C_R   0.272250 0.131880 0.884800 0.633226
C7    C     C_R   0.727749 0.631885 0.615205 0.633318
C8    C     C_R   0.772249 0.368118 0.115201 0.633321
O17   O     O_3   0.222280 0.690700 0.500000 -0.375767
O18   O     O_3   0.277720 0.309300 0.000000 -0.375757
O19   O     O_3   0.722280 0.809300 0.500000 -0.375761
O20   O     O_3   0.777720 0.190700 0.000000 -0.375779
V1    V     V_3+5 0.947430 0.761000 0.500000 1.420882
V2    V     V_3+5 0.552570 0.239000 0.000000 1.420751
V3    V     V_3+5 0.447430 0.739000 0.500000 1.420886
V4    V     V_3+5 0.052570 0.261000 0.000000 1.420720
C9    C     C_3   0.769408 0.605372 0.776732 -0.120013
C10   C     C_3   0.730584 0.394629 0.276726 -0.120026
C11   C     C_3   0.269385 0.894626 0.223267 -0.119979
C12   C     C_3   0.230577 0.105371 0.723278 -0.120063
H1    H     H_    0.641448 0.644468 0.792400 0.118785
H2    H     H_    0.858526 0.355516 0.292386 0.118812
H3    H     H_    0.141414 0.855537 0.207605 0.118795
H4    H     H_    0.358505 0.144497 0.707621 0.118830
C13   C     C_3   0.792799 0.531650 0.847622 -0.352821
C14   C     C_3   0.707240 0.468347 0.347625 -0.352830
C15   C     C_3   0.292774 0.968347 0.152375 -0.352886
C16   C     C_3   0.207263 0.031655 0.652374 -0.352723
H5    H     H_    0.693004 0.545405 0.900609 0.122258
H6    H     H_    0.807080 0.454594 0.400593 0.122281
H7    H     H_    0.192966 0.954597 0.099393 0.122266
H8    H     H_    0.307131 0.045408 0.599416 0.122279
H9    H     H_    0.934170 0.534091 0.876637 0.176726
H10   H     H_    0.565895 0.465900 0.376667 0.176738
H11   H     H_    0.434139 0.965899 0.123354 0.176707
H12   H     H_    0.065935 0.034103 0.623315 0.176791
H13   H     H_    0.031565 0.524815 0.661437 0.184552
H14   H     H_    0.468435 0.475187 0.161421 0.184512
H15   H     H_    0.531577 0.975176 0.338559 0.184562
H16   H     H_    0.968433 0.024820 0.838574 0.184465
H17   H     H_    0.048880 0.420657 0.769159 0.133770
H18   H     H_    0.451095 0.579299 0.269184 0.133787
H19   H     H_    0.548899 0.079318 0.230823 0.133764
H20   H     H_    0.951090 0.920709 0.730811 0.133814
C17   C     C_3   0.894728 0.490736 0.668283 -0.276476
C18   C     C_3   0.605266 0.509269 0.168283 -0.276527
C19   C     C_3   0.394745 0.009260 0.331712 -0.276493
C20   C     C_3   0.105260 0.990733 0.831716 -0.276538
C21   C     C_3   0.553040 0.506405 0.692416 -0.353172
C22   C     C_3   0.946954 0.493600 0.192413 -0.353174
C23   C     C_3   0.053052 0.993605 0.307592 -0.353228
C24   C     C_3   0.446953 0.006397 0.807588 -0.353094
C25   C     C_3   0.737989 0.560923 0.686573 0.039583
C26   C     C_3   0.762007 0.439082 0.186570 0.039545
C27   C     C_3   0.237991 0.939077 0.313428 0.039632
C28   C     C_3   0.262008 0.060917 0.813431 0.039440
H21   H     H_    0.525440 0.473205 0.629590 0.173121
H22   H     H_    0.974562 0.526796 0.129585 0.173074
H23   H     H_    0.025472 0.026808 0.370420 0.173101
H24   H     H_    0.474564 0.973203 0.870417 0.173068
H25   H     H_    0.434180 0.553149 0.704056 0.170384
H26   H     H_    0.065812 0.446857 0.204059 0.170401
H27   H     H_    0.934178 0.946866 0.295958 0.170374
H28   H     H_    0.565811 0.053141 0.795939 0.170393
C29   C     C_3   0.757831 0.435587 0.810717 0.039212
C30   C     C_3   0.742165 0.564413 0.310718 0.039209
C31   C     C_3   0.257834 0.064413 0.189282 0.039235
C32   C     C_3   0.242167 0.935588 0.689281 0.039167
C33   C     C_3   0.907175 0.418841 0.740569 -0.299594
C34   C     C_3   0.592789 0.581147 0.240583 -0.299489
C35   C     C_3   0.407201 0.081149 0.259422 -0.299573
C36   C     C_3   0.092782 0.918857 0.759414 -0.299456
C37   C     C_3   0.560377 0.436206 0.766857 -0.093920
C38   C     C_3   0.939609 0.563806 0.266847 -0.093916
C39   C     C_3   0.060387 0.063802 0.233151 -0.093923
C40   C     C_3   0.439606 0.936188 0.733156 -0.093930
H29   H     H_    0.457703 0.458600 0.815987 0.094295
H30   H     H_    0.042304 0.541426 0.315974 0.094292
H31   H     H_    0.957700 0.041412 0.184025 0.094278
H32   H     H_    0.542311 0.958562 0.684032 0.094314
H33   H     H_    0.867073 0.456246 0.606112 0.136782
H34   H     H_    0.632937 0.543772 0.106120 0.136805
H35   H     H_    0.367098 0.043754 0.393881 0.136780
H36   H     H_    0.132923 0.956228 0.893879 0.136826
H37   H     H_    0.887909 0.350684 0.712523 0.189807
H38   H     H_    0.611982 0.649317 0.212553 0.189789
H39   H     H_    0.387976 0.149312 0.287463 0.189802
H40   H     H_    0.111970 0.850687 0.787444 0.189770
C41   C     C_2   0.926504 0.672909 0.779361 0.393389
H41   H     H_    0.894345 0.743373 0.791301 0.013034
O21   O     O_2   0.087889 0.649712 0.769048 -0.532395
C42   C     C_2   0.573451 0.327112 0.279346 0.393549
H42   H     H_    0.605585 0.256632 0.291187 0.012963
O22   O     O_2   0.412066 0.350341 0.269110 -0.532403
C43   C     C_2   0.426468 0.827082 0.220627 0.393305
H43   H     H_    0.394310 0.756629 0.208639 0.013104
O23   O     O_2   0.587849 0.850265 0.230971 -0.532389
C44   C     C_2   0.073416 0.172873 0.720674 0.393777
H44   H     H_    0.105572 0.243397 0.709012 0.012764
O24   O     O_2   0.912001 0.149594 0.730766 -0.532421
C45   C     C_2   0.496159 0.343624 0.737076 0.368196
H45   H     H_    0.390389 0.308081 0.773473 0.015794
O25   O     O_2   0.562971 0.307387 0.673804 -0.530615
C46   C     C_2   0.003789 0.656390 0.237055 0.368270
H46   H     H_    0.109622 0.691927 0.273418 0.015705
O26   O     O_2   0.936893 0.692631 0.173805 -0.530637
C47   C     C_2   0.996186 0.156386 0.262935 0.368266
H47   H     H_    0.890356 0.191916 0.226564 0.015729
O27   O     O_2   0.063064 0.192636 0.326184 -0.530618
C48   C     C_2   0.503766 0.843602 0.762952 0.368262
H48   H     H_    0.609579 0.808055 0.726585 0.015718
O28   O     O_2   0.436872 0.807370 0.826207 -0.530628

loop_
_geom_bond_atom_site_label_1
_geom_bond_atom_site_label_2
_ccdc_geom_bond_type
C24   H28   S    
C31   C35   S    
O1    C5    A    
C48   H48   S    
O19   V1    S    
C15   C31   S    
C7    C25   S    
O3    C7    A    
C43   H43   S    
C10   C14   S    
C40   H32   S    
O4    V2    S    
O15   V3    S    
C44   H44   S    
H20   C36   S    
C8    C26   S    
C47   H47   S    
C22   C38   S    
C21   C37   S    
C14   C30   S    
C41   O21   D    
C5    C27   S    
O9    V1    S    
C45   O25   D    
C11   H3    S    
O4    C8    A    
C47   O27   D    
C22   H22   S    
C2    C31   S    
O1    V3    S    
O13   V1    S    
C42   H42   S    
C18   C26   S    
O2    V4    S    
C14   H6    S    
C6    C28   S    
O3    V1    S    
C19   H35   S    
C18   H34   S    
H13   C17   S    
C1    O15   A    
C2    O16   A    
C20   C36   S    
H15   C19   S    
O2    C6    A    
H16   C20   S    
O14   V2    S    
C11   C15   S    
C10   C26   S    
C9    C25   S    
C29   C37   S    
C16   H12   S    
O11   C7    A    
C12   C44   S    
O12   C8    A    
C39   C47   S    
C11   C43   S    
O10   V2    S    
H18   C34   S    
C13   H9    S    
C36   H40   S    
C46   O26   D    
C38   H30   S    
O5    V1    S    
C3    C30   S    
C22   H26   S    
O7    V3    S    
O8    V4    S    
C12   H4    S    
C21   H25   S    
C21   H21   S    
O18   V4    S    
H14   C18   S    
C30   C34   S    
C39   H31   S    
C9    H1    S    
C24   C28   S    
C38   C46   S    
O7    C3    A    
O5    C1    A    
C18   C34   S    
O8    C4    A    
C13   C29   S    
C23   C39   S    
O9    C5    A    
C43   O23   D    
C24   H24   S    
C17   C33   S    
C14   H10   S    
C35   H39   S    
O6    V2    S    
C19   C27   S    
C12   C16   S    
C23   H23   S    
C34   H38   S    
C33   H37   S    
C46   H46   S    
O16   V4    S    
C17   C25   S    
C3    O13   A    
C48   O28   D    
C19   C35   S    
C10   H2    S    
O17   V3    S    
C17   H33   S    
C32   C36   S    
C37   C45   S    
C16   C32   S    
C40   C48   S    
O6    C2    A    
C44   O24   D    
O11   V3    S    
O12   V4    S    
C31   C39   S    
C41   H41   S    
C30   C38   S    
C9    C41   S    
C9    C13   S    
O10   C6    A    
O20   V2    S    
C10   C42   S    
C45   H45   S    
C15   H11   S    
C22   C26   S    
C21   C25   S    
C24   C40   S    
C42   O22   D    
C4    C29   S    
C23   C27   S    
C20   C28   S    
C37   H29   S    
H19   C35   S    
C1    C32   S    
C11   C27   S    
C16   H8    S    
C20   H36   S    
C4    O14   A    
C13   H5    S    
C32   C40   S    
C15   H7    S    
H17   C33   S    
C23   H27   S    
C29   C33   S    
C12   C28   S    
