data_mof_unit_58759.cif
_audit_creation_date              2012-12-10T17:44:33-0500
_audit_creation_method            fapswitch 2.2
_symmetry_space_group_name_H-M    P1
_symmetry_Int_Tables_number       1
_space_group_crystal_system       triclinic
_cell_length_a                    9.922657
_cell_length_b                    10.686607
_cell_length_c                    15.495001
_cell_angle_alpha                 92.650031
_cell_angle_beta                  67.521597
_cell_angle_gamma                 91.654939
_cell_volume                      1516.51203882

loop_
_atom_site_label
_atom_site_type_symbol
_atom_type_description
_atom_site_fract_x
_atom_site_fract_y
_atom_site_fract_z
_atom_type_partial_charge
C1    C     C_R   0.508874 0.738600 0.489032 0.889257
C2    C     C_R   0.428243 0.455056 0.905634 0.102191
C3    C     C_R   0.296136 0.389527 0.952857 0.153138
C4    C     C_R   0.536450 0.467192 0.944373 0.079655
C5    C     C_R   0.501852 0.431234 0.037121 0.068276
C6    C     C_R   0.368904 0.365370 0.082736 -0.174087
C7    C     C_R   0.268923 0.343740 0.040605 -0.150399
C8    C     C_R   0.679202 0.511189 0.892405 -0.189394
C9    C     C_R   0.778872 0.535483 0.934067 -0.166993
C10   C     C_R   0.739372 0.518562 0.029413 0.087068
C11   C     C_R   0.600623 0.464153 0.081226 0.069997
C12   C     C_R   0.408420 0.498838 0.675887 0.864273
C13   C     C_R   0.833547 0.557722 0.075018 0.248736
C14   C     C_R   0.788584 0.545554 0.171180 -0.176332
C15   C     C_R   0.559695 0.453907 0.177445 -0.248834
C16   C     C_R   0.373003 0.854997 0.372530 -0.209389
C17   C     C_R   0.294507 0.913622 0.328664 -0.132302
C18   C     C_R   0.289161 0.043477 0.330840 0.456085
C19   C     C_R   0.361026 0.115362 0.378050 -0.226335
C20   C     C_R   0.436272 0.057638 0.426677 0.054559
C21   C     C_R   0.443125 0.925630 0.423314 0.070590
C22   C     C_R   0.529739 0.868925 0.464954 -0.192300
C23   C     C_R   0.502950 0.259818 0.492157 0.911543
C24   C     C_R   0.634732 0.941431 0.485825 0.285191
C25   C     C_R   0.618501 0.067832 0.496745 -0.171025
C26   C     C_R   0.513355 0.126299 0.474111 -0.161146
C27   C     C_R   0.789875 0.658060 0.628536 -0.152891
C28   C     C_R   0.823896 0.732231 0.693910 0.284341
C29   C     C_R   0.962636 0.729286 0.695035 -0.220344
C30   C     C_R   0.068228 0.653417 0.630293 -0.180827
C31   C     C_R   0.036588 0.575432 0.564487 0.147310
C32   C     C_R   0.892426 0.576394 0.564072 0.069058
C33   C     C_R   0.963962 0.428346 0.437628 0.439332
C34   C     C_R   0.591636 0.498968 0.324105 0.878574
C35   C     C_R   0.106823 0.428831 0.437649 -0.150145
C36   C     C_R   0.352942 0.479494 0.775954 -0.052955
C37   C     C_R   0.650218 0.497016 0.222422 -0.104295
C38   C     C_R   0.193866 0.369717 0.910881 -0.127891
C39   C     C_R   0.223569 0.412570 0.821592 -0.166127
C40   C     C_R   0.447775 0.507768 0.821022 -0.188439
H1    H     H_    0.169104 0.292192 0.077439 0.197007
H2    H     H_    0.384814 0.754833 0.360899 0.187771
H3    H     H_    0.242548 0.857796 0.289714 0.191263
H4    H     H_    0.363529 0.215274 0.371087 0.169594
H5    H     H_    0.691460 0.120560 0.522396 0.217358
H6    H     H_    0.684885 0.672268 0.627278 0.225919
H7    H     H_    0.453328 0.419346 0.220533 0.164293
H8    H     H_    0.989964 0.787926 0.745036 0.196632
H9    H     H_    0.173885 0.659697 0.632877 0.221028
H10   H     H_    0.189557 0.371428 0.386376 0.182157
H11   H     H_    0.858554 0.580087 0.206462 0.203811
H12   H     H_    0.885667 0.570876 0.891030 0.190251
H13   H     H_    0.093285 0.318295 0.945951 0.153986
H14   H     H_    0.148991 0.389432 0.787138 0.159877
H15   H     H_    0.539611 0.568419 0.786755 0.159201
H16   H     H_    0.340558 0.325642 0.150066 0.198110
H17   H     H_    0.718340 0.524903 0.818305 0.151066
N1    N     N_R   0.856800 0.501200 0.500850 -0.144447
N2    N     N_R   0.142390 0.501280 0.500880 -0.140828
O1    O     O_R   0.385310 0.683220 0.500000 -0.639718
O2    O     O_R   0.614640 0.683250 0.500010 -0.591289
O3    O     O_R   0.319840 0.499980 0.632240 -0.629766
O4    O     O_R   0.549160 0.500000 0.632250 -0.638104
O5    O     O_R   0.385360 0.316750 0.499990 -0.622496
O6    O     O_R   0.614690 0.316780 0.500000 -0.574584
O7    O     O_R   0.450840 0.500000 0.367750 -0.643299
O8    O     O_R   0.680160 0.500020 0.367760 -0.561890
Zn1   Zn    Zn3+2 0.346880 0.499980 0.499990 0.936630
Zn2   Zn    Zn3+2 0.653120 0.500020 0.500010 1.016101
Br1   Br    Br    0.017122 0.641718 0.012745 -0.505217
Br2   Br    Br    0.812158 0.882331 0.491674 -0.453065
Cl1   Cl    Cl    0.199465 0.115981 0.269055 -0.585878
Cl2   Cl    Cl    0.926748 0.333830 0.353757 -0.530637
Br3   Br    Br    0.681055 0.841319 0.779999 -0.477559

loop_
_geom_bond_atom_site_label_1
_geom_bond_atom_site_label_2
_ccdc_geom_bond_type
O7    Zn1   S    
C16   C21   A    
C16   H2    S    
C34   C37   S    
C19   C20   A    
C32   N1    A    
C4    C8    A    
C28   Br3   S    
C34   O7    A    
C31   C32   A    
C33   N1    A    
O5    Zn1   S    
C28   C29   A    
C5    C11   A    
C3    C7    A    
C5    C6    A    
C8    H17   S    
C39   H14   S    
C13   Br1   S    
C35   N2    A    
C18   C19   A    
C23   C26   S    
C31   N2    A    
C15   C37   A    
C11   C15   A    
O4    Zn2   S    
C3    C38   A    
C16   C17   A    
C15   H7    S    
C12   C36   S    
C9    C10   A    
C1    C22   S    
C21   C22   A    
C9    H12   S    
C18   Cl1   S    
C38   C39   A    
C29   H8    S    
C36   C40   A    
C24   C25   A    
C1    O1    A    
C12   O4    A    
C8    C9    A    
C25   C26   A    
O8    Zn2   S    
C2    C4    A    
C17   H3    S    
C29   C30   A    
N2    Zn1   S    
C12   O3    A    
C14   H11   S    
C40   H15   S    
C35   H10   S    
C17   C18   A    
C27   H6    S    
C33   Cl2   S    
C23   O5    A    
C30   H9    S    
C22   C24   A    
C25   H5    S    
C19   H4    S    
O2    Zn2   S    
C27   C32   A    
C36   C39   A    
C6    H16   S    
C4    C5    A    
C10   C13   A    
C1    O2    A    
C34   O8    A    
N1    Zn2   S    
C6    C7    A    
O3    Zn1   S    
C23   O6    A    
C2    C3    A    
C14   C37   A    
C30   C31   A    
C38   H13   S    
C20   C26   A    
O6    Zn2   S    
C33   C35   A    
C7    H1    S    
C10   C11   A    
C2    C40   A    
C20   C21   A    
O1    Zn1   S    
C27   C28   A    
C13   C14   A    
C24   Br2   S    
