data_mof_unit_15468.cif
_audit_creation_date              2012-12-10T19:07:37-0500
_audit_creation_method            fapswitch 2.2
_symmetry_space_group_name_H-M    P1
_symmetry_Int_Tables_number       1
_space_group_crystal_system       triclinic
_cell_length_a                    10.836031
_cell_length_b                    10.845101
_cell_length_c                    9.546553
_cell_angle_alpha                 90.423873
_cell_angle_beta                  89.729992
_cell_angle_gamma                 90.517869
_cell_volume                      1121.8017571

loop_
_atom_site_label
_atom_site_type_symbol
_atom_type_description
_atom_site_fract_x
_atom_site_fract_y
_atom_site_fract_z
_atom_type_partial_charge
C1    C     C_R   0.496448 0.262499 0.499519 0.831191
C2    C     C_R   0.935683 0.507873 0.625605 0.118532
C3    C     C_3   0.928248 0.416361 0.741660 -0.462400
C4    C     C_3   0.068166 0.418442 0.743175 -0.481004
C5    C     C_R   0.477140 0.065249 0.623972 0.120398
C6    C     C_R   0.481424 0.129832 0.498572 -0.192490
C7    C     C_R   0.465550 0.064358 0.372435 -0.288705
C8    C     C_R   0.465137 0.935639 0.372201 0.587314
C9    C     C_R   0.481676 0.871262 0.499050 -0.230000
C10   C     C_R   0.477131 0.938362 0.624521 0.059194
C11   C     C_3   0.558036 0.935645 0.750713 -0.447539
C12   C     C_R   0.262339 0.501430 0.500260 0.795421
C13   C     C_3   0.557950 0.075403 0.749438 -0.422293
C14   C     C_R   0.604172 0.531513 0.073386 0.250593
C15   C     C_R   0.401958 0.455292 0.074453 -0.064622
C16   C     C_R   0.402088 0.455134 0.925706 -0.077364
C17   C     C_R   0.604520 0.530425 0.926007 0.253136
C18   C     C_3   0.673308 0.649507 0.920016 -0.510340
C19   C     C_3   0.671715 0.651785 0.078839 -0.476015
C20   C     C_R   0.496530 0.737914 0.500079 0.837095
C21   C     C_R   0.737684 0.500938 0.499737 0.793317
C22   C     C_R   0.062892 0.508934 0.626162 0.137779
C23   C     C_R   0.129266 0.511582 0.500481 -0.093802
C24   C     C_R   0.065281 0.528501 0.374403 -0.208907
C25   C     C_R   0.936737 0.527343 0.373984 -0.217506
C26   C     C_R   0.870978 0.510214 0.499619 -0.094644
Cu1   Cu    Cu3+1 0.499990 0.499980 0.640670 0.942705
Cu2   Cu    Cu3+1 0.500010 0.500020 0.359330 0.969725
H1    H     H_    0.113884 0.536914 0.275474 0.165934
H2    H     H_    0.650379 0.896041 0.728012 0.190640
H3    H     H_    0.509110 0.116713 0.840830 0.203438
H4    H     H_    0.649880 0.116722 0.725321 0.190467
H5    H     H_    0.321835 0.420416 0.129723 0.135450
H6    H     H_    0.322592 0.419558 0.870476 0.137763
H7    H     H_    0.767239 0.639517 0.874584 0.191993
H8    H     H_    0.617362 0.722643 0.873205 0.221778
H9    H     H_    0.765141 0.643696 0.124521 0.180114
H10   H     H_    0.615057 0.727441 0.123507 0.270295
H11   H     H_    0.889643 0.534028 0.274861 0.156599
H12   H     H_    0.886807 0.455600 0.838623 0.192325
H13   H     H_    0.888428 0.326228 0.707437 0.196258
H14   H     H_    0.106285 0.460503 0.840431 0.191608
H15   H     H_    0.110043 0.329258 0.711133 0.196170
H16   H     H_    0.459574 0.112006 0.273402 0.189459
H17   H     H_    0.508516 0.897787 0.843315 0.219599
N1    N     N_R   0.500790 0.500930 0.147930 -0.176607
N2    N     N_R   0.500790 0.500890 0.852020 -0.182344
O1    O     O_R   0.500000 0.319640 0.618810 -0.582230
O2    O     O_R   0.500010 0.319680 0.381230 -0.587854
O3    O     O_R   0.319650 0.499970 0.618810 -0.587212
O4    O     O_R   0.319660 0.500010 0.381230 -0.591180
O5    O     O_R   0.499990 0.680320 0.618770 -0.584612
O6    O     O_R   0.500000 0.680360 0.381190 -0.517931
O7    O     O_R   0.680340 0.499990 0.618770 -0.583464
O8    O     O_R   0.680350 0.500030 0.381190 -0.590033
F1    F     F_    0.454919 0.875887 0.247313 -0.675191

loop_
_geom_bond_atom_site_label_1
_geom_bond_atom_site_label_2
_ccdc_geom_bond_type
Cu1   O1    S    
C2    C22   A    
C12   O3    A    
C23   C24   A    
C1    O1    A    
C6    C7    A    
C19   H10   S    
C4    C22   S    
C18   H7    S    
C9    C20   S    
C5    C13   S    
C14   C17   A    
Cu1   O3    S    
C21   C26   S    
C8    F1    S    
C17   C18   S    
Cu1   O7    S    
C5    C10   A    
C2    C26   A    
C7    H16   S    
C24   C25   A    
Cu2   O6    S    
C11   C13   S    
C12   C23   S    
Cu2   N1    S    
C5    C6    A    
C4    H14   S    
C20   O6    A    
C16   N2    A    
C4    H15   S    
Cu2   O8    S    
C15   H5    S    
C3    H12   S    
C2    C3    S    
C21   O7    A    
Cu2   O4    S    
C11   H17   S    
C10   C11   S    
C1    C6    S    
C17   N2    A    
C7    C8    A    
C12   O4    A    
Cu1   O5    S    
C20   O5    A    
C18   C19   S    
C9    C10   A    
Cu1   N2    S    
Cu1   Cu2   S    
C21   O8    A    
C24   H1    S    
C3    H13   S    
C19   H9    S    
C15   N1    A    
C16   H6    S    
C25   C26   A    
C22   C23   A    
C13   H4    S    
C18   H8    S    
C14   C19   S    
C13   H3    S    
C25   H11   S    
C3    C4    S    
C15   C16   A    
C11   H2    S    
C8    C9    A    
C14   N1    A    
Cu2   O2    S    
C1    O2    A    
