data_mof_unit_49759.cif
_audit_creation_date              2012-10-26T19:53:01-0400
_audit_creation_method            fapswitch 2.2
_symmetry_space_group_name_H-M    P1
_symmetry_Int_Tables_number       1
_space_group_crystal_system       triclinic
_cell_length_a                    10.962507
_cell_length_b                    9.09583
_cell_length_c                    7.782441
_cell_angle_alpha                 90.000303
_cell_angle_beta                  89.997903
_cell_angle_gamma                 89.965724
_cell_volume                      776.011178644

loop_
_atom_site_label
_atom_site_type_symbol
_atom_type_description
_atom_site_fract_x
_atom_site_fract_y
_atom_site_fract_z
_atom_type_partial_charge
C1    C     C_R   0.499974 0.220005 0.499969 0.556430
C2    C     C_1   0.500012 0.934636 0.499952 0.003833
C3    C     C_R   0.500026 0.779995 0.499970 0.556202
C4    C     C_R   0.264609 0.497532 0.499406 0.575473
C5    C     C_R   0.735396 0.502434 0.499396 0.575233
C6    C     C_2   0.936355 0.522964 0.360732 0.236898
C7    C     C_2   0.063692 0.476371 0.360892 0.236936
C8    C     C_2   0.866738 0.486865 0.497038 -0.124769
C9    C     C_2   0.133267 0.512996 0.497037 -0.124383
C10   C     C_1   0.499986 0.065364 0.499951 0.003951
Cu1   Cu    Cu3+1 0.500000 0.500000 0.669080 1.127859
Cu2   Cu    Cu3+1 0.500000 0.500000 0.330920 1.195028
H1    H     H_    0.907058 0.430620 0.606541 0.090202
H2    H     H_    0.092922 0.569608 0.606272 0.089699
H3    H     H_    0.973675 0.757165 0.983483 0.368602
H4    H     H_    0.026637 0.239714 0.985643 0.368913
N1    N     N_1   0.500000 0.500000 0.076820 -0.029749
N2    N     N_1   0.500000 0.500000 0.923180 -0.040552
O1    O     O_R   0.500000 0.288390 0.642760 -0.506014
O2    O     O_2   0.804174 0.754391 0.250213 -0.278235
O3    O     O_3   0.007336 0.708921 0.087313 -0.472989
O4    O     O_2   0.182497 0.458180 0.059678 -0.230955
O5    O     O_2   0.196077 0.244649 0.251710 -0.278729
O6    O     O_3   0.992862 0.289166 0.088593 -0.472970
O7    O     O_R   0.500000 0.711610 0.642760 -0.506074
O8    O     O_R   0.500000 0.288370 0.357190 -0.487434
O9    O     O_R   0.500000 0.711630 0.357190 -0.487585
O10   O     O_R   0.321940 0.500000 0.642750 -0.494634
O11   O     O_R   0.678060 0.500000 0.642750 -0.494644
O12   O     O_R   0.321930 0.500000 0.357180 -0.443263
O13   O     O_R   0.678070 0.500000 0.357180 -0.443096
O14   O     O_2   0.817550 0.539998 0.059460 -0.231236
S1    S     S_3+6 0.886041 0.633620 0.186026 0.081045
S2    S     S_3+6 0.114098 0.365032 0.186821 0.081005

loop_
_geom_bond_atom_site_label_1
_geom_bond_atom_site_label_2
_ccdc_geom_bond_type
Cu2   N1    S    
C5    C8    S    
C9    H2    S    
Cu1   N2    S    
C6    C7    S    
C6    S1    S    
C3    O7    A    
Cu1   Cu2   S    
O5    S2    D    
O14   S1    D    
C3    O9    A    
N1    N2    T    
H4    O6    S    
Cu1   O1    S    
C8    H1    S    
Cu1   O10   S    
O2    S1    D    
C4    O10   A    
C2    C3    S    
C5    O11   A    
Cu2   O13   S    
C1    O8    A    
O4    S2    D    
C7    S2    S    
C4    O12   A    
C1    O1    A    
O3    S1    S    
Cu1   O7    S    
Cu2   O9    S    
C2    C10   T    
H3    O3    S    
Cu1   O11   S    
C7    C9    D    
C6    C8    D    
Cu2   O12   S    
C4    C9    S    
O6    S2    S    
C1    C10   S    
Cu2   O8    S    
C5    O13   A    
