data_mof_unit_57921.cif
_audit_creation_date              2012-12-11T14:06:37-0500
_audit_creation_method            fapswitch 2.2
_symmetry_space_group_name_H-M    P1
_symmetry_Int_Tables_number       1
_space_group_crystal_system       triclinic
_cell_length_a                    6.98357
_cell_length_b                    17.424939
_cell_length_c                    24.033723
_cell_angle_alpha                 104.533687
_cell_angle_beta                  89.915733
_cell_angle_gamma                 89.87157
_cell_volume                      2831.0219357

loop_
_atom_site_label
_atom_site_type_symbol
_atom_type_description
_atom_site_fract_x
_atom_site_fract_y
_atom_site_fract_z
_atom_type_partial_charge
O1    O     O_R   0.494290 0.391990 0.999150 -0.550940
O2    O     O_R   0.827170 0.534410 0.082350 -0.541146
O3    O     O_R   0.994360 0.608010 0.000850 -0.552941
C1    C     C_R   0.658249 0.552347 0.105782 0.738485
O4    O     O_R   0.824210 0.388010 0.004470 -0.536706
O5    O     O_R   0.991370 0.460560 0.922410 -0.542719
C2    C     C_R   0.653946 0.354348 0.999162 0.660806
O6    O     O_R   0.497270 0.539440 0.077590 -0.540807
O7    O     O_3   0.659770 0.523970 0.973170 -0.359858
V1    V     V_3+5 0.935840 0.495550 0.004980 1.398071
O8    O     O_R   0.320910 0.465590 0.917650 -0.515570
C3    C     C_R   0.152703 0.449343 0.894054 0.746195
O9    O     O_R   0.323870 0.611990 0.995530 -0.526426
C4    C     C_R   0.154321 0.645153 0.999653 0.656970
V2    V     V_3+5 0.435470 0.504450 0.995020 1.436208
O10   O     O_3   0.161670 0.476030 0.026830 -0.379153
C5    C     C_2   0.144535 0.732364 0.006254 0.245580
C6    C     C_2   0.976903 0.769112 0.999060 -0.454631
H1    H     H_    0.846573 0.734452 0.989372 0.134745
C7    C     C_R   0.107808 0.222883 0.627788 0.606141
N1    N     N_R   0.130789 0.303334 0.648872 -0.534223
C8    C     C_R   0.134186 0.351678 0.611630 0.647150
C9    C     C_R   0.135957 0.319668 0.551266 -0.150119
C10   C     C_R   0.093256 0.238764 0.529804 -0.117797
C11   C     C_R   0.077678 0.189354 0.568198 -0.095949
C12   C     C_R   0.171956 0.366887 0.511977 0.193972
C13   C     C_R   0.131656 0.336804 0.452773 0.373960
C14   C     C_R   0.071490 0.257185 0.431914 -0.162422
C15   C     C_R   0.064316 0.207342 0.469953 -0.059989
C16   C     C_R   0.021771 0.126358 0.448332 -0.056463
C17   C     C_R   0.007612 0.077822 0.486413 -0.299355
C18   C     C_R   0.035767 0.107899 0.545665 0.461109
C19   C     C_R   0.022600 0.224770 0.373576 0.587811
N2    N     N_R   0.999235 0.144894 0.352716 -0.556527
C20   C     C_R   0.996060 0.095510 0.388748 0.568510
O11   O     O_2   0.115128 0.175411 0.664234 -0.503686
O12   O     O_2   0.125493 0.430889 0.632896 -0.526094
O13   O     O_2   0.997280 0.272102 0.337648 -0.516820
O14   O     O_2   0.968807 0.017086 0.367034 -0.526794
H2    H     H_    0.975452 0.015510 0.470400 0.173428
C21   C     C_R   0.813661 0.094937 0.263608 -0.081006
H3    H     H_    0.683120 0.099347 0.288599 0.106834
C22   C     C_R   0.804662 0.073375 0.203443 -0.211057
H4    H     H_    0.666112 0.060165 0.183181 0.125531
C23   C     C_R   0.972319 0.069846 0.170027 -0.056844
C24   C     C_R   0.149249 0.086571 0.198396 -0.198516
H5    H     H_    0.281273 0.083936 0.174297 0.128414
C25   C     C_R   0.157676 0.108258 0.258412 -0.131723
H6    H     H_    0.294546 0.122985 0.279472 0.101330
C26   C     C_R   0.990108 0.113192 0.291355 0.385711
C27   C     C_R   0.287547 0.394398 0.734427 0.371775
C28   C     C_R   0.281135 0.435378 0.793552 0.269403
C29   C     C_R   0.146294 0.413979 0.830768 -0.183173
C30   C     C_R   0.008503 0.356576 0.807297 -0.295452
H7    H     H_    0.900645 0.340419 0.834602 0.146847
C31   C     C_R   0.007231 0.319419 0.748439 -0.205939
H8    H     H_    0.895169 0.277094 0.731872 0.166064
C32   C     C_R   0.144155 0.338147 0.710871 0.229560
C33   C     C_R   0.559255 0.909411 0.612825 0.555342
N3    N     N_R   0.515902 0.859786 0.647191 -0.556275
C34   C     C_R   0.489730 0.780526 0.623797 0.606193
C35   C     C_R   0.527947 0.746806 0.565016 -0.112793
C36   C     C_R   0.554116 0.797450 0.528349 -0.073356
C37   C     C_R   0.570331 0.879616 0.552373 -0.045565
C38   C     C_R   0.545151 0.664137 0.542468 0.210166
C39   C     C_R   0.545379 0.632294 0.482158 0.349899
C40   C     C_R   0.552706 0.683196 0.444522 -0.170272
C41   C     C_R   0.567303 0.765852 0.467963 -0.126793
C42   C     C_R   0.593367 0.816923 0.431149 -0.029219
C43   C     C_R   0.599713 0.900189 0.455597 0.273244
C44   C     C_R   0.596209 0.929945 0.515681 -0.240584
C45   C     C_R   0.555800 0.653590 0.384022 0.629468
N4    N     N_R   0.594754 0.702573 0.348986 -0.531799
C46   C     C_R   0.617350 0.782547 0.371354 0.591905
O15   O     O_2   0.591173 0.986953 0.636800 -0.518243
O16   O     O_2   0.424515 0.734606 0.657355 -0.513255
O17   O     O_2   0.521876 0.576286 0.360047 -0.521211
O18   O     O_2   0.669293 0.827990 0.336053 -0.518272
H9    H     H_    0.606613 0.993403 0.533525 0.177105
C47   C     C_R   0.477357 0.681180 0.248991 0.403694
C48   C     C_R   0.488846 0.640013 0.190487 -0.298884
H10   H     H_    0.372352 0.645015 0.161993 0.139749
C49   C     C_R   0.646628 0.591614 0.168575 -0.144012
C50   C     C_R   0.790755 0.581735 0.206844 -0.263460
H11   H     H_    0.911443 0.543319 0.190824 0.144727
C51   C     C_R   0.776889 0.617918 0.266251 0.287052
C52   C     C_R   0.618850 0.668446 0.287645 0.258660
C53   C     C_R   0.652531 0.866692 0.743266 0.300200
C54   C     C_R   0.633154 0.887560 0.803582 -0.235566
H12   H     H_    0.742309 0.870959 0.830238 0.145792
C55   C     C_R   0.472662 0.929542 0.830422 -0.157701
C56   C     C_R   0.331385 0.952458 0.796544 -0.265958
H13   H     H_    0.209072 0.985354 0.817824 0.141317
C57   C     C_R   0.345899 0.932085 0.735993 0.317169
C58   C     C_R   0.507295 0.888836 0.709250 0.247465
C59   C     C_2   0.638220 0.266588 0.991530 0.190783
C60   C     C_2   0.469062 0.229666 0.998830 -0.027604
O19   O     O_R   0.618210 0.960470 0.922400 -0.547614
O20   O     O_R   0.291310 0.111960 0.995450 -0.527595
O21   O     O_R   0.124210 0.039530 0.077580 -0.541431
C61   C     C_R   0.460913 0.144259 0.997407 0.770729
O22   O     O_R   0.288310 0.965490 0.917650 -0.546281
O23   O     O_R   0.121180 0.892010 0.999220 -0.503854
C62   C     C_R   0.458026 0.952398 0.894055 0.719561
O24   O     O_R   0.621230 0.107990 0.000760 -0.519902
O25   O     O_3   0.455770 0.976060 0.026840 -0.374069
V3    V     V_3+5 0.179680 0.004440 0.995020 1.461286
O26   O     O_R   0.791670 0.888040 0.004570 -0.545122
C63   C     C_R   0.961965 0.855153 0.001713 0.788879
O27   O     O_R   0.794680 0.034510 0.082370 -0.549878
C64   C     C_R   0.963318 0.047183 0.106129 0.699820
V4    V     V_3+5 0.680070 0.995560 0.005010 1.432430
O28   O     O_3   0.953840 0.023940 0.973160 -0.365776
O29   O     O_3   0.310211 0.776095 0.022429 -0.528948
C65   C     C_3   0.334125 0.787128 0.082381 0.131609
H14   H     H_    0.329608 0.729775 0.094863 0.077451
H15   H     H_    0.220382 0.827153 0.106220 0.096975
C66   C     C_3   0.527964 0.824414 0.100823 -0.682367
H16   H     H_    0.537070 0.883685 0.091954 0.237731
H17   H     H_    0.547771 0.831441 0.147668 0.148914
H18   H     H_    0.643969 0.785788 0.077499 0.208850
O30   O     O_3   0.417882 0.416276 0.697812 -0.536383
C67   C     C_3   0.607587 0.399595 0.711334 0.114361
H19   H     H_    0.653756 0.343021 0.681426 0.119711
H20   H     H_    0.628236 0.393536 0.756008 0.134015
C68   C     C_3   0.735447 0.466025 0.702553 -0.607647
H21   H     H_    0.879978 0.461214 0.720279 0.191684
H22   H     H_    0.746844 0.462318 0.655910 0.216260
H23   H     H_    0.674240 0.524506 0.724871 0.229226
O31   O     O_3   0.407995 0.496583 0.814788 -0.546259
C69   C     C_3   0.323402 0.568282 0.809872 0.121144
H24   H     H_    0.181851 0.578311 0.832096 0.087429
H25   H     H_    0.304426 0.568126 0.763826 0.167259
C70   C     C_3   0.453401 0.637084 0.837843 -0.684274
H26   H     H_    0.595731 0.629742 0.816469 0.212294
H27   H     H_    0.388784 0.693767 0.833865 0.178386
H28   H     H_    0.472167 0.639476 0.884139 0.230143
N5    N     N_2   0.584648 0.613874 0.579938 -0.472280
H29   H     H_    0.562617 0.554371 0.562639 0.285028
C71   C     C_3   0.766519 0.628806 0.609844 -0.493056
H30   H     H_    0.802309 0.579290 0.629244 0.193130
H31   H     H_    0.759839 0.683079 0.645235 0.256843
H32   H     H_    0.883084 0.635835 0.580088 0.158513
O32   O     O_3   0.538955 0.550934 0.460466 -0.545661
C72   C     C_3   0.726849 0.519467 0.455446 0.150046
H33   H     H_    0.826568 0.555422 0.487430 0.080345
H34   H     H_    0.785848 0.517541 0.412153 0.187596
C73   C     C_3   0.721811 0.435483 0.463848 -0.707464
H35   H     H_    0.592202 0.425174 0.487005 0.221513
H36   H     H_    0.729399 0.390759 0.421856 0.228614
H37   H     H_    0.839883 0.425900 0.491187 0.204617
N6    N     N_2   0.601586 0.955036 0.420467 -0.454896
H38   H     H_    0.663002 0.008757 0.439787 0.258495
C74   C     C_3   0.417121 0.966575 0.396530 -0.419920
H39   H     H_    0.317145 0.995062 0.431463 0.166877
H40   H     H_    0.355987 0.909261 0.372418 0.214233
H41   H     H_    0.433136 0.005480 0.366619 0.194767
O33   O     O_3   0.314144 0.723862 0.270664 -0.555752
C75   C     C_3   0.289634 0.788954 0.246141 0.042636
H42   H     H_    0.281713 0.770337 0.198599 0.096384
H43   H     H_    0.408710 0.831997 0.258966 0.171243
C76   C     C_3   0.101564 0.830532 0.267242 -0.620069
H44   H     H_    0.097478 0.848137 0.314906 0.245985
H45   H     H_    0.085850 0.884398 0.250833 0.189538
H46   H     H_    0.979734 0.790087 0.251401 0.223622
N7    N     N_2   0.911934 0.596457 0.304377 -0.506146
H47   H     H_    0.993974 0.546813 0.287232 0.256381
C77   C     C_3   0.013609 0.659111 0.344413 -0.451832
H48   H     H_    0.970477 0.659836 0.388992 0.168955
H49   H     H_    0.985199 0.718125 0.336481 0.221210
H50   H     H_    0.169885 0.647712 0.340465 0.226341
N8    N     N_2   0.813827 0.822258 0.715380 -0.522841
H51   H     H_    0.862174 0.835758 0.678428 0.254399
C78   C     C_3   0.956124 0.791712 0.748008 -0.548987
H52   H     H_    0.062645 0.755634 0.718175 0.231016
H53   H     H_    0.887334 0.752866 0.772437 0.199898
H54   H     H_    0.032025 0.841187 0.777749 0.202845
N9    N     N_2   0.196935 0.950566 0.700842 -0.516117
H55   H     H_    0.152672 0.903419 0.668369 0.254106
C79   C     C_3   0.048607 0.006916 0.725869 -0.472741
H56   H     H_    0.958544 0.019498 0.691193 0.263477
H57   H     H_    0.113578 0.063554 0.750135 0.216778
H58   H     H_    0.955298 0.982290 0.754498 0.180882
O34   O     O_3   0.791713 0.220048 0.966226 -0.536538
C80   C     C_3   0.770468 0.203363 0.905445 0.088970
H59   H     H_    0.854017 0.246788 0.888824 0.098602
H60   H     H_    0.619533 0.206295 0.890647 0.081297
C81   C     C_3   0.843523 0.120353 0.877174 -0.657426
H61   H     H_    0.743900 0.075897 0.886454 0.217356
H62   H     H_    0.849962 0.112104 0.829897 0.159505
H63   H     H_    0.987917 0.110193 0.893001 0.218525
N10   N     N_2   0.288956 0.268717 0.001315 -0.508940
H64   H     H_    0.268726 0.318174 0.034813 0.273589
C82   C     C_3   0.219349 0.273545 0.945538 -0.389466
H65   H     H_    0.190455 0.213344 0.918523 0.176075
H66   H     H_    0.325627 0.301233 0.922340 0.142264
H67   H     H_    0.087756 0.309663 0.950754 0.210828
N11   N     N_2   0.269118 0.440832 0.530478 -0.506005
H68   H     H_    0.364027 0.444405 0.563848 0.285197
C83   C     C_3   0.156071 0.511501 0.535001 -0.414585
H69   H     H_    0.134668 0.521572 0.491753 0.221061
H70   H     H_    0.230749 0.563911 0.561532 0.206276
H71   H     H_    0.018446 0.506695 0.556676 0.191790
O35   O     O_3   0.122209 0.389038 0.417796 -0.542612
C84   C     C_3   0.289991 0.384362 0.384497 0.160598
H72   H     H_    0.341138 0.322423 0.366532 0.101335
H73   H     H_    0.402468 0.418523 0.411102 0.191918
C85   C     C_3   0.253434 0.422974 0.335272 -0.585646
H74   H     H_    0.387324 0.422834 0.310267 0.193164
H75   H     H_    0.141599 0.390274 0.306068 0.231480
H76   H     H_    0.204857 0.485140 0.352620 0.234448
O36   O     O_3   0.009454 0.058005 0.581636 -0.526445
C86   C     C_3   0.152563 0.998392 0.571249 0.153845
H77   H     H_    0.236406 0.005665 0.611142 0.217459
H78   H     H_    0.256774 0.001457 0.536767 0.086981
C87   C     C_3   0.060845 0.916614 0.556186 -0.750788
H79   H     H_    0.991427 0.905181 0.513462 0.222266
H80   H     H_    0.171006 0.870243 0.554563 0.181278
H81   H     H_    0.953284 0.912361 0.589173 0.236174

loop_
_geom_bond_atom_site_label_1
_geom_bond_atom_site_label_2
_ccdc_geom_bond_type
C82   H66   S    
C10   C11   A    
C21   H3    S    
C68   H21   S    
C53   N8    S    
C47   C48   A    
N4    C46   A    
C30   H7    S    
C20   O14   S    
C71   H30   S    
C51   N7    S    
C6    C63   S    
C55   C62   S    
C1    O6    A    
C69   C70   S    
C70   H28   S    
C44   H9    S    
O29   C65   S    
C67   H19   S    
O25   V4    S    
C86   H77   S    
O34   C80   S    
C2    C59   S    
C12   C13   A    
C45   O17   S    
C16   C20   A    
N3    C34   A    
C81   H63   S    
C84   C85   S    
C14   C15   A    
C73   H36   S    
C40   C45   A    
C47   C52   A    
C83   H71   S    
C75   H42   S    
O5    C3    A    
C16   C17   A    
C18   O36   S    
C67   H20   S    
C82   H67   S    
C39   O32   S    
O25   V3    S    
C65   H14   S    
O26   C63   A    
C81   H62   S    
C6    H1    S    
C57   N9    S    
C37   C44   A    
C9    C12   A    
C10   C15   A    
V3    O28   S    
C48   C49   A    
C17   H2    S    
C66   H16   S    
O8    V2    S    
C50   H11   S    
C77   H50   S    
N4    C52   S    
C17   C18   A    
C79   H57   S    
C83   H69   S    
C65   H15   S    
C5    C6    D    
C9    C10   A    
C87   H81   S    
C43   C44   A    
O1    V2    S    
C54   C55   A    
O7    V1    S    
C74   H40   S    
C3    C29   S    
C79   H58   S    
C34   C35   A    
C11   C18   A    
C77   H49   S    
C82   H65   S    
C53   C58   A    
C33   N3    A    
O9    C4    A    
N7    C77   S    
O35   C84   S    
C21   C22   A    
C4    C5    S    
C57   C58   A    
C59   O34   S    
N2    C20   A    
C56   C57   A    
V4    O28   S    
C72   H34   S    
N8    C78   S    
C5    O29   S    
C72   H33   S    
C76   H45   S    
C60   N10   S    
C34   O16   S    
C61   O24   A    
C30   C31   A    
N2    C26   S    
O19   V4    S    
C13   O35   S    
C27   C28   A    
N9    H55   S    
C42   C46   A    
C73   H37   S    
C43   N6    S    
C87   H79   S    
C74   H41   S    
C55   C56   A    
O4    C2    A    
C51   C52   A    
C85   H74   S    
C80   C81   S    
C70   H27   S    
C68   H23   S    
C69   H25   S    
C23   C24   A    
C8    O12   S    
C48   H10   S    
C40   C41   A    
C81   H61   S    
C66   H18   S    
N10   C82   S    
O2    C1    A    
C22   H4    S    
C15   C16   A    
C76   H46   S    
C47   O33   S    
C49   C50   A    
C65   C66   S    
C59   C60   D    
C7    N1    A    
C35   C36   A    
C75   H43   S    
C19   N2    A    
C33   C37   A    
C75   C76   S    
O22   V3    S    
O27   C64   A    
C27   C32   A    
C28   C29   A    
O36   C86   S    
C71   H32   S    
O22   C62   A    
C22   C23   A    
C78   H54   S    
C74   H39   S    
N11   H68   S    
O3    C4    A    
N5    C71   S    
C38   N5    S    
C66   H17   S    
C85   H75   S    
C77   H48   S    
O20   C61   A    
O24   V4    S    
N6    C74   S    
C14   C19   A    
O6    V2    S    
O9    V2    S    
C46   O18   S    
O33   C75   S    
C31   H8    S    
C69   H24   S    
O2    V1    S    
C33   O15   S    
C21   C26   A    
C72   C73   S    
N8    H51   S    
O23   V3    S    
C76   H44   S    
C86   C87   S    
C84   H72   S    
C24   H5    S    
C25   H6    S    
O21   V3    S    
C68   H22   S    
C35   C38   A    
O1    C2    A    
C41   C42   A    
C87   H80   S    
C45   N4    A    
C67   C68   S    
O5    V1    S    
N9    C79   S    
O8    C3    A    
C23   C64   S    
C29   C30   A    
C70   H26   S    
C71   H31   S    
O20   V3    S    
C36   C41   A    
C19   O13   S    
O23   C63   A    
C28   O31   S    
N10   H64   S    
O31   C69   S    
O7    V2    S    
C86   H78   S    
O4    V1    S    
C24   C25   A    
O3    V1    S    
V1    O10   S    
C80   H59   S    
N7    H47   S    
C1    C49   S    
C85   H76   S    
O19   C62   A    
C25   C26   A    
C56   H13   S    
C78   H53   S    
C31   C32   A    
C39   C40   A    
C73   H35   S    
C42   C43   A    
C12   N11   S    
O27   V4    S    
C80   H60   S    
N5    H29   S    
C36   C37   A    
C7    O11   S    
N3    C58   S    
O26   V4    S    
O32   C72   S    
N1    C32   S    
C53   C54   A    
O21   C64   A    
C83   H70   S    
C38   C39   A    
C7    C11   A    
C13   C14   A    
O30   C67   S    
C27   O30   S    
C8    C9    A    
C50   C51   A    
N11   C83   S    
N6    H38   S    
C54   H12   S    
N1    C8    A    
C84   H73   S    
C60   C61   S    
C79   H56   S    
V2    O10   S    
C78   H52   S    
