data_mof_unit_10757.cif
_audit_creation_date              2012-12-10T17:29:13-0500
_audit_creation_method            fapswitch 2.2
_symmetry_space_group_name_H-M    P1
_symmetry_Int_Tables_number       1
_space_group_crystal_system       triclinic
_cell_length_a                    18.466677
_cell_length_b                    18.283081
_cell_length_c                    51.441547
_cell_angle_alpha                 90.058798
_cell_angle_beta                  89.992982
_cell_angle_gamma                 90.280791
_cell_volume                      17367.8760112

loop_
_atom_site_label
_atom_site_type_symbol
_atom_type_description
_atom_site_fract_x
_atom_site_fract_y
_atom_site_fract_z
_atom_type_partial_charge
C1    C     C_R   0.000027 0.499956 0.179942 0.851300
C2    C     C_R   0.000007 0.500020 0.820033 0.859011
C3    C     C_R   0.499855 0.999962 0.179942 0.869488
C4    C     C_R   0.499764 0.999921 0.819942 0.880803
C5    C     C_R   0.500005 0.999867 0.680073 0.834072
C6    C     C_R   0.500002 0.999546 0.319944 0.828313
C7    C     C_R   0.999981 0.499969 0.679895 0.864902
C8    C     C_R   0.000086 0.500059 0.320145 0.864954
C9    C     C_R   0.631184 0.990062 0.013235 0.420300
C10   C     C_R   0.367406 0.004844 0.986202 0.423089
C11   C     C_R   0.003626 0.633181 0.013715 0.415925
C12   C     C_R   0.995989 0.366113 0.986177 0.416566
C13   C     C_R   0.367367 0.000629 0.013523 0.420080
C14   C     C_R   0.630685 0.985111 0.985928 0.422681
C15   C     C_R   0.994051 0.366049 0.013479 0.416417
C16   C     C_R   0.001633 0.633335 0.986415 0.416902
C17   C     C_R   0.132640 0.503526 0.513825 0.419735
C18   C     C_R   0.868260 0.494804 0.486376 0.421069
C19   C     C_R   0.632006 0.983029 0.513794 0.419104
C20   C     C_R   0.367987 0.991378 0.486263 0.420604
C21   C     C_R   0.868077 0.496632 0.513670 0.419792
C22   C     C_R   0.132721 0.505302 0.486529 0.421426
C23   C     C_R   0.367973 0.996657 0.513544 0.420222
C24   C     C_R   0.632355 0.986348 0.486480 0.421494
C25   C     C_R   0.967324 0.442464 0.390475 0.482874
C26   C     C_R   0.036027 0.444462 0.609671 0.481724
C27   C     C_R   0.471235 0.932432 0.389237 0.494824
C28   C     C_R   0.473832 0.056750 0.609638 0.492919
C29   C     C_R   0.034009 0.557549 0.390511 0.482324
C30   C     C_R   0.963745 0.555353 0.609711 0.480758
C31   C     C_R   0.530668 0.051976 0.390681 0.494381
C32   C     C_R   0.525547 0.934290 0.610550 0.492861
C33   C     C_R   0.443853 0.960081 0.889235 0.506841
C34   C     C_R   0.550898 0.956842 0.110121 0.505032
C35   C     C_R   0.054706 0.464032 0.890327 0.477102
C36   C     C_R   0.056936 0.532473 0.109532 0.481525
C37   C     C_R   0.554249 0.034149 0.889749 0.506224
C38   C     C_R   0.449261 0.040510 0.109827 0.504183
C39   C     C_R   0.944493 0.536271 0.890221 0.478971
C40   C     C_R   0.942659 0.465921 0.109697 0.482484
C41   C     C_R   0.961781 0.444704 0.363123 -0.010836
C42   C     C_R   0.041188 0.446947 0.637024 -0.031043
C43   C     C_R   0.468905 0.935744 0.361788 -0.021328
C44   C     C_R   0.470866 0.057613 0.637077 -0.036493
C45   C     C_R   0.038732 0.555793 0.363121 -0.017294
C46   C     C_R   0.958583 0.552851 0.637066 -0.031391
C47   C     C_R   0.531968 0.054410 0.363265 -0.007028
C48   C     C_R   0.528849 0.936966 0.637963 -0.034972
C49   C     C_R   0.439236 0.969440 0.862083 -0.019075
C50   C     C_R   0.557170 0.966330 0.137276 -0.056183
C51   C     C_R   0.052382 0.458595 0.862965 -0.027439
C52   C     C_R   0.055080 0.538139 0.136904 -0.035362
C53   C     C_R   0.559397 0.026739 0.862534 -0.022079
C54   C     C_R   0.443091 0.032853 0.137059 -0.056541
C55   C     C_R   0.947562 0.541978 0.862885 -0.016652
C56   C     C_R   0.945245 0.460296 0.137053 -0.032646
C57   C     C_R   0.000234 0.500195 0.349094 -0.176418
C58   C     C_R   0.999913 0.499915 0.651019 -0.209644
C59   C     C_R   0.500097 0.996662 0.348713 -0.201713
C60   C     C_R   0.500013 0.998226 0.651326 -0.226167
C61   C     C_R   0.499207 0.999297 0.848568 -0.191291
C62   C     C_R   0.500045 0.999800 0.151109 -0.152686
C63   C     C_R   0.000000 0.500184 0.848932 -0.214068
C64   C     C_R   0.000102 0.499527 0.151007 -0.210339
C65   C     C_R   0.000831 0.499902 0.404070 0.019238
C66   C     C_R   0.999948 0.499943 0.596115 0.014361
C67   C     C_R   0.500929 0.990918 0.403691 0.004682
C68   C     C_R   0.499666 0.994649 0.596361 0.002920
C69   C     C_R   0.498900 0.996593 0.903472 -0.022642
C70   C     C_R   0.499985 0.998094 0.095996 -0.015373
C71   C     C_R   0.999386 0.500034 0.903873 0.011344
C72   C     C_R   0.999564 0.499296 0.096027 0.013034
C73   C     C_R   0.858818 0.638692 0.250933 0.794486
C74   C     C_R   0.143505 0.362674 0.748256 0.827157
C75   C     C_R   0.360194 0.859620 0.250008 0.803008
C76   C     C_R   0.639893 0.140933 0.750368 0.819201
C77   C     C_R   0.141086 0.361251 0.250897 0.791463
C78   C     C_R   0.856577 0.637442 0.748321 0.825596
C79   C     C_R   0.639688 0.140577 0.250055 0.803065
C80   C     C_R   0.360920 0.858232 0.749968 0.818623
C81   C     C_R   0.859916 0.360012 0.749660 0.813931
C82   C     C_R   0.139513 0.640695 0.249871 0.806616
C83   C     C_R   0.356310 0.136868 0.751879 0.825538
C84   C     C_R   0.641075 0.860389 0.249349 0.793347
C85   C     C_R   0.140030 0.640182 0.749764 0.813543
C86   C     C_R   0.860451 0.359443 0.249897 0.806501
C87   C     C_R   0.643698 0.863220 0.751930 0.824082
C88   C     C_R   0.359383 0.140126 0.249710 0.787855
C89   C     C_R   0.278449 0.611612 0.272205 -0.406876
C90   C     C_R   0.808045 0.301513 0.797387 -0.369899
C91   C     C_R   0.287526 0.188762 0.201917 -0.401352
C92   C     C_R   0.651614 0.745411 0.792352 -0.364505
C93   C     C_R   0.719450 0.391425 0.269688 -0.393650
C94   C     C_R   0.200024 0.694183 0.797354 -0.371145
C95   C     C_R   0.718247 0.816032 0.201990 -0.403599
C96   C     C_R   0.347928 0.254506 0.792158 -0.365165
C97   C     C_R   0.286283 0.382893 0.774329 -0.346010
C98   C     C_R   0.835534 0.722094 0.205565 -0.373860
C99   C     C_R   0.338267 0.752766 0.794716 -0.351095
C100  C     C_R   0.609669 0.286905 0.267877 -0.401110
C101  C     C_R   0.713682 0.617381 0.774296 -0.345282
C102  C     C_R   0.169800 0.282070 0.204886 -0.379216
C103  C     C_R   0.673199 0.234813 0.797340 -0.370994
C104  C     C_R   0.386938 0.717607 0.271717 -0.392687
C105  C     C_R   0.686542 0.205950 0.701845 -0.388356
C106  C     C_R   0.220580 0.889556 0.228196 -0.394319
C107  C     C_R   0.852967 0.759672 0.709789 -0.355163
C108  C     C_R   0.214439 0.320423 0.298202 -0.387065
C109  C     C_R   0.310575 0.796001 0.701066 -0.391314
C110  C     C_R   0.780939 0.109149 0.229692 -0.394980
C111  C     C_R   0.147313 0.240861 0.709516 -0.355158
C112  C     C_R   0.774865 0.670447 0.296849 -0.380964
C113  C     C_R   0.669248 0.778308 0.295939 -0.384889
C114  C     C_R   0.211273 0.113811 0.727519 -0.344909
C115  C     C_R   0.889670 0.214910 0.230668 -0.389402
C116  C     C_R   0.201936 0.690840 0.700936 -0.403942
C117  C     C_R   0.318063 0.210782 0.297905 -0.383970
C118  C     C_R   0.788827 0.886610 0.727890 -0.345541
C119  C     C_R   0.111556 0.784045 0.229281 -0.389501
C120  C     C_R   0.795515 0.310599 0.701322 -0.403135
C121  C     C_R   0.347230 0.594593 0.282289 0.514847
C122  C     C_R   0.767833 0.300088 0.820565 0.505438
C123  C     C_R   0.251670 0.210879 0.179182 0.524729
C124  C     C_R   0.635966 0.678955 0.805148 0.508085
C125  C     C_R   0.649406 0.410365 0.277672 0.501458
C126  C     C_R   0.244153 0.692206 0.819709 0.498411
C127  C     C_R   0.756592 0.795720 0.179528 0.530808
C128  C     C_R   0.365065 0.320998 0.804688 0.496107
C129  C     C_R   0.334333 0.385534 0.795382 0.497820
C130  C     C_R   0.816818 0.750322 0.181322 0.479844
C131  C     C_R   0.315446 0.717034 0.817474 0.491352
C132  C     C_R   0.594628 0.357456 0.277524 0.533444
C133  C     C_R   0.665053 0.614345 0.795173 0.495110
C134  C     C_R   0.191148 0.255839 0.180616 0.484137
C135  C     C_R   0.697905 0.271217 0.819681 0.491122
C136  C     C_R   0.400545 0.649133 0.283088 0.520628
C137  C     C_R   0.712125 0.232387 0.677804 0.513262
C138  C     C_R   0.151215 0.907158 0.218727 0.514198
C139  C     C_R   0.872776 0.827091 0.698879 0.483526
C140  C     C_R   0.247493 0.299700 0.321504 0.507207
C141  C     C_R   0.283458 0.770376 0.677099 0.514717
C142  C     C_R   0.850742 0.091225 0.220673 0.512145
C143  C     C_R   0.127274 0.173468 0.698598 0.484164
C144  C     C_R   0.734205 0.684693 0.319223 0.517759
C145  C     C_R   0.683801 0.741366 0.319310 0.483404
C146  C     C_R   0.159135 0.109478 0.707795 0.494408
C147  C     C_R   0.904392 0.145434 0.220322 0.516338
C148  C     C_R   0.229081 0.716888 0.677011 0.515511
C149  C     C_R   0.298163 0.243440 0.321480 0.503220
C150  C     C_R   0.840792 0.891027 0.708115 0.494760
C151  C     C_R   0.097428 0.853062 0.218480 0.514119
C152  C     C_R   0.766795 0.285495 0.677522 0.516681
C153  C     C_R   0.318868 0.734126 0.260584 0.006737
C154  C     C_R   0.713340 0.236783 0.773692 0.015297
C155  C     C_R   0.211485 0.268649 0.227490 0.019871
C156  C     C_R   0.736535 0.684910 0.763627 0.008604
C157  C     C_R   0.679607 0.267986 0.258853 0.008243
C158  C     C_R   0.292787 0.757366 0.772481 0.008799
C159  C     C_R   0.791492 0.733853 0.227689 0.019060
C160  C     C_R   0.263880 0.315536 0.763349 0.011539
C161  C     C_R   0.303051 0.252435 0.769878 0.026036
C162  C     C_R   0.734366 0.784546 0.226420 -0.015336
C163  C     C_R   0.228219 0.717191 0.773025 0.013115
C164  C     C_R   0.734847 0.321263 0.259469 0.012407
C165  C     C_R   0.697187 0.747923 0.770201 0.024802
C166  C     C_R   0.268738 0.218112 0.226483 -0.007170
C167  C     C_R   0.776600 0.279414 0.773443 0.011529
C168  C     C_R   0.263974 0.680500 0.260869 0.015916
C169  C     C_R   0.774270 0.279836 0.725468 0.017069
C170  C     C_R   0.180281 0.766817 0.239736 0.006777
C171  C     C_R   0.765717 0.818326 0.737944 0.009801
C172  C     C_R   0.284757 0.230572 0.274048 0.015839
C173  C     C_R   0.224834 0.720580 0.725063 0.020702
C174  C     C_R   0.820381 0.232678 0.240534 0.006958
C175  C     C_R   0.234526 0.182055 0.737614 0.011283
C176  C     C_R   0.709857 0.764731 0.273075 0.027829
C177  C     C_R   0.763907 0.710453 0.273667 -0.014675
C178  C     C_R   0.194861 0.244947 0.731065 0.017685
C179  C     C_R   0.765425 0.179077 0.240141 0.019088
C180  C     C_R   0.280744 0.773124 0.725107 0.025342
C181  C     C_R   0.231201 0.285403 0.274390 -0.005367
C182  C     C_R   0.805478 0.755503 0.731360 0.018502
C183  C     C_R   0.235311 0.820355 0.239312 0.018218
C184  C     C_R   0.718568 0.227158 0.725761 0.023245
C185  C     C_R   0.304190 0.803586 0.249729 -0.049443
C186  C     C_R   0.691239 0.202137 0.749996 -0.078211
C187  C     C_R   0.195401 0.304066 0.251033 -0.051969
C188  C     C_R   0.796260 0.690748 0.746304 -0.110030
C189  C     C_R   0.695643 0.196812 0.249603 -0.051542
C190  C     C_R   0.311001 0.795672 0.749162 -0.081120
C191  C     C_R   0.804480 0.695906 0.250958 -0.053016
C192  C     C_R   0.204054 0.309663 0.746073 -0.110983
C193  C     C_R   0.294959 0.188635 0.754470 -0.111631
C194  C     C_R   0.695735 0.802427 0.249522 -0.061027
C195  C     C_R   0.196135 0.696115 0.749228 -0.069557
C196  C     C_R   0.804618 0.303326 0.250215 -0.051803
C197  C     C_R   0.705128 0.811642 0.754715 -0.111593
C198  C     C_R   0.304046 0.197421 0.249987 -0.063702
C199  C     C_R   0.804804 0.303286 0.749407 -0.066629
C200  C     C_R   0.195318 0.696976 0.250242 -0.050483
C201  C     C_R   0.435954 0.986421 0.054494 0.616499
C202  C     C_R   0.560837 0.977955 0.944979 0.611212
C203  C     C_R   0.001866 0.434315 0.054834 0.619296
C204  C     C_R   0.005541 0.564784 0.945061 0.620588
C205  C     C_R   0.563391 0.006498 0.054273 0.616999
C206  C     C_R   0.436638 0.012273 0.945114 0.606343
C207  C     C_R   0.996259 0.564556 0.054957 0.619352
C208  C     C_R   0.992400 0.435006 0.944939 0.621301
C209  C     C_R   0.935951 0.492876 0.554975 0.620860
C210  C     C_R   0.065164 0.496994 0.445217 0.620291
C211  C     C_R   0.435283 0.992928 0.555094 0.609519
C212  C     C_R   0.564840 0.984638 0.444959 0.598908
C213  C     C_R   0.064345 0.507159 0.555059 0.620914
C214  C     C_R   0.936224 0.502906 0.445152 0.619032
C215  C     C_R   0.564327 0.991266 0.555176 0.609374
C216  C     C_R   0.436024 0.992216 0.444842 0.612080
C217  C     C_R   0.565386 0.997123 0.027082 -0.193013
C218  C     C_R   0.433570 0.003954 0.972335 -0.195167
C219  C     C_R   0.999701 0.566467 0.027562 -0.188915
C220  C     C_R   0.995819 0.432925 0.972333 -0.187804
C221  C     C_R   0.433430 0.994326 0.027251 -0.192440
C222  C     C_R   0.564303 0.986062 0.972203 -0.193218
C223  C     C_R   0.998121 0.432642 0.027441 -0.189598
C224  C     C_R   0.001908 0.566636 0.972454 -0.188176
C225  C     C_R   0.066470 0.503483 0.527680 -0.189197
C226  C     C_R   0.934316 0.499094 0.472524 -0.189633
C227  C     C_R   0.566085 0.987925 0.527705 -0.186597
C228  C     C_R   0.434067 0.990633 0.472333 -0.193790
C229  C     C_R   0.934108 0.496599 0.527600 -0.189537
C230  C     C_R   0.066810 0.500895 0.472597 -0.189162
C231  C     C_R   0.433769 0.993352 0.527591 -0.185511
C232  C     C_R   0.566444 0.986645 0.472447 -0.186122
C233  C     C_R   0.499284 0.995483 0.013437 -0.148209
C234  C     C_R   0.499049 0.995131 0.985996 -0.149879
C235  C     C_R   0.998879 0.499611 0.013722 -0.146083
C236  C     C_R   0.998856 0.499724 0.986173 -0.146946
C237  C     C_R   0.000359 0.500027 0.513868 -0.145255
C238  C     C_R   0.000496 0.500001 0.486333 -0.146051
C239  C     C_R   0.500003 0.990054 0.513833 -0.146069
C240  C     C_R   0.500169 0.989039 0.486205 -0.148605
H1    H     H_    0.236042 0.571006 0.273732 0.163158
H2    H     H_    0.861850 0.324680 0.797709 0.167902
H3    H     H_    0.330392 0.149518 0.199888 0.190008
H4    H     H_    0.629801 0.795196 0.800280 0.188551
H5    H     H_    0.761706 0.432048 0.271936 0.165228
H6    H     H_    0.145273 0.673652 0.798470 0.167643
H7    H     H_    0.675148 0.855078 0.199917 0.185355
H8    H     H_    0.366501 0.204111 0.800708 0.186385
H9    H     H_    0.268608 0.434392 0.766302 0.202267
H10   H     H_    0.884862 0.690850 0.206867 0.163704
H11   H     H_    0.394534 0.767746 0.794184 0.225898
H12   H     H_    0.566018 0.247508 0.267215 0.172614
H13   H     H_    0.731083 0.566046 0.766016 0.202260
H14   H     H_    0.119944 0.312528 0.205856 0.165841
H15   H     H_    0.619519 0.212504 0.798820 0.208618
H16   H     H_    0.430378 0.757399 0.271578 0.167271
H17   H     H_    0.638443 0.172386 0.701601 0.179846
H18   H     H_    0.263089 0.930014 0.226490 0.160792
H19   H     H_    0.873413 0.710982 0.700541 0.197854
H20   H     H_    0.174868 0.363633 0.299273 0.180901
H21   H     H_    0.358519 0.829777 0.700675 0.179427
H22   H     H_    0.738575 0.068563 0.227930 0.162829
H23   H     H_    0.126907 0.289616 0.700335 0.197457
H24   H     H_    0.814483 0.627183 0.297943 0.174808
H25   H     H_    0.624760 0.816313 0.295843 0.168969
H26   H     H_    0.230772 0.062985 0.735557 0.198733
H27   H     H_    0.933296 0.254478 0.230980 0.172655
H28   H     H_    0.165783 0.644572 0.700413 0.182888
H29   H     H_    0.359109 0.169220 0.298944 0.191564
H30   H     H_    0.769197 0.937400 0.735958 0.198187
H31   H     H_    0.067796 0.744594 0.229644 0.170377
H32   H     H_    0.832075 0.356569 0.700696 0.181446
N1    N     N_R   0.499786 0.996909 0.067719 -0.340123
N2    N     N_R   0.498734 0.995433 0.931730 -0.341677
N3    N     N_R   0.999177 0.499383 0.067943 -0.325036
N4    N     N_R   0.999062 0.499944 0.931953 -0.324300
N5    N     N_R   0.000080 0.500003 0.568053 -0.327266
N6    N     N_R   0.000753 0.499907 0.432142 -0.329065
N7    N     N_R   0.499750 0.992901 0.568211 -0.329000
N8    N     N_R   0.500543 0.988633 0.431827 -0.330500
O1    O     O_3   1.000000 0.500000 0.250000 -0.472133
O2    O     O_3   0.000000 0.500000 0.750000 -0.457232
O3    O     O_3   0.500000 0.000000 0.250000 -0.473504
O4    O     O_3   0.500000 0.000000 0.750000 -0.458788
O5    O     O_R   0.060810 0.500000 0.192410 -0.653776
O6    O     O_R   0.939190 0.500000 0.807590 -0.653354
O7    O     O_R   0.500000 0.060810 0.192410 -0.650745
O8    O     O_R   0.500000 0.939190 0.807590 -0.666650
O9    O     O_R   0.939190 0.500000 0.192410 -0.652759
O10   O     O_R   0.060810 0.500000 0.807590 -0.657193
O11   O     O_R   0.500000 0.939190 0.192410 -0.650537
O12   O     O_R   0.500000 0.060810 0.807590 -0.668132
O13   O     O_R   0.560810 0.000000 0.692410 -0.649975
O14   O     O_R   0.439190 0.000000 0.307590 -0.631548
O15   O     O_R   0.000000 0.560810 0.692410 -0.665099
O16   O     O_R   0.000000 0.439190 0.307590 -0.647345
O17   O     O_R   0.439190 0.000000 0.692410 -0.650022
O18   O     O_R   0.560810 0.000000 0.307590 -0.648709
O19   O     O_R   1.000000 0.439190 0.692410 -0.665076
O20   O     O_R   0.000000 0.560810 0.307590 -0.646844
O21   O     O_R   0.853910 0.585600 0.235240 -0.650583
O22   O     O_R   0.146090 0.414400 0.764760 -0.649945
O23   O     O_R   0.414400 0.853910 0.235240 -0.638438
O24   O     O_R   0.585600 0.146090 0.764760 -0.659578
O25   O     O_R   0.146090 0.414400 0.235240 -0.649328
O26   O     O_R   0.853910 0.585600 0.764760 -0.650571
O27   O     O_R   0.585600 0.146090 0.235240 -0.640075
O28   O     O_R   0.414400 0.853910 0.764760 -0.656118
O29   O     O_R   0.853910 0.414400 0.764760 -0.646479
O30   O     O_R   0.146090 0.585600 0.235240 -0.639787
O31   O     O_R   0.414400 0.146090 0.764760 -0.649093
O32   O     O_R   0.585600 0.853910 0.235240 -0.642949
O33   O     O_R   0.146090 0.585600 0.764760 -0.647093
O34   O     O_R   0.853910 0.414400 0.235240 -0.640990
O35   O     O_R   0.585600 0.853910 0.764760 -0.642553
O36   O     O_R   0.414400 0.146090 0.235240 -0.646475
O37   O     O_R   0.353910 0.085600 0.735240 -0.647739
O38   O     O_R   0.646090 0.914400 0.264760 -0.645434
O39   O     O_R   0.914400 0.353910 0.735240 -0.657192
O40   O     O_R   0.085600 0.646090 0.264760 -0.637667
O41   O     O_R   0.646090 0.914400 0.735240 -0.649053
O42   O     O_R   0.353910 0.085600 0.264760 -0.641352
O43   O     O_R   0.085600 0.646090 0.735240 -0.656953
O44   O     O_R   0.914400 0.353910 0.264760 -0.637474
O45   O     O_R   0.353910 0.914400 0.264760 -0.638791
O46   O     O_R   0.646090 0.085600 0.735240 -0.653825
O47   O     O_R   0.914400 0.646090 0.264760 -0.634512
O48   O     O_R   0.085600 0.353910 0.735240 -0.649967
O49   O     O_R   0.646090 0.085600 0.264760 -0.638968
O50   O     O_R   0.353910 0.914400 0.735240 -0.653880
O51   O     O_R   0.085600 0.353910 0.264760 -0.635465
O52   O     O_R   0.914400 0.646090 0.735240 -0.649875
O53   O     O_2   0.375467 0.967369 0.067594 -0.472872
O54   O     O_2   0.618627 0.952081 0.931898 -0.478815
O55   O     O_2   0.009097 0.371646 0.068395 -0.490971
O56   O     O_2   0.016396 0.627009 0.931500 -0.500216
O57   O     O_2   0.624141 0.026306 0.067083 -0.472170
O58   O     O_2   0.378537 0.037962 0.932192 -0.472582
O59   O     O_2   0.989189 0.627103 0.068646 -0.493515
O60   O     O_2   0.981661 0.372901 0.931254 -0.501445
O61   O     O_2   0.874435 0.481337 0.568552 -0.486655
O62   O     O_2   0.127193 0.489440 0.431635 -0.491287
O63   O     O_2   0.372957 0.991363 0.568766 -0.500199
O64   O     O_2   0.626832 0.977953 0.431307 -0.500731
O65   O     O_2   0.125724 0.518651 0.568723 -0.486561
O66   O     O_2   0.874319 0.510496 0.431511 -0.486738
O67   O     O_2   0.626549 0.994210 0.568882 -0.499472
O68   O     O_2   0.374202 0.998867 0.431100 -0.484340
Zn1   Zn    Zn3+2 0.000000 0.586890 0.272200 0.954449
Zn2   Zn    Zn3+2 1.000000 0.413110 0.727800 0.924167
Zn3   Zn    Zn3+2 0.413110 0.000000 0.272200 0.951518
Zn4   Zn    Zn3+2 0.586890 0.000000 0.727800 0.934569
Zn5   Zn    Zn3+2 0.000000 0.413110 0.272200 0.954621
Zn6   Zn    Zn3+2 0.000000 0.586890 0.727800 0.923946
Zn7   Zn    Zn3+2 0.586890 0.000000 0.272200 0.937517
Zn8   Zn    Zn3+2 0.413110 0.000000 0.727800 0.935623
Zn9   Zn    Zn3+2 0.500000 0.086890 0.772200 0.932657
Zn10  Zn    Zn3+2 0.500000 0.913110 0.227800 0.949526
Zn11  Zn    Zn3+2 0.913110 0.500000 0.772200 0.937841
Zn12  Zn    Zn3+2 0.086890 0.500000 0.227800 0.929503
Zn13  Zn    Zn3+2 0.500000 0.913110 0.772200 0.945235
Zn14  Zn    Zn3+2 0.500000 0.086890 0.227800 0.946449
Zn15  Zn    Zn3+2 0.086890 0.500000 0.772200 0.935701
Zn16  Zn    Zn3+2 0.913110 0.500000 0.227800 0.929830
O69   O     O_3   0.028843 0.871177 0.209751 -0.571059
C241  C     C_3   0.010495 0.827590 0.188063 -0.204051
H33   H     H_    0.996457 0.770962 0.194069 0.136915
H34   H     H_    0.054364 0.827162 0.173189 0.159931
H35   H     H_    0.961687 0.851108 0.178762 0.231271
O70   O     O_3   0.784980 0.316275 0.653590 -0.557957
C242  C     C_3   0.859274 0.334479 0.651813 -0.270104
H36   H     H_    0.894649 0.292257 0.660741 0.131221
H37   H     H_    0.869756 0.389149 0.660490 0.167083
H38   H     H_    0.874124 0.338155 0.630959 0.198579
O71   O     O_3   0.321800 0.215188 0.344915 -0.548793
C243  C     C_3   0.394734 0.235033 0.348848 -0.312901
H39   H     H_    0.401162 0.295437 0.349815 0.151106
H40   H     H_    0.430623 0.211196 0.333753 0.123281
H41   H     H_    0.412404 0.212862 0.367825 0.197215
O72   O     O_3   0.864618 0.958091 0.698995 -0.571749
C244  C     C_3   0.809801 0.989436 0.683587 -0.265963
H42   H     H_    0.760918 0.002696 0.695291 0.161885
H43   H     H_    0.795241 0.953166 0.666973 0.169360
H44   H     H_    0.830635 0.041524 0.675371 0.190185
O73   O     O_3   0.973243 0.127109 0.211856 -0.568861
C245  C     C_3   0.992949 0.171125 0.190443 -0.214472
H45   H     H_    0.007966 0.227253 0.196777 0.134637
H46   H     H_    0.949478 0.172943 0.175439 0.161225
H47   H     H_    0.041540 0.147043 0.181154 0.223904
O74   O     O_3   0.209875 0.686812 0.653029 -0.557655
C246  C     C_3   0.136490 0.664837 0.651929 -0.267844
H48   H     H_    0.099827 0.704852 0.661468 0.131996
H49   H     H_    0.129533 0.609378 0.660372 0.167284
H50   H     H_    0.120146 0.661154 0.631221 0.197196
O75   O     O_3   0.645348 0.754758 0.342029 -0.606021
C247  C     C_3   0.642817 0.830485 0.347479 -0.278563
H51   H     H_    0.597613 0.856526 0.336769 0.149277
H52   H     H_    0.694990 0.858924 0.343180 0.175107
H53   H     H_    0.632154 0.837879 0.368519 0.195257
O76   O     O_3   0.134902 0.042457 0.698729 -0.571563
C248  C     C_3   0.189445 0.010676 0.683288 -0.266743
H54   H     H_    0.238316 0.997254 0.694960 0.160868
H55   H     H_    0.204106 0.046717 0.666648 0.169474
H56   H     H_    0.168266 0.958633 0.675111 0.191312
O77   O     O_3   0.079465 0.169615 0.677922 -0.588963
C249  C     C_3   0.009806 0.190033 0.686474 -0.247614
H57   H     H_    0.007134 0.249622 0.690667 0.152893
H58   H     H_    0.992472 0.157894 0.703803 0.180423
H59   H     H_    0.970530 0.178236 0.670687 0.184865
O78   O     O_3   0.746853 0.645880 0.341776 -0.581376
C250  C     C_3   0.710783 0.577941 0.339880 -0.222517
H60   H     H_    0.734904 0.543284 0.324376 0.164138
H61   H     H_    0.651691 0.585037 0.336406 0.185276
H62   H     H_    0.716962 0.548563 0.358593 0.196543
O79   O     O_3   0.313996 0.789513 0.653253 -0.569168
C251  C     C_3   0.334334 0.864050 0.652207 -0.285411
H63   H     H_    0.388804 0.872178 0.660890 0.158428
H64   H     H_    0.293782 0.900368 0.661596 0.143883
H65   H     H_    0.338265 0.880602 0.631509 0.207251
O80   O     O_3   0.867130 0.023688 0.209685 -0.562890
C252  C     C_3   0.837977 0.965185 0.224305 -0.202611
H66   H     H_    0.780376 0.955628 0.219089 0.133530
H67   H     H_    0.844036 0.973740 0.245645 0.155447
H68   H     H_    0.867877 0.914633 0.219244 0.216489
O81   O     O_3   0.920457 0.830975 0.678168 -0.588798
C253  C     C_3   0.990273 0.811173 0.686714 -0.247884
H69   H     H_    0.993248 0.751743 0.691121 0.152518
H70   H     H_    0.007565 0.843982 0.703912 0.180687
H71   H     H_    0.029382 0.822629 0.670848 0.186219
O82   O     O_3   0.226606 0.330798 0.344810 -0.569734
C254  C     C_3   0.256670 0.401708 0.346445 -0.268055
H72   H     H_    0.233973 0.438395 0.331319 0.149923
H73   H     H_    0.316796 0.400518 0.344941 0.159694
H74   H     H_    0.242744 0.425246 0.365679 0.214168
O83   O     O_3   0.679917 0.213979 0.654180 -0.569749
C255  C     C_3   0.662458 0.138752 0.652694 -0.283887
H75   H     H_    0.609102 0.127872 0.661879 0.158899
H76   H     H_    0.705156 0.103507 0.661338 0.144171
H77   H     H_    0.657479 0.123302 0.631907 0.203188
O84   O     O_3   0.135358 0.974261 0.207348 -0.565466
C256  C     C_3   0.164300 0.033365 0.221772 -0.201308
H78   H     H_    0.221971 0.042807 0.216611 0.131323
H79   H     H_    0.157959 0.025672 0.243138 0.159928
H80   H     H_    0.134451 0.083698 0.216458 0.214610
O85   O     O_3   0.650132 0.288124 0.839396 -0.601508
C257  C     C_3   0.651578 0.233072 0.858432 -0.301862
H81   H     H_    0.705531 0.206699 0.860845 0.168462
H82   H     H_    0.609287 0.191926 0.853866 0.152777
H83   H     H_    0.637463 0.258218 0.877371 0.202906
O86   O     O_3   0.467979 0.631895 0.293184 -0.568901
C258  C     C_3   0.486480 0.680897 0.313382 -0.258023
H84   H     H_    0.440488 0.690577 0.326975 0.148217
H85   H     H_    0.506947 0.733502 0.305419 0.142183
H86   H     H_    0.531038 0.656521 0.324880 0.218288
O87   O     O_3   0.643030 0.547802 0.805345 -0.558790
C259  C     C_3   0.701165 0.516380 0.819128 -0.201207
H87   H     H_    0.721841 0.553967 0.834514 0.128958
H88   H     H_    0.745801 0.499998 0.805855 0.164447
H89   H     H_    0.681389 0.466039 0.828903 0.231006
O88   O     O_3   0.151520 0.268744 0.158125 -0.578619
C260  C     C_3   0.138305 0.344254 0.154884 -0.297956
H90   H     H_    0.186803 0.378492 0.159395 0.141444
H91   H     H_    0.091370 0.361690 0.166781 0.167538
H92   H     H_    0.124015 0.354291 0.134249 0.204321
O89   O     O_3   0.365117 0.696257 0.836161 -0.552644
C261  C     C_3   0.388112 0.757986 0.850265 -0.257812
H93   H     H_    0.341366 0.787243 0.859005 0.159699
H94   H     H_    0.421579 0.795065 0.838052 0.146648
H95   H     H_    0.422893 0.738951 0.866424 0.190610
O90   O     O_3   0.525588 0.378997 0.284932 -0.550534
C262  C     C_3   0.492442 0.326702 0.301243 -0.332682
H96   H     H_    0.531019 0.302261 0.315421 0.145915
H97   H     H_    0.465407 0.283529 0.289486 0.152827
H98   H     H_    0.449810 0.354607 0.312641 0.194273
O91   O     O_3   0.355307 0.451817 0.806079 -0.561329
C263  C     C_3   0.296450 0.481988 0.819831 -0.179004
H99   H     H_    0.275587 0.443410 0.834841 0.133345
H100  H     H_    0.252176 0.498779 0.806485 0.158334
H101  H     H_    0.315534 0.531869 0.830089 0.239206
O92   O     O_3   0.858630 0.738543 0.159261 -0.584859
C264  C     C_3   0.870022 0.662991 0.155223 -0.305905
H102  H     H_    0.819899 0.629953 0.158329 0.142157
H103  H     H_    0.914400 0.642708 0.167763 0.165690
H104  H     H_    0.887149 0.654560 0.134769 0.209220
O93   O     O_3   0.736380 0.821988 0.155571 -0.591445
C265  C     C_3   0.692743 0.768475 0.143328 -0.322906
H105  H     H_    0.640258 0.761818 0.153716 0.147379
H106  H     H_    0.720571 0.714833 0.141669 0.174574
H107  H     H_    0.680944 0.786805 0.123262 0.212097
O94   O     O_3   0.407118 0.325187 0.827086 -0.584103
C266  C     C_3   0.467461 0.278192 0.825971 -0.201700
H108  H     H_    0.494358 0.279007 0.806580 0.169741
H109  H     H_    0.451882 0.221616 0.831582 0.143766
H110  H     H_    0.507661 0.297468 0.840447 0.232316
O95   O     O_3   0.634808 0.478455 0.288291 -0.590946
C267  C     C_3   0.647625 0.533676 0.269670 -0.241705
H111  H     H_    0.620664 0.521205 0.250795 0.168799
H112  H     H_    0.706537 0.543086 0.266776 0.138794
H113  H     H_    0.624510 0.585615 0.277058 0.213308
O96   O     O_3   0.224486 0.658869 0.843108 -0.592316
C268  C     C_3   0.149088 0.657894 0.847562 -0.335830
H114  H     H_    0.122833 0.613637 0.836103 0.180301
H115  H     H_    0.123936 0.711949 0.843564 0.163259
H116  H     H_    0.139441 0.645241 0.868370 0.209883
O97   O     O_3   0.274425 0.186524 0.155255 -0.593669
C269  C     C_3   0.321371 0.239788 0.144629 -0.324022
H117  H     H_    0.372305 0.243889 0.156116 0.151329
H118  H     H_    0.295142 0.294332 0.143157 0.173561
H119  H     H_    0.335840 0.222966 0.124615 0.206664
O98   O     O_3   0.587354 0.673356 0.825758 -0.541770
C270  C     C_3   0.595262 0.731386 0.843692 -0.292592
H120  H     H_    0.564476 0.780035 0.837124 0.164056
H121  H     H_    0.653113 0.745626 0.847363 0.141913
H122  H     H_    0.571549 0.714004 0.862524 0.196842
O99   O     O_3   0.362541 0.527476 0.293720 -0.574589
C271  C     C_3   0.336561 0.468670 0.278442 -0.242469
H123  H     H_    0.346937 0.476972 0.257308 0.167033
H124  H     H_    0.278111 0.458904 0.282134 0.127153
H125  H     H_    0.365303 0.418257 0.284281 0.205221
O100  O     O_3   0.789451 0.334807 0.843471 -0.590722
C272  C     C_3   0.864991 0.332442 0.847485 -0.338488
H126  H     H_    0.892410 0.376230 0.836193 0.181000
H127  H     H_    0.888004 0.277725 0.842905 0.158288
H128  H     H_    0.876032 0.343580 0.868321 0.214884
O101  O     O_3   0.696876 0.988252 0.026134 -0.555732
C273  C     C_3   0.713782 0.914646 0.031513 -0.149358
H129  H     H_    0.721150 0.882645 0.013296 0.150476
H130  H     H_    0.671730 0.888469 0.043975 0.160789
H131  H     H_    0.765678 0.913140 0.042347 0.199064
O102  O     O_3   0.301920 0.010248 0.973309 -0.557223
C274  C     C_3   0.276042 0.938957 0.968185 -0.155213
H132  H     H_    0.264836 0.908637 0.986509 0.155301
H133  H     H_    0.314527 0.907680 0.955817 0.160174
H134  H     H_    0.224300 0.943125 0.957353 0.193806
O103  O     O_3   0.006879 0.699511 0.026642 -0.557632
C275  C     C_3   0.080257 0.720273 0.029053 -0.144001
H135  H     H_    0.105434 0.730039 0.009704 0.154848
H136  H     H_    0.111789 0.678774 0.040060 0.160950
H137  H     H_    0.083149 0.772335 0.040102 0.195621
O104  O     O_3   0.995494 0.299721 0.973248 -0.560925
C276  C     C_3   0.067612 0.275549 0.970791 -0.148654
H138  H     H_    0.092302 0.264640 0.990125 0.158610
H139  H     H_    0.101360 0.315506 0.959756 0.163090
H140  H     H_    0.067558 0.223408 0.959749 0.191657
O105  O     O_3   0.301875 0.002502 0.026559 -0.556396
C277  C     C_3   0.284492 0.076200 0.031627 -0.145952
H141  H     H_    0.276403 0.107307 0.013280 0.151936
H142  H     H_    0.326634 0.103300 0.043816 0.161628
H143  H     H_    0.232856 0.077765 0.042626 0.199050
O106  O     O_3   0.695930 0.979073 0.972904 -0.557918
C278  C     C_3   0.722388 0.050106 0.967749 -0.157191
H144  H     H_    0.734471 0.080250 0.986058 0.156991
H145  H     H_    0.683862 0.081840 0.955577 0.162076
H146  H     H_    0.773742 0.045421 0.956701 0.192414
O107  O     O_3   0.990737 0.299619 0.026290 -0.557140
C279  C     C_3   0.917330 0.279015 0.028737 -0.145137
H147  H     H_    0.891981 0.269527 0.009395 0.154536
H148  H     H_    0.885988 0.320473 0.039866 0.160565
H149  H     H_    0.914394 0.226839 0.039678 0.195604
O108  O     O_3   0.001999 0.699831 0.973603 -0.560235
C280  C     C_3   0.929828 0.723841 0.971174 -0.150283
H150  H     H_    0.905049 0.734478 0.990523 0.158089
H151  H     H_    0.896219 0.683915 0.960045 0.161976
H152  H     H_    0.929781 0.776101 0.960242 0.191685
O109  O     O_3   0.198355 0.504361 0.526735 -0.554612
C281  C     C_3   0.222430 0.431606 0.529288 -0.157308
H153  H     H_    0.233254 0.406406 0.509984 0.157918
H154  H     H_    0.182948 0.397603 0.540394 0.162753
H155  H     H_    0.274062 0.431927 0.540303 0.188505
O110  O     O_3   0.802617 0.491268 0.473466 -0.555299
C282  C     C_3   0.782641 0.417044 0.470849 -0.163785
H156  H     H_    0.773262 0.391145 0.490132 0.159830
H157  H     H_    0.823933 0.385755 0.459709 0.162805
H158  H     H_    0.731076 0.413932 0.459840 0.185638
O111  O     O_3   0.697551 0.978437 0.526694 -0.556586
C283  C     C_3   0.716683 0.904016 0.528564 -0.165104
H159  H     H_    0.726077 0.879602 0.509038 0.160186
H160  H     H_    0.674878 0.871934 0.539292 0.160722
H161  H     H_    0.768045 0.899981 0.539635 0.185934
O112  O     O_3   0.302229 0.990452 0.473386 -0.555304
C284  C     C_3   0.277439 0.917432 0.472066 -0.164765
H162  H     H_    0.266329 0.894966 0.491770 0.160554
H163  H     H_    0.316610 0.881911 0.461564 0.157931
H164  H     H_    0.225829 0.916212 0.461043 0.186096
O113  O     O_3   0.802233 0.495957 0.526502 -0.554494
C285  C     C_3   0.778324 0.568775 0.529089 -0.158254
H165  H     H_    0.767785 0.594033 0.509793 0.157846
H166  H     H_    0.817771 0.602655 0.540279 0.162466
H167  H     H_    0.726569 0.568581 0.540033 0.188541
O114  O     O_3   0.198480 0.508938 0.473695 -0.555827
C286  C     C_3   0.218332 0.583196 0.471129 -0.166374
H168  H     H_    0.227463 0.609169 0.490433 0.160140
H169  H     H_    0.177088 0.614368 0.459951 0.162980
H170  H     H_    0.270002 0.586386 0.460184 0.185503
O115  O     O_3   0.302238 0.001716 0.526305 -0.556283
C287  C     C_3   0.282327 0.076063 0.527379 -0.163504
H171  H     H_    0.272712 0.098601 0.507602 0.161657
H172  H     H_    0.323771 0.109552 0.537760 0.160211
H173  H     H_    0.230902 0.080545 0.538396 0.186236
O116  O     O_3   0.698270 0.986023 0.473698 -0.556300
C288  C     C_3   0.723823 0.058723 0.472042 -0.166485
H174  H     H_    0.735247 0.081870 0.491637 0.161754
H175  H     H_    0.685001 0.094257 0.461406 0.160042
H176  H     H_    0.775398 0.058934 0.460988 0.185389
O117  O     O_3   0.935163 0.386306 0.404393 -0.592964
C289  C     C_3   0.987409 0.331642 0.408684 -0.327123
H177  H     H_    0.032844 0.352346 0.420884 0.186350
H178  H     H_    0.008528 0.309388 0.390021 0.174768
H179  H     H_    0.961380 0.285842 0.419349 0.195495
O118  O     O_3   0.070689 0.390184 0.595719 -0.584356
C290  C     C_3   0.021379 0.332044 0.591859 -0.340723
H180  H     H_    0.973707 0.349655 0.580255 0.181802
H181  H     H_    0.003357 0.308148 0.610694 0.157628
H182  H     H_    0.049058 0.288278 0.580768 0.204079
O119  O     O_3   0.439130 0.874093 0.402044 -0.580395
C291  C     C_3   0.493179 0.823837 0.409322 -0.316109
H183  H     H_    0.466529 0.775697 0.418368 0.198034
H184  H     H_    0.530753 0.847470 0.423964 0.178382
H185  H     H_    0.524175 0.803851 0.392232 0.162548
O120  O     O_3   0.447291 0.115501 0.595689 -0.583889
C292  C     C_3   0.505853 0.161129 0.588559 -0.307495
H186  H     H_    0.540500 0.134605 0.573678 0.177482
H187  H     H_    0.539265 0.177524 0.605643 0.168241
H188  H     H_    0.483855 0.211807 0.579824 0.199088
O121  O     O_3   0.066480 0.613539 0.404464 -0.590969
C293  C     C_3   0.014243 0.667961 0.409201 -0.331346
H189  H     H_    0.969471 0.646962 0.421633 0.185825
H190  H     H_    0.992145 0.690368 0.390728 0.169398
H191  H     H_    0.040613 0.713729 0.419808 0.195768
O122  O     O_3   0.928851 0.609464 0.595793 -0.584121
C294  C     C_3   0.977874 0.667841 0.591966 -0.339883
H192  H     H_    0.025983 0.650341 0.580554 0.181816
H193  H     H_    0.995195 0.692260 0.610812 0.158239
H194  H     H_    0.950185 0.711169 0.580696 0.203967
O123  O     O_3   0.562125 0.108698 0.404652 -0.586406
C295  C     C_3   0.507815 0.151857 0.416359 -0.313852
H195  H     H_    0.499543 0.134540 0.436810 0.177845
H196  H     H_    0.454992 0.150823 0.405862 0.159116
H197  H     H_    0.526789 0.209501 0.416729 0.186406
O124  O     O_3   0.551747 0.873707 0.597492 -0.584397
C296  C     C_3   0.492944 0.827467 0.591121 -0.304808
H198  H     H_    0.459408 0.813623 0.608449 0.170458
H199  H     H_    0.514673 0.775523 0.583244 0.199338
H200  H     H_    0.458466 0.852111 0.575807 0.178891
O125  O     O_3   0.391581 0.918592 0.901808 -0.574257
C297  C     C_3   0.422785 0.852631 0.910518 -0.358068
H201  H     H_    0.448990 0.860478 0.929734 0.176852
H202  H     H_    0.462621 0.829457 0.896505 0.139724
H203  H     H_    0.378959 0.811554 0.913050 0.193886
O126  O     O_3   0.597423 0.910143 0.097207 -0.573744
C298  C     C_3   0.560944 0.843298 0.092917 -0.384875
H204  H     H_    0.513133 0.850431 0.080022 0.181829
H205  H     H_    0.544281 0.817522 0.111605 0.162670
H206  H     H_    0.598506 0.805238 0.082989 0.186054
O127  O     O_3   0.108878 0.429852 0.904280 -0.585764
C299  C     C_3   0.165838 0.480444 0.908015 -0.339230
H207  H     H_    0.210018 0.452891 0.918768 0.201485
H208  H     H_    0.188520 0.499618 0.889135 0.170893
H209  H     H_    0.148042 0.527959 0.919900 0.180909
O128  O     O_3   0.113005 0.563756 0.095511 -0.580356
C300  C     C_3   0.166448 0.510081 0.091478 -0.366819
H210  H     H_    0.145423 0.464072 0.079438 0.185263
H211  H     H_    0.187998 0.489020 0.110239 0.149524
H212  H     H_    0.212260 0.535365 0.080758 0.198425
O129  O     O_3   0.606729 0.073855 0.902922 -0.576484
C301  C     C_3   0.576329 0.140201 0.911626 -0.369838
H213  H     H_    0.541127 0.131308 0.928833 0.179887
H214  H     H_    0.545299 0.168538 0.896064 0.156011
H215  H     H_    0.620959 0.177172 0.917760 0.187178
O130  O     O_3   0.402572 0.086270 0.096597 -0.572202
C302  C     C_3   0.439639 0.151978 0.090970 -0.376154
H216  H     H_    0.485283 0.142747 0.077267 0.179213
H217  H     H_    0.459642 0.178993 0.109029 0.159843
H218  H     H_    0.401396 0.189988 0.081390 0.187172
O131  O     O_3   0.890072 0.570492 0.904064 -0.587285
C303  C     C_3   0.832754 0.520131 0.907425 -0.342959
H219  H     H_    0.849981 0.472264 0.919208 0.182958
H220  H     H_    0.810507 0.501499 0.888399 0.172975
H221  H     H_    0.788420 0.547687 0.918119 0.198047
O132  O     O_3   0.886351 0.434411 0.095850 -0.579926
C304  C     C_3   0.832438 0.487769 0.092164 -0.368444
H222  H     H_    0.852819 0.534101 0.080167 0.184313
H223  H     H_    0.811295 0.508386 0.111064 0.150625
H224  H     H_    0.786489 0.462335 0.081550 0.198311
C305  C     C_3   0.912872 0.388375 0.349747 -0.306687
C306  C     C_3   0.845879 0.423694 0.337743 -0.833512
H225  H     H_    0.814477 0.452255 0.353065 0.267064
H226  H     H_    0.860447 0.463378 0.322311 0.237371
H227  H     H_    0.810895 0.380742 0.328937 0.243154
H228  H     H_    0.943000 0.356095 0.335140 0.225621
H229  H     H_    0.892579 0.346569 0.363585 0.238915
C307  C     C_3   0.092407 0.393628 0.650486 -0.315818
C308  C     C_3   0.157100 0.432883 0.662873 -0.829175
H230  H     H_    0.186098 0.466035 0.648038 0.281554
H231  H     H_    0.140150 0.469094 0.679028 0.233055
H232  H     H_    0.195192 0.391816 0.670864 0.239369
H233  H     H_    0.063268 0.359685 0.664927 0.209017
H234  H     H_    0.115183 0.353262 0.636656 0.251441
C309  C     C_3   0.434563 0.872570 0.346840 -0.357353
C310  C     C_3   0.352346 0.879906 0.345886 -0.713786
H235  H     H_    0.329277 0.878244 0.365814 0.281463
H236  H     H_    0.336904 0.932168 0.336467 0.272389
H237  H     H_    0.328967 0.833942 0.334458 0.220082
H238  H     H_    0.455698 0.868610 0.326700 0.168891
H239  H     H_    0.448509 0.819529 0.355961 0.214967
C311  C     C_3   0.437320 0.123035 0.650731 -0.314963
C312  C     C_3   0.355135 0.114873 0.652177 -0.771625
H240  H     H_    0.331509 0.113187 0.632330 0.281636
H241  H     H_    0.340236 0.063857 0.662603 0.250225
H242  H     H_    0.331816 0.162078 0.662830 0.234102
H243  H     H_    0.459214 0.130430 0.670652 0.177398
H244  H     H_    0.450897 0.174530 0.640382 0.225539
C313  C     C_3   0.086034 0.613362 0.349692 -0.306913
C314  C     C_3   0.153456 0.579923 0.337305 -0.832374
H245  H     H_    0.186755 0.553121 0.352492 0.261915
H246  H     H_    0.139314 0.539241 0.322127 0.233729
H247  H     H_    0.186437 0.623739 0.328083 0.246805
H248  H     H_    0.054678 0.645153 0.335309 0.224356
H249  H     H_    0.105800 0.655469 0.363539 0.238907
C315  C     C_3   0.907317 0.606116 0.650579 -0.316981
C316  C     C_3   0.842733 0.566782 0.662985 -0.826128
H250  H     H_    0.813698 0.533596 0.648147 0.281906
H251  H     H_    0.859801 0.530585 0.679100 0.233002
H252  H     H_    0.804637 0.607806 0.671036 0.239100
H253  H     H_    0.936447 0.640159 0.665019 0.209076
H254  H     H_    0.884415 0.646398 0.636777 0.251313
C317  C     C_3   0.565263 0.120920 0.350038 -0.347512
C318  C     C_3   0.647529 0.114549 0.348608 -0.745552
H255  H     H_    0.671129 0.111938 0.368438 0.281401
H256  H     H_    0.663123 0.064689 0.337654 0.264194
H257  H     H_    0.670270 0.163104 0.338477 0.226975
H258  H     H_    0.543629 0.128959 0.330131 0.170519
H259  H     H_    0.550921 0.171509 0.360817 0.210794
C319  C     C_3   0.562151 0.873090 0.652556 -0.316473
C320  C     C_3   0.644374 0.881030 0.653879 -0.766749
H260  H     H_    0.667987 0.880154 0.634024 0.281153
H261  H     H_    0.659530 0.933207 0.663538 0.250629
H262  H     H_    0.667480 0.835069 0.665224 0.233399
H263  H     H_    0.540204 0.868126 0.672560 0.177294
H264  H     H_    0.548368 0.820445 0.642964 0.224315
C321  C     C_3   0.369606 0.949318 0.847895 -0.364355
C322  C     C_3   0.327857 0.017735 0.840028 -0.840879
H265  H     H_    0.314908 0.050989 0.857494 0.283699
H266  H     H_    0.359613 0.051640 0.826208 0.244396
H267  H     H_    0.276383 0.001490 0.830421 0.240716
H268  H     H_    0.381037 0.915900 0.830395 0.194888
H269  H     H_    0.333110 0.915939 0.860274 0.246388
C323  C     C_3   0.625001 0.940917 0.150950 -0.308978
C324  C     C_3   0.668212 0.004035 0.163002 -0.821334
H270  H     H_    0.678448 0.047260 0.148273 0.274948
H271  H     H_    0.639746 0.028182 0.179879 0.232744
H272  H     H_    0.721180 0.983350 0.170016 0.273218
H273  H     H_    0.610701 0.899715 0.165856 0.211375
H274  H     H_    0.661769 0.914943 0.136812 0.303281
C325  C     C_3   0.105274 0.406771 0.849552 -0.308768
C326  C     C_3   0.066556 0.341050 0.837381 -0.846330
H275  H     H_    0.034854 0.311351 0.852423 0.263632
H276  H     H_    0.029705 0.357850 0.821495 0.234999
H277  H     H_    0.107263 0.303093 0.829081 0.247001
H278  H     H_    0.138644 0.435840 0.834956 0.209426
H279  H     H_    0.145444 0.384257 0.863385 0.241827
C327  C     C_3   0.111896 0.586535 0.150188 -0.295295
C328  C     C_3   0.078468 0.654018 0.162937 -0.852204
H280  H     H_    0.045657 0.684693 0.148544 0.275282
H281  H     H_    0.043880 0.639096 0.179722 0.233117
H282  H     H_    0.122234 0.690561 0.170206 0.241328
H283  H     H_    0.144346 0.555007 0.164342 0.214743
H284  H     H_    0.152618 0.607363 0.136152 0.240274
C329  C     C_3   0.630281 0.044578 0.848805 -0.359710
C330  C     C_3   0.669672 0.974837 0.840741 -0.862935
H285  H     H_    0.680336 0.940240 0.858054 0.279452
H286  H     H_    0.637418 0.942865 0.826484 0.245809
H287  H     H_    0.722254 0.989407 0.831591 0.243216
H288  H     H_    0.620714 0.079187 0.831447 0.194891
H289  H     H_    0.667586 0.075708 0.861629 0.245490
C331  C     C_3   0.375564 0.059706 0.150598 -0.305059
C332  C     C_3   0.331147 0.997413 0.162563 -0.825353
H290  H     H_    0.319801 0.954641 0.147740 0.277041
H291  H     H_    0.359362 0.972375 0.179315 0.232608
H292  H     H_    0.278738 0.019194 0.169704 0.271282
H293  H     H_    0.390530 0.100542 0.165567 0.213640
H294  H     H_    0.339444 0.086657 0.136465 0.305096
C333  C     C_3   0.895818 0.594785 0.849422 -0.313663
C334  C     C_3   0.936050 0.659875 0.837479 -0.850069
H295  H     H_    0.968076 0.688769 0.852652 0.265549
H296  H     H_    0.972925 0.642509 0.821659 0.236733
H297  H     H_    0.896265 0.698730 0.829158 0.243639
H298  H     H_    0.862213 0.566468 0.834682 0.211782
H299  H     H_    0.855801 0.617935 0.863200 0.238129
C335  C     C_3   0.889727 0.410773 0.150481 -0.296267
C336  C     C_3   0.924965 0.344161 0.163149 -0.851876
H300  H     H_    0.957854 0.313932 0.148634 0.276628
H301  H     H_    0.959944 0.360007 0.179735 0.232356
H302  H     H_    0.882189 0.306877 0.170674 0.240626
H303  H     H_    0.856876 0.441620 0.164729 0.215643
H304  H     H_    0.849229 0.388933 0.136541 0.240712

loop_
_geom_bond_atom_site_label_1
_geom_bond_atom_site_label_2
_ccdc_geom_bond_type
O2    Zn2   S    
C246  H50   S    
C150  O72   S    
C331  H293  S    
C177  C191  A    
C37   C69   A    
C90   C167  A    
C250  H61   S    
C277  H143  S    
C225  C237  A    
O113  C285  S    
C145  O75   S    
C91   C166  A    
O95   C267  S    
C318  H257  S    
O92   C264  S    
C42   C58   A    
C297  H203  S    
C263  H100  S    
C181  C187  A    
C320  H262  S    
C149  O71   S    
C308  H230  S    
C279  H147  S    
C46   C315  S    
C45   C57   A    
O35   Zn13  S    
C314  H246  S    
C124  C133  A    
C33   C49   A    
C325  H279  S    
O10   Zn15  S    
O80   C252  S    
C247  H52   S    
O40   Zn1   S    
O121  C293  S    
C115  C174  A    
C299  H209  S    
C212  C232  A    
C298  H206  S    
C305  H229  S    
C325  C326  S    
C18   C21   A    
C21   O113  S    
O51   Zn5   S    
C326  H275  S    
C288  H175  S    
O102  C274  S    
O81   C253  S    
C264  H103  S    
C257  H83   S    
O4    Zn9   S    
C320  H260  S    
O112  C284  S    
C280  H151  S    
C314  H247  S    
C315  H254  S    
C313  H248  S    
C275  H137  S    
C230  C238  A    
C86   O34   A    
C301  H214  S    
C243  H41   S    
C33   C69   A    
C296  H200  S    
C260  H91   S    
C218  C234  A    
C35   C71   A    
C322  H267  S    
C70   N1    S    
C309  H239  S    
C144  O78   S    
C266  H109  S    
C1    O5    A    
C291  H183  S    
C279  H148  S    
C278  H146  S    
C281  H154  S    
C34   C50   A    
C123  C134  A    
C56   C335  S    
C287  H171  S    
C301  H215  S    
C99   H11   S    
C93   C164  A    
C217  C233  A    
C271  H123  S    
C256  H80   S    
C97   H9    S    
C30   O122  S    
C289  H179  S    
C24   C232  A    
C269  H117  S    
C4    C61   S    
C34   O126  S    
C267  H113  S    
C29   C45   A    
C321  H269  S    
C101  H13   S    
O85   C257  S    
C166  C198  A    
C37   O129  S    
C8    C57   S    
C313  H249  S    
C117  H29   S    
C302  H216  S    
C22   C230  A    
C319  H264  S    
O4    Zn13  S    
C50   C323  S    
O22   Zn15  S    
C146  O76   S    
C282  H157  S    
C302  H218  S    
C1    O9    A    
O128  C300  S    
C289  H178  S    
C38   O130  S    
C93   H5    S    
C112  H24   S    
C295  H197  S    
C212  N8    A    
O108  C280  S    
O33   Zn15  S    
C75   O45   A    
C153  C168  A    
C35   C51   A    
C244  H42   S    
O7    Zn14  S    
C249  H58   S    
C154  C167  A    
C16   C224  A    
C245  H47   S    
O94   C266  S    
C75   O23   A    
C136  O86   S    
C76   O24   A    
C255  H75   S    
C87   O41   A    
C108  C140  A    
C308  H232  S    
O49   Zn7   S    
C41   C305  S    
C222  C234  A    
C109  H21   S    
C257  H82   S    
C329  H289  S    
C144  C145  A    
O15   Zn6   S    
C125  O95   S    
C297  H202  S    
O71   C243  S    
C100  C132  A    
C101  C133  A    
C138  C151  A    
C119  H31   S    
O31   Zn9   S    
C139  C150  A    
C44   C311  S    
C120  H32   S    
C326  H277  S    
C283  H159  S    
C32   O124  S    
C31   O123  S    
C155  C187  A    
C300  H210  S    
C251  H63   S    
C85   O33   A    
C117  C172  A    
C118  C171  A    
O29   Zn11  S    
C209  N5    A    
C237  C238  A    
C142  C147  A    
C245  H45   S    
O34   Zn16  S    
C336  H301  S    
C105  C184  A    
C128  O94   S    
C265  H105  S    
C306  H226  S    
C106  C183  A    
C40   O132  S    
C256  H79   S    
O126  C298  S    
C47   C59   A    
C33   O125  S    
C208  N4    A    
O116  C288  S    
C124  O98   S    
C261  H93   S    
C79   C189  S    
C65   N6    S    
C39   C71   A    
C117  C149  A    
C288  H174  S    
C292  H186  S    
O52   Zn6   S    
C94   C163  A    
C12   C220  A    
C291  H185  S    
C23   C231  A    
C242  H36   S    
O1    Zn16  S    
C201  N1    A    
O72   C244  S    
C73   C191  S    
C252  H66   S    
C205  N1    A    
C43   C59   A    
C72   N3    S    
O46   Zn4   S    
O131  C303  S    
C287  H173  S    
C201  C221  A    
C128  C129  A    
C264  H104  S    
O70   C242  S    
C254  H73   S    
C76   O46   A    
O109  C281  S    
O120  C292  S    
C84   O38   A    
C154  C186  A    
C205  C217  A    
C216  C228  A    
C285  H166  S    
C116  C173  A    
C12   O104  S    
C156  C165  A    
C28   C68   A    
C318  H256  S    
C228  C240  A    
C114  H26   S    
O106  C278  S    
C120  C169  A    
C132  O90   S    
C88   C198  S    
C87   O35   A    
O96   C268  S    
C265  H107  S    
C107  H19   S    
C329  C330  S    
C323  H274  S    
C201  O53   S    
O44   Zn5   S    
C85   O43   A    
O20   Zn1   S    
C86   C196  S    
C203  O55   S    
C100  C157  A    
O41   Zn4   S    
C209  O61   S    
C290  H180  S    
C42   C307  S    
C259  H87   S    
C285  H167  S    
C55   C63   A    
C244  H44   S    
C56   C64   A    
C152  O70   S    
C104  C153  A    
C233  C234  A    
C36   C52   A    
C255  H77   S    
C111  C143  A    
C208  O60   S    
C258  H86   S    
C37   C53   A    
O4    Zn8   S    
C270  H122  S    
C129  O91   S    
C335  H304  S    
C268  H114  S    
C46   C58   A    
C68   N7    S    
C304  H223  S    
C284  H162  S    
C271  H125  S    
C243  H40   S    
C316  H250  S    
C26   O118  S    
C294  H193  S    
C327  H284  S    
C77   O25   A    
O32   Zn10  S    
C258  H84   S    
C26   C66   A    
C283  H161  S    
C219  C235  A    
C22   O114  S    
C140  O82   S    
C300  H212  S    
C9    C14   A    
O90   C262  S    
C315  C316  S    
C328  H282  S    
O50   Zn8   S    
O117  C289  S    
C80   O50   A    
O13   Zn4   S    
C110  C179  A    
C310  H235  S    
C83   C193  S    
C284  H164  S    
C330  H286  S    
C19   O111  S    
C169  C184  A    
C13   O105  S    
O93   C265  S    
C95   C127  A    
C113  H25   S    
C178  C192  A    
C103  C154  A    
C254  H72   S    
C179  C189  A    
C20   C23   A    
C235  C236  A    
C242  H38   S    
C267  H112  S    
C264  H102  S    
O78   C250  S    
O17   Zn8   S    
C161  C193  A    
C182  C188  A    
C288  H176  S    
C272  H127  S    
C157  C164  A    
C309  H238  S    
C307  H234  S    
C158  C163  A    
O2    Zn6   S    
C29   C65   A    
C73   O47   A    
C259  H88   S    
O118  C290  S    
C252  H68   S    
C318  H255  S    
C90   H2    S    
C73   O21   A    
C273  H130  S    
C330  H287  S    
C39   O131  S    
O99   C271  S    
C1    C64   S    
C11   C219  A    
C127  O93   S    
C248  H56   S    
C2    C63   S    
C26   C42   A    
C295  H196  S    
C3    C62   S    
C9    C217  A    
C246  H49   S    
C213  O65   S    
C281  H153  S    
C135  O85   S    
C282  H158  S    
C331  H294  S    
C104  C136  A    
C5    C60   S    
C148  O74   S    
C6    C59   S    
C30   C46   A    
C13   C221  A    
O76   C248  S    
C116  H28   S    
O2    Zn15  S    
C147  O73   S    
C286  H170  S    
C320  H261  S    
O47   Zn1   S    
C138  O84   S    
C20   C228  A    
C205  O57   S    
C2    O10   A    
C268  H115  S    
O18   Zn7   S    
C298  H205  S    
C109  C180  A    
C305  H228  S    
C10   O102  S    
C259  H89   S    
C77   C187  S    
O24   Zn9   S    
C276  H138  S    
C27   O119  S    
C175  C193  A    
C215  C227  A    
C107  C139  A    
C319  C320  S    
C332  H292  S    
C213  C225  A    
C105  C137  A    
O111  C283  S    
C212  O64   S    
O87   C259  S    
C55   C333  S    
C204  N4    A    
C280  H150  S    
C324  H272  S    
C289  H177  S    
C167  C199  A    
C294  H192  S    
C109  C141  A    
C86   O44   A    
C140  C149  A    
C270  H120  S    
C204  O56   S    
O42   Zn3   S    
C296  H199  S    
C281  H155  S    
C143  C146  A    
C85   C195  S    
C38   C70   A    
O1    Zn1   S    
C241  H34   S    
C103  H15   S    
O3    Zn3   S    
C239  C240  A    
C16   O108  S    
O25   Zn12  S    
C291  H184  S    
C293  H189  S    
C76   C186  S    
C328  H280  S    
C278  H145  S    
C207  O59   S    
O39   Zn2   S    
O3    Zn7   S    
C315  H253  S    
C211  C231  A    
C108  C181  A    
C278  H144  S    
C310  H237  S    
C14   C222  A    
O104  C276  S    
C287  H172  S    
C276  H140  S    
C92   C124  A    
C126  O96   S    
C260  H92   S    
C253  H69   S    
C269  H118  S    
C333  C334  S    
C115  C147  A    
C316  H252  S    
O84   C256  S    
C96   C128  A    
C66   N5    S    
C277  H141  S    
C304  H222  S    
C113  C145  A    
C321  H268  S    
C118  C150  A    
C5    O17   A    
C241  H33   S    
C29   O121  S    
C92   C165  A    
C202  N2    A    
C324  H271  S    
C39   C55   A    
C115  H27   S    
C334  H295  S    
C40   C56   A    
O14   Zn3   S    
C216  N8    A    
C211  O63   S    
C336  H300  S    
C302  H217  S    
C137  C152  A    
C324  H270  S    
C40   C72   A    
C34   C70   A    
O21   Zn16  S    
C81   O29   A    
C169  C199  A    
C312  H242  S    
C221  C233  A    
C269  H119  S    
C156  C188  A    
C311  C312  S    
C83   O31   A    
O26   Zn11  S    
O23   Zn10  S    
C31   C47   A    
O124  C296  S    
C250  H62   S    
C32   C48   A    
C122  O100  S    
C251  H65   S    
C290  H181  S    
C317  H259  S    
C263  H99   S    
C255  H76   S    
C139  O81   S    
C175  C178  A    
C308  H231  S    
C213  N5    A    
C49   C61   A    
C314  H245  S    
C107  C182  A    
C329  H288  S    
C97   C160  A    
C159  C191  A    
O123  C295  S    
C310  H236  S    
C51   C63   A    
C247  H51   S    
C160  C192  A    
C271  H124  S    
C52   C64   A    
C116  C148  A    
C207  N3    A    
C8    O16   A    
C173  C180  A    
O110  C282  S    
C260  H90   S    
C335  C336  S    
C216  O68   S    
O5    Zn12  S    
C102  H14   S    
C251  H64   S    
O107  C279  S    
C4    O12   A    
C248  H54   S    
C321  C322  S    
C165  C197  A    
C11   C16   A    
C184  C186  A    
C38   C54   A    
C12   C15   A    
C163  C195  A    
C280  H152  S    
C21   C229  A    
C98   C130  A    
C164  C196  A    
C71   N4    S    
C210  C230  A    
C159  C162  A    
C203  C223  A    
C210  N6    A    
C265  H106  S    
C94   H6    S    
C306  H227  S    
C301  H213  S    
C286  H168  S    
C23   O115  S    
C113  C176  A    
C95   C162  A    
C299  H208  S    
C114  C175  A    
C123  O97   S    
C261  H94   S    
O8    Zn13  S    
C24   O116  S    
O130  C302  S    
C151  O69   S    
C266  H110  S    
C87   C197  S    
C25   C41   A    
C88   O42   A    
C292  H188  S    
C307  C308  S    
C98   H10   S    
O73   C245  S    
C105  H17   S    
O115  C287  S    
C168  C200  A    
C274  H133  S    
C210  O62   S    
C141  O79   S    
C303  H221  S    
C51   C325  S    
C275  H136  S    
O45   Zn3   S    
C81   C199  S    
O69   C241  S    
O75   C247  S    
O74   C246  S    
C99   C131  A    
C261  H95   S    
C54   C62   A    
C17   C22   A    
C101  C156  A    
O4    Zn4   S    
C81   O39   A    
C153  C185  A    
C262  H97   S    
C19   C24   A    
C327  C328  S    
C41   C57   A    
C309  C310  S    
C133  O87   S    
C180  C190  A    
C317  H258  S    
C74   O48   A    
C3    O7    A    
C89   C121  A    
C319  H263  S    
C44   C60   A    
C334  H297  S    
C83   O37   A    
C74   O22   A    
C121  C136  A    
C15   C223  A    
C322  H265  S    
C93   C125  A    
C122  C135  A    
C106  C138  A    
C31   C67   A    
C312  H240  S    
C27   C43   A    
C333  H299  S    
C290  H182  S    
O88   C260  S    
C82   O40   A    
C45   C313  S    
C325  H278  S    
C250  H60   S    
C244  H43   S    
C25   C65   A    
C249  H57   S    
C176  C194  A    
C96   H8    S    
C263  H101  S    
C283  H160  S    
C112  C177  A    
C258  H85   S    
O127  C299  S    
C208  C220  A    
C270  H121  S    
C25   O117  S    
C257  H81   S    
C226  C238  A    
C170  C183  A    
C313  C314  S    
C202  C222  A    
C171  C182  A    
C245  H46   S    
C137  O83   S    
C247  H53   S    
C3    O11   A    
C262  H96   S    
O11   Zn10  S    
C277  H142  S    
C170  C200  A    
O89   C261  S    
C246  H48   S    
C89   C168  A    
C317  C318  S    
C305  C306  S    
C206  C218  A    
C69   N2    S    
O97   C269  S    
C4    O8    A    
C253  H70   S    
C121  O99   S    
C77   O51   A    
O30   Zn12  S    
C28   O120  S    
C241  H35   S    
C5    O13   A    
C300  H211  S    
O2    Zn11  S    
C328  H281  S    
C155  C166  A    
C174  C196  A    
C88   O36   A    
O19   Zn2   S    
C323  C324  S    
C274  H132  S    
C231  C239  A    
C202  O54   S    
C336  H302  S    
C110  C142  A    
C20   O112  S    
C103  C135  A    
C306  H225  S    
C19   C227  A    
C18   C226  A    
C141  C148  A    
O16   Zn5   S    
O122  C294  S    
C18   O110  S    
C326  H276  S    
O100  C272  S    
C242  H37   S    
C249  H59   S    
C47   C317  S    
O6    Zn11  S    
C173  C195  A    
C111  C178  A    
C28   C44   A    
O103  C275  S    
C299  H207  S    
C215  O67   S    
C15   O107  S    
C272  H126  S    
C7    C58   S    
C211  N7    A    
O43   Zn6   S    
C279  H149  S    
C32   C68   A    
C95   H7    S    
C9    O101  S    
C130  O92   S    
O86   C258  S    
C227  C239  A    
C252  H67   S    
C215  N7    A    
C204  C224  A    
C90   C122  A    
C273  H131  S    
C75   C185  S    
O9    Zn16  S    
C17   C225  A    
C172  C181  A    
C248  H55   S    
C36   O128  S    
C48   C60   A    
C254  H74   S    
C79   O27   A    
C94   C126  A    
C119  C151  A    
C333  H298  S    
C311  H244  S    
C120  C152  A    
C292  H187  S    
C53   C329  S    
C285  H165  S    
C206  N2    A    
C8    O20   A    
C143  O77   S    
C274  H134  S    
C27   C67   A    
C275  H135  S    
C114  C146  A    
C214  O66   S    
C6    O18   A    
C262  H98   S    
C84   C194  S    
O91   C263  S    
C286  H169  S    
C7    O15   A    
O114  C286  S    
C331  C332  S    
O3    Zn14  S    
C203  N3    A    
C78   O26   A    
O38   Zn7   S    
O12   Zn9   S    
C79   O49   A    
C323  H273  S    
C322  H266  S    
O48   Zn2   S    
C102  C134  A    
C82   C200  S    
O98   C270  S    
C14   O106  S    
C183  C185  A    
C82   O30   A    
O79   C251  S    
C43   C309  S    
C266  H108  S    
C162  C194  A    
O105  C277  S    
C209  C229  A    
C172  C198  A    
C134  O88   S    
C332  H291  S    
C111  H23   S    
C30   C66   A    
C223  C235  A    
C74   C192  S    
C52   C327  S    
O1    Zn5   S    
C176  C177  A    
C91   H3    S    
O28   Zn13  S    
C335  H303  S    
C214  N6    A    
C50   C62   A    
C304  H224  S    
C89   H1    S    
C268  H116  S    
O37   Zn8   S    
C78   C188  S    
C108  H20   S    
C17   O109  S    
C84   O32   A    
O36   Zn14  S    
C243  H39   S    
C10   C218  A    
C106  H18   S    
C296  H198  S    
C332  H290  S    
C294  H194  S    
C327  H283  S    
O132  C304  S    
C158  C190  A    
O119  C291  S    
C303  H219  S    
C311  H243  S    
C273  H129  S    
C80   C190  S    
C53   C61   A    
C220  C236  A    
C100  H12   S    
C10   C13   A    
C131  O89   S    
C293  H190  S    
C6    O14   A    
O1    Zn12  S    
C297  H201  S    
C80   O28   A    
C298  H204  S    
C7    O19   A    
C284  H163  S    
C206  O58   S    
O3    Zn10  S    
C207  C219  A    
C104  H16   S    
C2    O6    A    
C54   C331  S    
C160  C161  A    
C112  C144  A    
C303  H220  S    
C330  H285  S    
O129  C301  S    
C127  C130  A    
C97   C129  A    
C171  C197  A    
C282  H156  S    
C142  O80   S    
C92   H4    S    
C125  C132  A    
C256  H78   S    
O125  C297  S    
C48   C319  S    
C126  C131  A    
C102  C155  A    
C11   O103  S    
C267  H111  S    
C316  H251  S    
C78   O52   A    
C96   C161  A    
O77   C249  S    
C49   C321  S    
C214  C226  A    
C272  H128  S    
C157  C189  A    
C110  H22   S    
C293  H191  S    
C307  H233  S    
C224  C236  A    
C119  C170  A    
O83   C255  S    
C36   C72   A    
C276  H139  S    
C98   C159  A    
C334  H296  S    
C99   C158  A    
C232  C240  A    
O27   Zn14  S    
O82   C254  S    
C91   C123  A    
C118  H30   S    
C67   N8    S    
O101  C273  S    
C229  C237  A    
C174  C179  A    
C35   O127  S    
C295  H195  S    
C312  H241  S    
C253  H71   S    
