data_mof_unit_22913.cif
_audit_creation_date              2012-12-11T14:10:42-0500
_audit_creation_method            fapswitch 2.2
_symmetry_space_group_name_H-M    P1
_symmetry_Int_Tables_number       1
_space_group_crystal_system       triclinic
_cell_length_a                    20.140098
_cell_length_b                    17.06964
_cell_length_c                    15.741337
_cell_angle_alpha                 90.056803
_cell_angle_beta                  50.863131
_cell_angle_gamma                 90.073418
_cell_volume                      4197.47018416

loop_
_atom_site_label
_atom_site_type_symbol
_atom_type_description
_atom_site_fract_x
_atom_site_fract_y
_atom_site_fract_z
_atom_type_partial_charge
C1    C     C_R   0.368565 0.196300 0.007848 0.346680
C2    C     C_R   0.663560 0.827386 0.943357 0.462129
C3    C     C_R   0.627398 0.197854 0.997742 0.414098
C4    C     C_R   0.334874 0.829389 0.059212 0.413467
C5    C     C_R   0.868676 0.696344 0.007692 0.346739
C6    C     C_R   0.163537 0.327360 0.943388 0.461997
C7    C     C_R   0.127471 0.697830 0.997642 0.414034
C8    C     C_R   0.834859 0.329406 0.059230 0.413580
C9    C     C_3   0.205311 0.194463 0.587649 -0.266114
C10   C     C_3   0.684087 0.745380 0.443919 -0.252554
C11   C     C_3   0.800790 0.190413 0.408517 -0.269824
C12   C     C_3   0.311925 0.749251 0.558382 -0.257656
C13   C     C_3   0.704734 0.694039 0.588043 -0.266219
C14   C     C_3   0.183597 0.244945 0.444209 -0.251995
C15   C     C_3   0.300209 0.690791 0.408880 -0.269901
C16   C     C_3   0.811432 0.249645 0.558629 -0.258249
C17   C     C_2   0.228325 0.737454 0.023831 0.318675
C18   C     C_2   0.711562 0.310438 0.064782 0.499178
C19   C     C_2   0.766351 0.734712 0.983146 0.412459
C20   C     C_2   0.285399 0.306591 0.939315 0.399526
C21   C     C_2   0.728204 0.237481 0.024004 0.318266
C22   C     C_2   0.211615 0.810380 0.064713 0.499142
C23   C     C_2   0.266169 0.234661 0.983402 0.412924
C24   C     C_2   0.785485 0.806685 0.939199 0.399548
C25   C     C_R   0.405779 0.799807 0.207189 0.042165
C26   C     C_R   0.653170 0.170177 0.776026 0.001332
C27   C     C_R   0.594950 0.799923 0.792205 0.036366
C28   C     C_R   0.346523 0.169632 0.224401 -0.000973
C29   C     C_R   0.905819 0.299799 0.207150 0.042566
C30   C     C_R   0.153196 0.670142 0.776021 0.001443
C31   C     C_R   0.094983 0.299930 0.792169 0.035890
C32   C     C_R   0.846546 0.669664 0.224388 -0.001054
C33   C     C_R   0.327729 0.912769 0.958295 0.485971
C34   C     C_R   0.639816 0.112749 0.092339 0.618694
C35   C     C_R   0.671658 0.912193 0.042675 0.539943
C36   C     C_R   0.356199 0.111293 0.912682 0.578440
C37   C     C_R   0.827718 0.412788 0.958317 0.485947
C38   C     C_R   0.139907 0.612717 0.092225 0.618541
C39   C     C_R   0.171644 0.412163 0.042706 0.539981
C40   C     C_R   0.856333 0.611344 0.912505 0.578675
C41   C     C_R   0.355913 0.078373 0.317957 -0.042250
C42   C     C_R   0.594392 0.892723 0.695083 -0.154222
C43   C     C_R   0.643987 0.078794 0.681994 -0.057282
C44   C     C_R   0.406213 0.892596 0.304496 -0.122455
C45   C     C_R   0.855913 0.578387 0.317958 -0.042143
C46   C     C_R   0.094432 0.392743 0.695053 -0.153931
C47   C     C_R   0.143993 0.578778 0.681998 -0.057428
C48   C     C_R   0.906250 0.392580 0.304469 -0.122629
C49   C     C_R   0.331848 0.184510 0.960940 -0.121306
C50   C     C_R   0.716206 0.853892 0.964024 -0.283641
C51   C     C_R   0.660561 0.188127 0.049517 -0.249596
C52   C     C_R   0.282087 0.856562 0.039004 -0.162654
C53   C     C_R   0.832087 0.684610 0.960611 -0.120875
C54   C     C_R   0.216181 0.353851 0.964062 -0.283572
C55   C     C_R   0.160713 0.688069 0.049313 -0.249905
C56   C     C_R   0.782073 0.356586 0.039025 -0.162755
C57   C     C_R   0.393477 0.814828 0.301575 0.111688
C58   C     C_R   0.694659 0.137190 0.674013 0.076450
C59   C     C_R   0.607493 0.815037 0.697681 0.128128
C60   C     C_R   0.304799 0.136135 0.326122 0.059475
C61   C     C_R   0.893530 0.314812 0.301524 0.111688
C62   C     C_R   0.194706 0.637124 0.674019 0.076429
C63   C     C_R   0.107542 0.315057 0.697631 0.128076
C64   C     C_R   0.804836 0.636195 0.326121 0.059521
C65   C     C_3   0.170154 0.143869 0.541879 -0.248773
C66   C     C_3   0.719251 0.794867 0.490108 -0.263375
C67   C     C_3   0.834314 0.145143 0.460196 -0.242433
C68   C     C_3   0.278100 0.794337 0.507528 -0.260610
C69   C     C_3   0.669686 0.643950 0.541726 -0.248273
C70   C     C_3   0.218863 0.294949 0.489870 -0.263743
C71   C     C_3   0.333895 0.645022 0.460012 -0.243002
C72   C     C_3   0.777763 0.294223 0.507249 -0.260192
C73   C     C_3   0.612431 0.713491 0.560056 0.619814
C74   C     C_3   0.275431 0.227045 0.473015 0.578216
C75   C     C_3   0.387188 0.717645 0.443889 0.622841
C76   C     C_3   0.726139 0.222617 0.521278 0.576333
C77   C     C_3   0.112396 0.213016 0.560508 0.619794
C78   C     C_3   0.775315 0.726584 0.473560 0.578179
C79   C     C_3   0.887113 0.218115 0.444337 0.622683
C80   C     C_3   0.225983 0.723069 0.521830 0.576426
C81   C     C_3   0.647790 0.762282 0.604928 -0.061609
C82   C     C_3   0.241049 0.177214 0.427425 -0.061485
C83   C     C_3   0.353171 0.762100 0.394300 -0.055385
C84   C     C_3   0.758903 0.178071 0.572643 -0.064378
C85   C     C_3   0.147858 0.262316 0.604852 -0.061740
C86   C     C_3   0.741043 0.677254 0.427434 -0.061348
C87   C     C_3   0.853251 0.262070 0.394220 -0.055171
C88   C     C_3   0.258908 0.678029 0.572659 -0.064489
H1    H     H_    0.418467 0.742041 0.172035 0.182094
H2    H     H_    0.676182 0.219193 0.793415 0.161702
H3    H     H_    0.582087 0.742076 0.827016 0.179904
H4    H     H_    0.323300 0.218921 0.208080 0.166118
H5    H     H_    0.918521 0.242042 0.171968 0.181923
H6    H     H_    0.176222 0.719164 0.793381 0.161804
H7    H     H_    0.082140 0.242075 0.826946 0.180130
H8    H     H_    0.823338 0.718941 0.208026 0.165990
H9    H     H_    0.344406 0.043989 0.383693 0.119772
H10   H     H_    0.590019 0.922112 0.637926 0.128894
H11   H     H_    0.655644 0.044382 0.616125 0.122760
H12   H     H_    0.410504 0.922077 0.361739 0.141878
H13   H     H_    0.844389 0.543990 0.383696 0.119966
H14   H     H_    0.090053 0.422138 0.637906 0.128603
H15   H     H_    0.155637 0.544382 0.616127 0.122551
H16   H     H_    0.910534 0.422057 0.361721 0.142169
H17   H     H_    0.150853 0.081349 0.560715 0.201310
H18   H     H_    0.740217 0.856948 0.469332 0.189894
H19   H     H_    0.856778 0.083487 0.443451 0.203961
H20   H     H_    0.254616 0.855735 0.526581 0.189431
H21   H     H_    0.650040 0.581502 0.560391 0.201367
H22   H     H_    0.239487 0.357099 0.468915 0.189814
H23   H     H_    0.356048 0.583265 0.443071 0.203924
H24   H     H_    0.753971 0.355522 0.526103 0.189505
H25   H     H_    0.214657 0.174551 0.646577 0.221816
H26   H     H_    0.675627 0.765103 0.384097 0.212070
H27   H     H_    0.796009 0.166814 0.346801 0.216487
H28   H     H_    0.316903 0.772082 0.620236 0.208433
H29   H     H_    0.713637 0.673766 0.647261 0.221673
H30   H     H_    0.174721 0.264293 0.384646 0.212625
H31   H     H_    0.294979 0.667520 0.347426 0.216662
H32   H     H_    0.815989 0.272823 0.620713 0.207996
N1    N     N_R   0.408680 0.130810 0.995780 -0.118817
N2    N     N_R   0.591320 0.869190 0.004220 -0.127645
N3    N     N_R   0.591320 0.130810 0.004220 -0.135998
N4    N     N_R   0.408680 0.869190 0.995780 -0.110595
N5    N     N_R   0.908680 0.630810 0.995780 -0.118852
N6    N     N_R   0.091320 0.369190 0.004220 -0.127637
N7    N     N_R   0.091320 0.630810 0.004220 -0.135997
N8    N     N_R   0.908680 0.369190 0.995780 -0.110607
N9    N     N_R   0.421410 0.867210 0.153620 -0.066367
N10   N     N_R   0.578590 0.132790 0.846380 -0.039876
N11   N     N_R   0.578590 0.867210 0.846380 -0.062899
N12   N     N_R   0.421410 0.132790 0.153620 -0.044230
N13   N     N_R   0.921410 0.367210 0.153620 -0.066408
N14   N     N_R   0.078590 0.632790 0.846380 -0.039825
N15   N     N_R   0.078590 0.367210 0.846380 -0.062865
N16   N     N_R   0.921410 0.632790 0.153620 -0.044290
N17   N     N_R   0.403840 0.921910 0.935760 -0.149408
N18   N     N_R   0.596160 0.078090 0.064240 -0.119875
N19   N     N_R   0.596160 0.921910 0.064240 -0.103938
N20   N     N_R   0.403840 0.078090 0.935760 -0.162576
N21   N     N_R   0.903840 0.421910 0.935760 -0.149420
N22   N     N_R   0.096160 0.578090 0.064240 -0.119875
N23   N     N_R   0.096160 0.421910 0.064240 -0.103917
N24   N     N_R   0.903840 0.578090 0.935760 -0.162588
N25   N     N_R   0.426250 0.076100 0.213650 -0.056662
N26   N     N_R   0.573750 0.923900 0.786350 -0.065221
N27   N     N_R   0.573750 0.076100 0.786350 -0.063799
N28   N     N_R   0.426250 0.923900 0.213650 -0.068422
N29   N     N_R   0.926250 0.576100 0.213650 -0.056626
N30   N     N_R   0.073750 0.423900 0.786350 -0.065213
N31   N     N_R   0.073750 0.576100 0.786350 -0.063840
N32   N     N_R   0.926250 0.423900 0.213650 -0.068458
Ni1   Ni    Ni4+2 0.500000 0.131570 0.000000 0.335185
Ni2   Ni    Ni4+2 0.500000 0.868430 0.000000 0.278801
Ni3   Ni    Ni4+2 1.000000 0.631570 0.000000 0.335166
Ni4   Ni    Ni4+2 1.000000 0.368430 0.000000 0.278809
Ni5   Ni    Ni4+2 0.488900 0.000000 0.862310 0.201431
Ni6   Ni    Ni4+2 0.511100 1.000000 0.137690 0.298124
Ni7   Ni    Ni4+2 0.988900 0.500000 0.862310 0.201347
Ni8   Ni    Ni4+2 0.011100 0.500000 0.137690 0.298257
Cl1   Cl    Cl    0.395704 0.288983 0.027761 -0.521618
Cl2   Cl    Cl    0.679713 0.738133 0.876449 -0.567903
Cl3   Cl    Cl    0.599380 0.289270 0.976485 -0.475196
Cl4   Cl    Cl    0.316037 0.741229 0.129376 -0.633177
Cl5   Cl    Cl    0.895848 0.788992 0.027635 -0.521539
Cl6   Cl    Cl    0.179603 0.238060 0.876616 -0.568180
Cl7   Cl    Cl    0.099478 0.789267 0.976398 -0.475176
Cl8   Cl    Cl    0.815953 0.241290 0.129512 -0.632736
O1    O     O_3   0.309542 0.935384 0.891462 -0.643932
H33   H     H_    0.365400 0.940351 0.817195 0.325315
O2    O     O_3   0.640710 0.085978 0.173901 -0.642649
H34   H     H_    0.669917 0.126064 0.185558 0.367059
O3    O     O_3   0.692503 0.945264 0.102574 -0.651226
H35   H     H_    0.750437 0.926634 0.071532 0.362645
O4    O     O_3   0.359325 0.091805 0.825688 -0.632757
H36   H     H_    0.411796 0.060038 0.775605 0.309615
O5    O     O_3   0.809502 0.435450 0.891530 -0.643983
H37   H     H_    0.865347 0.440395 0.817246 0.325263
O6    O     O_3   0.140847 0.585956 0.173752 -0.642549
H38   H     H_    0.170120 0.626026 0.185326 0.367032
O7    O     O_3   0.192461 0.445185 0.102658 -0.651133
H39   H     H_    0.250382 0.426533 0.071639 0.362637
O8    O     O_3   0.859554 0.591839 0.825443 -0.632794
H40   H     H_    0.911985 0.559997 0.775474 0.309451
Cl9   Cl    Cl    0.502380 0.706873 0.620792 -0.498914
Cl10  Cl    Cl    0.384569 0.238779 0.415948 -0.498105
Cl11  Cl    Cl    0.496108 0.716079 0.388854 -0.501222
Cl12  Cl    Cl    0.618452 0.228475 0.570910 -0.505624
Cl13  Cl    Cl    0.002264 0.205760 0.621827 -0.497576
Cl14  Cl    Cl    0.884346 0.737742 0.417200 -0.498328
Cl15  Cl    Cl    0.995895 0.217170 0.389908 -0.502633
Cl16  Cl    Cl    0.118133 0.729495 0.572184 -0.504996
Cl17  Cl    Cl    0.332889 0.705029 0.912936 -0.523712
Cl18  Cl    Cl    0.607038 0.343884 0.171701 -0.424460
Cl19  Cl    Cl    0.660889 0.705393 0.095656 -0.520356
Cl20  Cl    Cl    0.390768 0.336294 0.829182 -0.431216
Cl21  Cl    Cl    0.832744 0.204946 0.913206 -0.523213
Cl22  Cl    Cl    0.107065 0.843711 0.171742 -0.425319
Cl23  Cl    Cl    0.160672 0.205493 0.096008 -0.520938
Cl24  Cl    Cl    0.890822 0.836547 0.829188 -0.430407

loop_
_geom_bond_atom_site_label_1
_geom_bond_atom_site_label_2
_ccdc_geom_bond_type
C68   C80   S    
C78   C86   S    
C29   N13   A    
O2    H34   S    
C72   H24   S    
C19   Cl19  S    
N4    Ni2   S    
C18   Cl18  S    
N13   Ni4   S    
C27   N11   A    
O1    H33   S    
C17   Cl17  S    
C78   Cl14  S    
C8    N8    A    
C7    C55   A    
C72   C76   S    
C25   N9    A    
C16   C72   S    
C76   C84   S    
C47   C62   A    
C6    Cl6   S    
N16   N29   A    
C48   C61   A    
N23   Ni8   S    
N26   Ni5   S    
O3    H35   S    
C33   C52   A    
C12   C68   S    
N3    N18   A    
C34   C51   A    
N1    Ni1   S    
C4    C52   A    
N12   N25   A    
N1    N20   A    
C5    C53   A    
C6    C54   A    
N2    N19   A    
C11   C76   S    
C16   H32   S    
N9    Ni2   S    
C10   C73   S    
C12   H28   S    
N32   Ni8   S    
C23   C49   S    
C39   C54   A    
N5    N24   A    
C26   C58   A    
C48   H16   S    
C13   C81   S    
N6    N23   A    
C16   C84   S    
C4    N4    A    
N11   N26   A    
C14   C77   S    
C64   C86   S    
N9    N28   A    
C61   C87   S    
C43   C58   A    
C9    C85   S    
C37   C56   A    
C69   H21   S    
N21   Ni7   S    
C38   C55   A    
N14   Ni3   S    
N19   Ni6   S    
C11   C87   S    
C30   N14   A    
C71   H23   S    
C70   C74   S    
C4    Cl4   S    
C27   H3    S    
C5    Cl5   S    
C11   H27   S    
N8    N21   A    
C17   C55   S    
C26   N10   A    
C3    Cl3   S    
C40   O8    S    
C35   N19   A    
C19   C53   S    
C2    N2    A    
C33   O1    S    
C67   C84   S    
C79   Cl15  S    
C79   C87   S    
C63   C85   S    
C80   Cl16  S    
C8    C56   A    
C14   C70   S    
N13   N32   A    
C25   C57   A    
C66   H18   S    
C73   C81   S    
C3    N3    A    
C1    N1    A    
C10   C66   S    
C24   C50   S    
C66   C78   S    
C29   C61   A    
C71   C75   S    
C8    Cl8   S    
N30   Ni7   S    
C12   C88   S    
C35   O3    S    
C75   C83   S    
C31   C63   A    
N4    N17   A    
C47   H15   S    
C6    N6    A    
C70   H22   S    
C10   H26   S    
C33   N17   A    
C32   N16   A    
N16   Ni3   S    
C3    C51   A    
C45   H13   S    
C15   C83   S    
C14   H30   S    
O7    H39   S    
C62   C88   S    
C34   N18   A    
N15   Ni4   S    
O6    H38   S    
C28   N12   A    
N7    N22   A    
N31   Ni7   S    
O8    H40   S    
C36   C49   A    
C58   C84   S    
N20   Ni5   S    
C65   C77   S    
C46   H14   S    
N18   Ni6   S    
C73   Cl9   S    
C15   C80   S    
C20   C23   D    
C44   C57   A    
C35   C50   A    
C57   C83   S    
N12   Ni1   S    
C67   C79   S    
C28   H4    S    
N28   Ni6   S    
N24   Ni7   S    
C69   C73   S    
C36   N20   A    
C32   C64   A    
C39   O7    S    
C28   C60   A    
C37   N21   A    
C20   C54   S    
C46   N30   A    
C39   N23   A    
C40   C53   A    
C30   C62   A    
C2    C50   A    
C41   H9    S    
C9    C74   S    
C11   C67   S    
N7    Ni3   S    
C23   Cl23  S    
N27   Ni5   S    
C21   C51   S    
C72   C87   S    
C15   C71   S    
C22   C52   S    
N3    Ni1   S    
C7    Cl7   S    
C13   C78   S    
C10   C86   S    
C38   O6    S    
C32   H8    S    
N10   N27   A    
C68   C83   S    
C22   Cl22  S    
N11   Ni2   S    
C75   Cl11  S    
C59   C81   S    
C41   C60   A    
N22   Ni8   S    
C42   H10   S    
C76   Cl12  S    
C42   C59   A    
C13   H29   S    
C65   H17   S    
C18   C56   S    
C26   H2    S    
N15   N30   A    
C37   O5    S    
C45   C64   A    
C25   H1    S    
C17   C22   D    
C69   C86   S    
N17   Ni5   S    
C46   C63   A    
C47   N31   A    
C16   C79   S    
C9    H25   S    
C60   C82   S    
C40   N24   A    
C19   C24   D    
C77   Cl13  S    
C30   H6    S    
O4    H36   S    
C27   C59   A    
C43   H11   S    
C66   C81   S    
C29   H5    S    
N25   Ni6   S    
C44   H12   S    
C67   H19   S    
C65   C82   S    
C13   C69   S    
C77   C85   S    
C31   H7    S    
N14   N31   A    
C21   Cl21  S    
C44   N28   A    
C15   H31   S    
C38   N22   A    
N10   Ni1   S    
C45   N29   A    
C48   N32   A    
N2    Ni2   S    
N29   Ni8   S    
C9    C65   S    
C31   N15   A    
C43   N27   A    
N8    Ni4   S    
C1    Cl1   S    
C71   C88   S    
C41   N25   A    
C24   Cl24  S    
C36   O4    S    
C80   C88   S    
O5    H37   S    
C12   C75   S    
C5    N5    A    
C14   C82   S    
C18   C21   D    
C68   H20   S    
C7    N7    A    
C70   C85   S    
C1    C49   A    
C20   Cl20  S    
C74   C82   S    
C34   O2    S    
N5    Ni3   S    
N6    Ni4   S    
C2    Cl2   S    
C74   Cl10  S    
C42   N26   A    
