data_mof_unit_8638.cif
_audit_creation_date              2012-12-10T18:07:40-0500
_audit_creation_method            fapswitch 2.2
_symmetry_space_group_name_H-M    P1
_symmetry_Int_Tables_number       1
_space_group_crystal_system       triclinic
_cell_length_a                    11.48645
_cell_length_b                    12.826876
_cell_length_c                    13.207701
_cell_angle_alpha                 82.850573
_cell_angle_beta                  95.066096
_cell_angle_gamma                 101.825086
_cell_volume                      1885.89829392

loop_
_atom_site_label
_atom_site_type_symbol
_atom_type_description
_atom_site_fract_x
_atom_site_fract_y
_atom_site_fract_z
_atom_type_partial_charge
Br1   Br    Br    0.407031 0.925656 0.185366 -0.423380
Br2   Br    Br    0.213060 0.053276 0.236958 -0.320289
Br3   Br    Br    0.323479 0.728705 0.355730 -0.414410
Br4   Br    Br    0.340329 0.186264 0.744578 -0.364813
Br5   Br    Br    0.270956 0.298237 0.296173 -0.382894
C1    C     C_R   0.473407 0.440964 0.688775 0.865316
C2    C     C_R   0.455184 0.671037 0.892065 -0.147420
C3    C     C_R   0.426556 0.590741 0.828170 -0.103551
C4    C     C_R   0.717428 0.501096 0.500731 0.841909
C5    C     C_R   0.533448 0.517822 0.135683 0.468535
C6    C     C_R   0.537478 0.701004 0.163589 -0.316363
C7    C     C_R   0.436101 0.407124 0.794137 -0.286147
C8    C     C_R   0.352724 0.099070 0.326417 0.234200
C9    C     C_R   0.645314 0.797905 0.631356 0.524423
C10   C     C_R   0.694214 0.904473 0.647190 0.361295
C11   C     C_R   0.653426 0.986172 0.584506 -0.252957
C12   C     C_R   0.532533 0.594068 0.202164 -0.251964
C13   C     C_R   0.554667 0.966146 0.514937 -0.027350
C14   C     C_R   0.515116 0.858389 0.492212 -0.005101
C15   C     C_R   0.498253 0.049875 0.462605 -0.137735
C16   C     C_R   0.518657 0.559278 0.310174 0.973836
C17   C     C_R   0.427741 0.029244 0.371112 -0.169442
C18   C     C_R   0.426363 0.934152 0.331139 0.284133
C19   C     C_R   0.443993 0.844867 0.397295 0.237306
C20   C     C_R   0.502005 0.150157 0.499989 0.583031
C21   C     C_R   0.365263 0.198117 0.361875 0.286739
C22   C     C_R   0.282539 0.498248 0.500858 0.914769
C23   C     C_R   0.403974 0.297617 0.831503 0.187305
C24   C     C_1   0.838732 0.502784 0.501813 -0.200727
C25   C     C_1   0.940870 0.500910 0.502099 0.004242
C26   C     C_1   0.059012 0.497311 0.501792 0.036330
C27   C     C_1   0.161168 0.495809 0.501301 -0.101609
C28   C     C_R   0.527134 0.729622 0.057949 0.571773
C29   C     C_3   0.651433 0.226314 0.615954 -0.194447
C30   C     C_3   0.804917 0.716002 0.685585 -0.155139
C31   C     C_3   0.742906 0.936972 0.810951 -0.270984
C32   C     C_3   0.649041 0.895762 0.048706 -0.342723
C33   C     C_3   0.697661 0.444020 0.170486 -0.288111
C34   C     C_R   0.405882 0.267793 0.936932 0.478948
C35   C     C_3   0.483746 0.118911 0.980051 -0.135879
C36   C     C_R   0.433655 0.345923 0.004326 -0.245873
C37   C     C_R   0.459080 0.456112 0.967911 0.041888
C38   C     C_R   0.441891 0.485259 0.862277 0.042165
C39   C     C_R   0.494514 0.538694 0.032954 -0.051704
C40   C     C_R   0.493117 0.647184 0.993789 -0.033684
H1    H     H_    0.547280 0.761471 0.215435 0.221366
H2    H     H_    0.838705 0.753010 0.610125 0.150909
H3    H     H_    0.820165 0.632570 0.696699 0.159015
H4    H     H_    0.688476 0.858693 0.840519 0.192556
H5    H     H_    0.689496 0.001158 0.803930 0.170275
H6    H     H_    0.818623 0.957835 0.867747 0.197789
H7    H     H_    0.723412 0.855548 0.037260 0.159980
H8    H     H_    0.651965 0.912114 0.129546 0.202225
H9    H     H_    0.663670 0.974598 0.001752 0.173199
H10   H     H_    0.728799 0.368290 0.197122 0.200845
H11   H     H_    0.740362 0.503952 0.223448 0.159154
H12   H     H_    0.708091 0.063682 0.584425 0.187422
H13   H     H_    0.726853 0.470699 0.091622 0.162215
H14   H     H_    0.536066 0.144594 0.910919 0.121542
H15   H     H_    0.458078 0.030539 0.984668 0.262821
H16   H     H_    0.540794 0.140946 0.049626 0.155450
H17   H     H_    0.446165 0.751621 0.861566 0.189051
H18   H     H_    0.426420 0.317873 0.084340 0.252377
H19   H     H_    0.388606 0.612049 0.752463 0.170480
H20   H     H_    0.647100 0.302642 0.643832 0.198124
H21   H     H_    0.705096 0.240050 0.547476 0.132035
H22   H     H_    0.701184 0.186974 0.680392 0.144035
H23   H     H_    0.857487 0.757738 0.748458 0.199589
N1    N     N_R   0.440320 0.222190 0.444690 -0.180639
N2    N     N_R   0.559060 0.776980 0.554780 -0.173958
O1    O     O_R   0.471500 0.366730 0.627160 -0.559481
O2    O     O_3   0.681984 0.712752 0.691966 -0.593298
O3    O     O_3   0.788970 0.930101 0.717319 -0.604087
O4    O     O_3   0.536866 0.835955 0.017416 -0.595826
O5    O     O_3   0.572495 0.424077 0.171913 -0.606634
O6    O     O_3   0.378839 0.161098 0.974876 -0.535214
O7    O     O_R   0.509620 0.544830 0.662520 -0.575281
O8    O     O_R   0.646490 0.410960 0.482310 -0.637583
O9    O     O_R   0.684610 0.589050 0.517670 -0.595000
O10   O     O_R   0.490380 0.455170 0.337480 -0.534412
O11   O     O_R   0.528500 0.633270 0.372840 -0.608785
O12   O     O_R   0.315390 0.410950 0.482330 -0.565683
O13   O     O_R   0.353510 0.589040 0.517690 -0.588056
O14   O     O_3   0.536482 0.162072 0.602279 -0.564868
Zn1   Zn    Zn3+2 0.474550 0.381080 0.476390 1.045219
Zn2   Zn    Zn3+2 0.525450 0.618920 0.523610 0.997689

loop_
_geom_bond_atom_site_label_1
_geom_bond_atom_site_label_2
_ccdc_geom_bond_type
C32   O4    S    
C35   H15   S    
C28   C40   A    
C36   C37   A    
C3    C38   A    
C30   H2    S    
C29   H21   S    
C31   H5    S    
C2    C3    A    
C34   C36   A    
C24   C25   T    
C29   O14   S    
C7    C23   A    
C2    C40   A    
C7    C38   A    
C1    C7    S    
C25   C26   S    
C15   C20   A    
C5    C12   A    
C10   C11   A    
C13   C14   A    
C4    O9    A    
Br2   C8    S    
O1    Zn1   S    
C33   H10   S    
C20   O14   S    
C18   C19   A    
O11   Zn2   S    
C4    C24   S    
C11   H12   S    
C32   H8    S    
C35   H14   S    
C33   H13   S    
C9    N2    A    
Br3   C19   S    
C37   C39   A    
C30   H3    S    
C29   H20   S    
Br4   C23   S    
C33   O5    S    
C1    O1    A    
C5    C39   A    
C6    C28   A    
C32   H7    S    
C1    O7    A    
C23   C34   A    
C12   C16   S    
C35   H16   S    
C35   O6    S    
C2    H17   S    
O10   Zn1   S    
C5    O5    S    
C26   C27   T    
C34   O6    S    
C31   H6    S    
C3    H19   S    
C32   H9    S    
O8    Zn1   S    
C10   O3    S    
C16   O11   A    
O7    Zn2   S    
Br1   C18   S    
C8    C21   A    
C20   N1    A    
C37   C38   A    
C36   H18   S    
N2    Zn2   S    
N1    Zn1   S    
C39   C40   A    
C6    C12   A    
C22   C27   S    
C17   C18   A    
C9    O2    S    
C22   O12   A    
C15   C17   A    
C14   N2    A    
C29   H22   S    
C30   O2    S    
O12   Zn1   S    
C22   O13   A    
C14   C19   A    
C30   H23   S    
C16   O10   A    
C8    C17   A    
C13   C15   A    
C4    O8    A    
C31   O3    S    
Br5   C21   S    
C28   O4    S    
O13   Zn2   S    
C33   H11   S    
C11   C13   A    
C21   N1    A    
C9    C10   A    
C6    H1    S    
O9    Zn2   S    
C31   H4    S    
