data_mof_unit_29191.cif
_audit_creation_date              2012-12-11T17:33:39-0500
_audit_creation_method            fapswitch 2.2
_symmetry_space_group_name_H-M    P1
_symmetry_Int_Tables_number       1
_space_group_crystal_system       triclinic
_cell_length_a                    8.470263
_cell_length_b                    16.629631
_cell_length_c                    19.098061
_cell_angle_alpha                 101.080899
_cell_angle_beta                  91.226325
_cell_angle_gamma                 95.423017
_cell_volume                      2625.9777397

loop_
_atom_site_label
_atom_site_type_symbol
_atom_type_description
_atom_site_fract_x
_atom_site_fract_y
_atom_site_fract_z
_atom_type_partial_charge
Ba1   Ba    Ba6+2 0.845660 0.536000 0.465120 1.522968
Ba2   Ba    Ba6+2 0.344160 0.464070 0.534880 1.625700
C1    C     C_3   0.610311 0.824766 0.288056 0.302661
C2    C     C_3   0.623687 0.746695 0.317742 0.600274
C3    C     C_3   0.544096 0.274370 0.303982 0.536574
C4    C     C_3   0.501468 0.206410 0.237407 0.667119
C5    C     C_3   0.078743 0.198800 0.710818 0.561325
C6    C     C_3   0.094414 0.107359 0.710135 -0.310849
C7    C     C_3   0.562442 0.253450 0.752539 0.866391
C8    C     C_3   0.459556 0.173111 0.759106 0.270892
C9    C     C_R   0.999277 0.469326 0.048743 0.013388
C10   C     C_R   0.906750 0.428808 0.094585 0.034300
C11   C     C_R   0.746839 0.398304 0.071344 0.393150
C12   C     C_3   0.114533 0.704884 0.276226 0.293957
C13   C     C_R   0.684234 0.408712 0.005637 -0.061234
C14   C     C_R   0.777025 0.444778 0.959112 0.054680
C15   C     C_R   0.935714 0.473272 0.979370 0.072318
C16   C     C_R   0.712200 0.451760 0.892249 0.045025
C17   C     C_R   0.809828 0.475681 0.839960 -0.015126
C18   C     C_R   0.969225 0.507978 0.860176 0.049212
C19   C     C_R   0.028651 0.508299 0.930939 0.055393
C20   C     C_R   0.754466 0.468686 0.768310 -0.010413
C21   C     C_R   0.849847 0.510714 0.724402 0.170436
C22   C     C_R   0.012637 0.537767 0.738754 -0.086277
C23   C     C_3   0.122215 0.732728 0.204965 -0.222596
C24   C     C_R   0.071491 0.537416 0.809668 -0.098733
C25   C     C_R   0.152933 0.507777 0.072134 -0.004064
C26   C     C_R   0.216744 0.508202 0.142643 0.023794
C27   C     C_R   0.121143 0.467060 0.190159 -0.030309
C28   C     C_R   0.973413 0.424025 0.162686 0.039834
C29   C     C_R   0.224450 0.571754 0.834428 -0.036876
C30   C     C_R   0.269858 0.584738 0.906793 0.021040
C31   C     C_R   0.178968 0.546718 0.954213 0.039964
C32   C     C_R   0.237488 0.550376 0.025472 -0.039874
C33   C     C_R   0.397364 0.641568 0.933983 -0.063073
C34   C     C_3   0.166135 0.749091 0.717308 0.551516
C35   C     C_R   0.439461 0.654552 0.006071 0.041829
C36   C     C_R   0.379385 0.598800 0.049192 -0.019181
C37   C     C_R   0.375282 0.548097 0.164064 -0.115945
C38   C     C_R   0.461832 0.589504 0.112301 0.335993
C39   C     C_R   0.428287 0.547513 0.236612 0.055731
C40   C     C_R   0.323526 0.515027 0.284128 -0.176385
C41   C     C_R   0.173377 0.471735 0.263822 0.042768
C42   C     C_R   0.376712 0.728848 0.478201 -0.185644
C43   C     C_R   0.531173 0.755417 0.505257 -0.049536
C44   C     C_R   0.595597 0.836416 0.501856 -0.164636
C45   C     C_3   0.246901 0.747176 0.789315 0.238826
C46   C     C_R   0.501928 0.891434 0.475483 0.271980
C47   C     C_R   0.347179 0.862743 0.449685 -0.121915
C48   C     C_R   0.285714 0.782097 0.450228 0.018009
C49   C     C_R   0.630110 0.141301 0.481363 0.002285
C50   C     C_R   0.675368 0.226800 0.491053 0.069240
C51   C     C_R   0.733930 0.087550 0.503802 0.341243
C52   C     C_R   0.825905 0.257503 0.520978 -0.243003
C53   C     C_R   0.927278 0.206332 0.546183 0.007163
C54   C     C_R   0.883787 0.121249 0.534867 -0.098140
C55   C     C_3   0.990947 0.281401 0.376324 0.387248
C56   C     C_3   0.026612 0.191801 0.364980 -0.178604
C57   C     C_3   0.605792 0.802585 0.673143 0.257391
C58   C     C_3   0.753171 0.855427 0.709187 0.219519
H1    H     H_    0.693983 0.762577 0.369011 0.049588
H2    H     H_    0.365652 0.724645 0.782102 -0.011894
H3    H     H_    0.166533 0.706503 0.814598 -0.057920
H4    H     H_    0.862515 0.284490 0.383002 -0.079168
H5    H     H_    0.057497 0.314029 0.425945 0.019709
H6    H     H_    0.994263 0.159266 0.309650 0.207463
H7    H     H_    0.958163 0.158961 0.401404 0.003948
H8    H     H_    0.154929 0.188810 0.375821 0.149435
H9    H     H_    0.519945 0.801933 0.715586 0.072790
H10   H     H_    0.550023 0.831931 0.633251 0.050308
H11   H     H_    0.543163 0.867725 0.324897 0.004772
H12   H     H_    0.817411 0.821188 0.743164 0.098964
H13   H     H_    0.717044 0.911266 0.744407 0.138041
H14   H     H_    0.501033 0.723232 0.328490 0.043848
H15   H     H_    0.544390 0.809553 0.235598 0.088124
H16   H     H_    0.663902 0.306203 0.300530 0.056101
H17   H     H_    0.478682 0.233657 0.190690 0.130725
H18   H     H_    0.205393 0.789493 0.209949 0.120814
H19   H     H_    0.961519 0.199101 0.687721 0.126809
H20   H     H_    0.161485 0.097749 0.757713 0.171492
H21   H     H_    0.975471 0.073251 0.710077 0.209737
H22   H     H_    0.151115 0.078837 0.660820 0.117975
H23   H     H_    0.393864 0.148753 0.707813 0.066617
H24   H     H_    0.034223 0.646811 0.269310 0.081303
H25   H     H_    0.376448 0.185631 0.801619 0.080631
H26   H     H_    0.562630 0.385530 0.988988 0.138647
H27   H     H_    0.587407 0.432515 0.879389 0.084374
H28   H     H_    0.909531 0.387726 0.195587 0.163905
H29   H     H_    0.305433 0.596071 0.799582 0.106582
H30   H     H_    0.459567 0.678792 0.900488 0.097987
H31   H     H_    0.527671 0.705537 0.026130 0.177405
H32   H     H_    0.236166 0.693070 0.291688 -0.027163
H33   H     H_    0.363791 0.520032 0.339066 0.082933
H34   H     H_    0.515581 0.117277 0.455738 0.107750
H35   H     H_    0.274304 0.903515 0.428710 0.103417
H36   H     H_    0.715203 0.857024 0.521758 0.181384
H37   H     H_    0.963592 0.081590 0.552888 0.082089
H38   H     H_    0.325683 0.667310 0.480611 0.065139
H39   H     H_    0.864208 0.322239 0.524918 0.040387
H40   H     H_    0.164568 0.683859 0.163773 0.028924
H41   H     H_    0.002775 0.745482 0.187719 0.227425
H42   H     H_    0.040865 0.754768 0.726171 0.078933
N1    N     N_2   0.552556 0.976297 0.476191 -0.208653
N2    N     N_2   0.690467 0.001231 0.500300 -0.177255
O1    O     O_2   0.884010 0.444810 0.325060 -0.457519
O2    O     O_3   0.635632 0.720005 0.649607 -0.523830
O3    O     O_3   0.055265 0.766368 0.327143 -0.547203
O4    O     O_2   0.305690 0.555220 0.674980 -0.394434
O5    O     O_3   0.057610 0.548940 0.585700 -0.416734
O6    O     O_3   0.548930 0.405410 0.631060 -0.367185
O7    O     O_3   0.195962 0.683372 0.661038 -0.624595
O8    O     O_3   0.631040 0.400420 0.463490 -0.429819
O9    O     O_3   0.135930 0.361590 0.595000 -0.464068
O10   O     O_2   0.244826 0.219417 0.538246 -0.442250
O11   O     O_3   0.195861 0.233825 0.671235 -0.596312
O12   O     O_3   0.132090 0.451130 0.414310 -0.487560
O13   O     O_3   0.558660 0.599640 0.536520 -0.380280
O14   O     O_2   0.381010 0.300300 0.465220 -0.395659
O15   O     O_3   0.541477 0.234073 0.360903 -0.637404
O16   O     O_2   0.430764 0.469349 0.752677 -0.438793
O17   O     O_3   0.465909 0.319158 0.751464 -0.566801
O18   O     O_3   0.640770 0.594650 0.368950 -0.489863
O19   O     O_2   0.759316 0.533367 0.254250 -0.381178
O20   O     O_3   0.033802 0.313597 0.315930 -0.556663
O21   O     O_3   0.700386 0.689209 0.269439 -0.528038
O22   O     O_2   0.808690 0.699720 0.534830 -0.439956
O23   O     O_3   0.053760 0.638480 0.405010 -0.512368
O24   O     O_2   0.957272 0.785338 0.457709 -0.436683
P1    P     P_3+3 0.056550 0.421630 0.336220 1.091269
P2    P     P_3+3 0.635450 0.689180 0.556380 1.153758
P3    P     P_3+3 0.086994 0.744358 0.412000 1.038120
P4    P     P_3+3 0.133150 0.578440 0.663790 1.049163
P5    P     P_3+3 0.119908 0.253788 0.589897 1.036344
P6    P     P_3+3 0.628821 0.589754 0.278635 1.141761
P7    P     P_3+3 0.560710 0.294277 0.446759 1.076943
P8    P     P_3+3 0.557401 0.411192 0.726738 1.161327
S1    S     S_3+6 0.264548 0.843127 0.851943 0.023886
O25   O     O_2   0.120875 0.888161 0.845340 -0.198138
O26   O     O_2   0.277611 0.826801 0.926466 -0.276981
O27   O     O_3   0.427913 0.901633 0.836575 -0.365669
H43   H     H_    0.517894 0.872429 0.849130 0.318876
Cl1   Cl    Cl    0.880858 0.888834 0.645667 -0.619819
Cl2   Cl    Cl    0.401551 0.345935 0.311382 -0.698971
Cl3   Cl    Cl    0.321376 0.144751 0.246796 -0.565241
S2    S     S_3+6 0.656587 0.139926 0.219619 0.021287
O28   O     O_2   0.675743 0.094740 0.279825 -0.263152
O29   O     O_2   0.614105 0.078568 0.151571 -0.182582
O30   O     O_3   0.828060 0.196018 0.210562 -0.502045
H44   H     H_    0.896172 0.156321 0.184044 0.390659
Cl4   Cl    Cl    0.800970 0.875940 0.278783 -0.521632
S3    S     S_3+6 0.079934 0.260218 0.799739 0.008559
O31   O     O_2   0.990147 0.212675 0.848107 -0.159923
O32   O     O_2   0.239048 0.292142 0.834900 -0.274969
O33   O     O_3   0.992660 0.343561 0.791692 -0.464734
H45   H     H_    0.059074 0.369238 0.758254 0.329729
Cl5   Cl    Cl    0.692889 0.276848 0.828201 -0.606653
S4    S     S_3+6 0.655323 0.232345 0.670807 -0.111773
O34   O     O_2   0.701114 0.146002 0.655841 -0.321776
O35   O     O_2   0.532828 0.239977 0.615392 -0.339216
O36   O     O_3   0.813244 0.302296 0.673101 -0.613863
H46   H     H_    0.786226 0.340955 0.642725 0.302487
S5    S     S_3+6 0.554932 0.088692 0.782403 0.036589
O37   O     O_2   0.496128 0.011419 0.730272 -0.212904
O38   O     O_2   0.732574 0.100622 0.781409 -0.195241
O39   O     O_3   0.502861 0.077833 0.864800 -0.393156
H47   H     H_    0.548588 0.129311 0.896733 0.356996
S6    S     S_3+6 0.619907 0.340790 0.118113 -0.100099
O40   O     O_2   0.632329 0.376803 0.196338 -0.319277
O41   O     O_2   0.449682 0.337390 0.092599 -0.298283
O42   O     O_3   0.677346 0.245360 0.101690 -0.477601
H48   H     H_    0.650382 0.223917 0.050350 0.365425
S7    S     S_3+6 0.751917 0.565440 0.673163 -0.079937
O43   O     O_2   0.741183 0.519015 0.597809 -0.282938
O44   O     O_2   0.592270 0.582074 0.700084 -0.256904
O45   O     O_3   0.856066 0.656293 0.682668 -0.602746
H49   H     H_    0.894723 0.660079 0.635254 0.363277
S8    S     S_3+6 0.671945 0.625112 0.110823 -0.135260
O46   O     O_2   0.695372 0.715745 0.141486 -0.295678
O47   O     O_2   0.786279 0.581631 0.145806 -0.312397
O48   O     O_3   0.730675 0.613155 0.026072 -0.583103
H50   H     H_    0.835354 0.645946 0.028789 0.366702
Cl6   Cl    Cl    0.230063 0.841094 0.686164 -0.548439

loop_
_geom_bond_atom_site_label_1
_geom_bond_atom_site_label_2
_ccdc_geom_bond_type
O21   P6    S    
C53   C54   A    
Ba2   O5    S    
S4    O34   D    
C40   H33   S    
C39   C40   A    
C8    H23   S    
O6    P8    S    
C17   C18   A    
C12   H24   S    
C45   H2    S    
S2    O28   D    
Ba2   O14   S    
C5    C6    S    
C8    H25   S    
C43   C44   A    
C42   C43   A    
C10   C11   A    
S1    O26   D    
Ba2   O8    S    
O39   H47   S    
C2    O21   S    
C3    O15   S    
C6    H22   S    
C57   H10   S    
C26   C27   A    
C33   C35   A    
C22   C24   A    
Ba1   Ba2   S    
Ba1   P1    S    
Ba1   O8    S    
C45   H3    S    
C3    C4    S    
Ba2   O9    S    
C3    Cl2   S    
C19   C31   A    
O42   H48   S    
C58   H12   S    
C51   N2    S    
C13   C14   A    
C58   H13   S    
C34   C45   S    
C34   H42   S    
C16   C17   A    
S3    O33   S    
C5    O11   S    
C6    H21   S    
Ba1   O18   S    
O18   P6    S    
Ba1   O5    S    
C42   H38   S    
C56   H6    S    
Ba2   O6    S    
C21   S7    S    
O45   H49   S    
C7    Cl5   S    
C50   C52   A    
C14   C15   A    
C29   H29   S    
Ba2   P4    S    
C21   C22   A    
C43   P2    S    
Ba1   O12   S    
C9    C25   A    
C27   C28   A    
C1    H15   S    
C7    C8    S    
C2    H14   S    
S7    O45   S    
C58   Cl1   S    
C57   C58   S    
S4    O35   D    
O9    P5    S    
C27   C41   A    
S6    O41   D    
Ba2   O12   S    
C54   H37   S    
O5    P4    S    
C39   P6    S    
S2    O29   D    
Ba2   O13   S    
S7    O44   D    
S6    O42   S    
S5    O38   D    
C25   C32   A    
O27   H43   S    
S1    O27   S    
C44   C46   A    
C57   O2    S    
O12   P1    S    
O19   P6    D    
C49   C50   A    
C30   C33   A    
C41   P1    S    
C17   C20   A    
Ba1   O22   S    
O3    P3    S    
Ba1   P2    S    
S6    O40   D    
C4    S2    S    
C35   H31   S    
C4    H17   S    
O1    P1    D    
O11   P5    S    
C26   C37   A    
S8    O47   D    
C53   P5    S    
C46   N1    S    
C2    H1    S    
O15   P7    S    
C23   H18   S    
C20   P8    S    
C49   C51   A    
C1    H11   S    
C35   C36   A    
S5    O39   S    
C22   P4    S    
C23   H40   S    
C7    O17   S    
C29   C30   A    
C7    S4    S    
S3    O31   D    
S8    O48   S    
C45   S1    S    
C34   O7    S    
C31   C32   A    
C14   C16   A    
Ba1   O13   S    
C47   H35   S    
O13   P2    S    
C12   H32   S    
O33   H45   S    
C57   H9    S    
C13   H26   S    
C5    S3    S    
C56   H8    S    
C12   O3    S    
O7    P4    S    
C47   C48   A    
S4    O36   S    
C11   C13   A    
C52   H39   S    
C34   Cl6   S    
C40   C41   A    
O8    P7    S    
C28   H28   S    
C1    C2    S    
O24   P3    D    
C38   S8    S    
C37   C38   A    
S2    O30   S    
O48   H50   S    
C55   H4    S    
C5    H19   S    
S5    O37   D    
C51   C54   A    
C42   C48   A    
O2    P2    S    
C52   C53   A    
C9    C15   A    
C1    Cl4   S    
C10   C28   A    
C32   C36   A    
Ba1   O23   S    
C55   H5    S    
C9    C10   A    
S1    O25   D    
C16   H27   S    
C30   C31   A    
C3    H16   S    
C12   C23   S    
O36   H46   S    
C55   O20   S    
C36   C38   A    
C23   H41   S    
C55   C56   S    
C18   C24   A    
C46   C47   A    
Ba2   O4    S    
O10   P5    D    
O20   P1    S    
O30   H44   S    
S3    O32   D    
O17   P8    S    
O23   P3    S    
O4    P4    D    
C11   S6    S    
C48   P3    S    
C49   H34   S    
S7    O43   D    
C33   H30   S    
C56   H7    S    
C24   C29   A    
C44   H36   S    
C18   C19   A    
C37   C39   A    
C8    S5    S    
S8    O46   D    
N1    N2    D    
C6    H20   S    
C50   P7    S    
O22   P2    D    
C20   C21   A    
O16   P8    D    
C4    Cl3   S    
O14   P7    D    
Ba1   O1    S    
C25   C26   A    
C15   C19   A    
