data_mof_unit_22807.cif
_audit_creation_date              2012-12-10T17:10:27-0500
_audit_creation_method            fapswitch 2.2
_symmetry_space_group_name_H-M    P1
_symmetry_Int_Tables_number       1
_space_group_crystal_system       triclinic
_cell_length_a                    10.815883
_cell_length_b                    13.043916
_cell_length_c                    11.604528
_cell_angle_alpha                 100.353566
_cell_angle_beta                  93.076101
_cell_angle_gamma                 90.212229
_cell_volume                      1608.05729199

loop_
_atom_site_label
_atom_site_type_symbol
_atom_type_description
_atom_site_fract_x
_atom_site_fract_y
_atom_site_fract_z
_atom_type_partial_charge
C1    C     C_R   0.501828 0.298720 0.478208 0.892189
C2    C     C_R   0.500117 0.700716 0.521845 0.892409
C3    C     C_R   0.493194 0.813528 0.534300 -0.283604
C4    C     C_R   0.506476 0.184628 0.465212 -0.288556
C5    C     C_R   0.553928 0.014774 0.352009 0.480482
C6    C     C_R   0.411328 0.978189 0.628466 0.481324
C7    C     C_R   0.549180 0.123432 0.362208 0.076336
C8    C     C_R   0.428210 0.871607 0.625302 0.073228
C9    C     C_R   0.471170 0.136845 0.558451 0.426713
C10   C     C_R   0.542816 0.861513 0.447533 0.422773
C11   C     C_R   0.466028 0.027764 0.544336 -0.228411
C12   C     C_R   0.520200 0.967341 0.446586 -0.225608
C13   C     C_R   0.375595 0.406727 0.022451 0.138218
C14   C     C_R   0.624248 0.594265 0.977490 0.149312
C15   C     C_R   0.389076 0.416520 0.145882 0.031942
C16   C     C_R   0.610047 0.584477 0.853990 0.033322
C17   C     C_R   0.552940 0.539378 0.157292 0.011358
C18   C     C_R   0.445683 0.462266 0.843220 -0.000463
C19   C     C_R   0.545585 0.533629 0.034043 -0.059345
C20   C     C_R   0.455230 0.466461 0.966084 -0.066601
C21   C     C_R   0.262393 0.512705 0.503035 0.811103
C22   C     C_R   0.737414 0.486790 0.497042 0.796523
C23   C     C_R   0.124404 0.535501 0.724811 -0.147140
C24   C     C_R   0.876177 0.459290 0.275759 -0.140673
C25   C     C_R   0.071519 0.503932 0.819849 -0.139933
C26   C     C_R   0.929900 0.488519 0.179884 -0.199437
C27   C     C_R   0.959764 0.449241 0.803290 -0.152063
C28   C     C_R   0.040127 0.545450 0.196220 -0.161855
C29   C     C_R   0.896077 0.433804 0.693905 -0.141915
C30   C     C_R   0.102837 0.563721 0.306093 -0.137332
C31   C     C_R   0.944098 0.472628 0.598604 0.077189
C32   C     C_R   0.055304 0.525405 0.401888 0.071887
C33   C     C_R   0.066756 0.511278 0.610247 0.078830
C34   C     C_R   0.933079 0.486015 0.390301 0.082216
C35   C     C_R   0.872995 0.473143 0.492593 -0.236189
C36   C     C_R   0.126603 0.525307 0.507915 -0.236289
Cu1   Cu    Cu3+1 0.509250 0.507730 0.615930 0.938032
Cu2   Cu    Cu3+1 0.490750 0.492270 0.384070 0.939554
H1    H     H_    0.079115 0.572662 0.123022 0.134470
H2    H     H_    0.920825 0.420918 0.875827 0.126588
H3    H     H_    0.208058 0.582290 0.743738 0.162994
H4    H     H_    0.792642 0.412187 0.257841 0.162130
H5    H     H_    0.118313 0.520775 0.906075 0.146999
H6    H     H_    0.884639 0.468540 0.093215 0.131050
H7    H     H_    0.810125 0.389621 0.684174 0.140707
H8    H     H_    0.187991 0.608966 0.315572 0.147877
H9    H     H_    0.376566 0.413483 0.788504 0.180897
H10   H     H_    0.618273 0.591227 0.213039 0.177112
H11   H     H_    0.668625 0.628092 0.807203 0.146018
H12   H     H_    0.330912 0.372058 0.192118 0.150340
N1    N     N_R   0.523180 0.519350 0.790130 -0.208212
N2    N     N_R   0.476820 0.480650 0.209870 -0.211006
O1    O     O_R   0.506570 0.354460 0.582000 -0.556631
O2    O     O_R   0.493430 0.645540 0.418000 -0.557587
O3    O     O_R   0.490940 0.341410 0.386200 -0.564054
O4    O     O_R   0.509060 0.658590 0.613800 -0.568243
O5    O     O_R   0.327470 0.506520 0.597900 -0.585416
O6    O     O_R   0.672530 0.493480 0.402100 -0.590051
O7    O     O_R   0.311840 0.493460 0.402100 -0.594809
O8    O     O_R   0.688160 0.506540 0.597900 -0.597913
N3    N     N_2   0.285053 0.337441 0.954211 -0.439689
H13   H     H_    0.319121 0.286437 0.885182 0.285386
C37   C     C_3   0.187280 0.293430 0.011298 -0.714125
H14   H     H_    0.117813 0.253847 0.943821 0.230663
H15   H     H_    0.139595 0.355828 0.069763 0.243237
H16   H     H_    0.225574 0.235003 0.061866 0.216723
N4    N     N_2   0.715362 0.663515 0.045198 -0.419648
H17   H     H_    0.766923 0.632493 0.107369 0.251437
C38   C     C_3   0.785369 0.734283 0.990016 -0.696224
H18   H     H_    0.842787 0.787062 0.058147 0.238552
H19   H     H_    0.721876 0.783227 0.945323 0.222554
H20   H     H_    0.847990 0.689951 0.926804 0.216951
O9    O     O_3   0.613011 0.803832 0.363050 -0.530943
C39   C     C_3   0.737179 0.805517 0.407243 -0.235952
H21   H     H_    0.793312 0.760377 0.338866 0.183596
H22   H     H_    0.746852 0.767912 0.486025 0.119274
H23   H     H_    0.775497 0.886473 0.427793 0.150353
O10   O     O_3   0.444934 0.197341 0.665092 -0.536151
C40   C     C_3   0.551361 0.201332 0.742361 -0.224069
H24   H     H_    0.532287 0.251654 0.826892 0.160223
H25   H     H_    0.632479 0.235691 0.707115 0.131083
H26   H     H_    0.575180 0.123071 0.761659 0.155684
N5    N     N_2   0.376359 0.822115 0.711884 -0.394865
H27   H     H_    0.284833 0.839670 0.725403 0.255892
C41   C     C_3   0.450870 0.832938 0.820844 -0.621360
H28   H     H_    0.411136 0.783061 0.878085 0.206537
H29   H     H_    0.452296 0.915253 0.867339 0.226344
H30   H     H_    0.547210 0.807810 0.803922 0.221822
N6    N     N_2   0.602237 0.171899 0.275309 -0.397150
H31   H     H_    0.689716 0.146129 0.254507 0.260846
C42   C     C_3   0.522802 0.178198 0.172471 -0.605221
H32   H     H_    0.554346 0.244377 0.132807 0.214572
H33   H     H_    0.424896 0.190998 0.195405 0.216661
H34   H     H_    0.529186 0.106088 0.105965 0.215288
O11   O     O_3   0.594964 0.956643 0.249587 -0.539364
C43   C     C_3   0.491297 0.911726 0.178703 -0.231827
H35   H     H_    0.420295 0.970550 0.165050 0.116273
H36   H     H_    0.447529 0.848916 0.216310 0.185176
H37   H     H_    0.523144 0.876038 0.091424 0.183021
O12   O     O_3   0.343911 0.033333 0.716811 -0.547491
C44   C     C_3   0.222631 0.046393 0.670956 -0.281856
H38   H     H_    0.175985 0.970087 0.636020 0.116580
H39   H     H_    0.222053 0.095155 0.601541 0.175971
H40   H     H_    0.167710 0.087390 0.742884 0.182445

loop_
_geom_bond_atom_site_label_1
_geom_bond_atom_site_label_2
_ccdc_geom_bond_type
C37   H15   S    
C44   H38   S    
C27   C29   A    
C8    N5    S    
C24   H4    S    
O9    C39   S    
O11   C43   S    
C17   H10   S    
C18   H9    S    
C25   H5    S    
C26   H6    S    
C21   C36   S    
C41   H28   S    
C22   C35   S    
C39   H22   S    
C32   C36   A    
C24   C26   A    
C21   O7    A    
C22   O8    A    
Cu1   N1    S    
C10   O9    S    
Cu2   N2    S    
C7    N6    S    
C43   H37   S    
C33   C36   A    
C38   H19   S    
C34   C35   A    
C15   H12   S    
N3    C37   S    
C1    O1    A    
Cu2   O6    S    
Cu1   O4    S    
Cu2   O3    S    
C19   C20   A    
C23   C33   A    
C39   H23   S    
C43   H36   S    
C14   N4    S    
C31   C33   A    
N6    C42   S    
C4    C9    A    
C18   C20   A    
Cu1   O1    S    
C37   H16   S    
C44   H39   S    
C38   H18   S    
C4    C7    A    
C17   N2    A    
C5    O11   S    
C18   N1    A    
C41   H29   S    
C39   H21   S    
N4    H17   S    
C16   H11   S    
C5    C12   A    
C3    C8    A    
C2    O2    A    
C6    C11   A    
C40   H25   S    
O10   C40   S    
C6    C8    A    
C28   H1    S    
C24   C34   A    
C37   H14   S    
C29   H7    S    
N4    C38   S    
C32   C34   A    
C38   H20   S    
C21   O5    A    
Cu1   Cu2   S    
C42   H33   S    
N5    H27   S    
Cu2   O2    S    
C27   H2    S    
C43   H35   S    
C15   N2    A    
C9    C11   A    
C10   C12   A    
N5    C41   S    
C44   H40   S    
C13   C15   A    
C14   C16   A    
C40   H24   S    
C42   H32   S    
C5    C7    A    
C41   H30   S    
C16   N1    A    
C13   C20   A    
C14   C19   A    
C30   H8    S    
C22   O6    A    
C40   H26   S    
C11   C12   A    
C25   C27   A    
C26   C28   A    
C23   H3    S    
C1    C4    S    
C28   C30   A    
C2    C3    S    
C1    O3    A    
C29   C31   A    
C3    C10   A    
C2    O4    A    
C42   H34   S    
C30   C32   A    
O12   C44   S    
C17   C19   A    
C31   C35   A    
C9    O10   S    
C23   C25   A    
N3    H13   S    
Cu1   O8    S    
Cu2   O7    S    
C13   N3    S    
N6    H31   S    
Cu1   O5    S    
C6    O12   S    
