data_mof_unit_11494.cif
_audit_creation_date              2013-03-05T16:30:59-0500
_audit_creation_method            fapswitch 2.2
_symmetry_space_group_name_H-M    P1
_symmetry_Int_Tables_number       1
_space_group_crystal_system       triclinic
_cell_length_a                    12.96784
_cell_length_b                    10.81573
_cell_length_c                    9.650709
_cell_angle_alpha                 88.859114
_cell_angle_beta                  95.564695
_cell_angle_gamma                 91.648632
_cell_volume                      1346.4401405

loop_
_atom_site_label
_atom_site_type_symbol
_atom_site_description
_atom_site_fract_x
_atom_site_fract_y
_atom_site_fract_z
_atom_type_partial_charge
O1    O     O_R   0.500000 0.319640 0.618810 -0.539279
O2    O     O_R   0.500010 0.319680 0.381230 -0.602958
C1    C     C_R   0.501437 0.262612 0.501792 0.778975
O3    O     O_R   0.348990 0.499960 0.599490 -0.542840
O4    O     O_R   0.349000 0.500000 0.361910 -0.581879
C2    C     C_R   0.301081 0.503912 0.474014 0.857738
Cu1   Cu    Cu3+1 0.499990 0.499980 0.640670 1.026039
Cu2   Cu    Cu3+1 0.500010 0.500020 0.359330 1.028132
O5    O     O_R   0.499990 0.680320 0.618770 -0.590241
O6    O     O_R   0.500000 0.680360 0.381190 -0.510359
O7    O     O_R   0.651000 0.500000 0.638090 -0.554428
O8    O     O_R   0.651010 0.500040 0.400510 -0.591858
C3    C     C_R   0.501121 0.737203 0.499127 0.846827
C4    C     C_R   0.698912 0.496273 0.525998 0.803384
C5    C     C_R   0.811372 0.486671 0.540917 -0.036813
C6    C     C_R   0.188583 0.513610 0.458887 -0.141265
C7    C     C_R   0.027975 0.587081 0.339977 -0.217687
C8    C     C_R   0.135796 0.581135 0.347565 0.338712
C9    C     C_R   0.132934 0.454501 0.559568 -0.259176
C10   C     C_R   0.026117 0.464426 0.554098 0.154950
C11   C     C_R   0.973435 0.530934 0.443335 0.103513
C12   C     C_R   0.866772 0.541503 0.437936 -0.281144
C13   C     C_R   0.863698 0.420312 0.652537 0.136901
C14   C     C_R   0.971240 0.409443 0.658168 -0.212312
H1    H     H_    0.826661 0.593793 0.354128 0.174304
H2    H     H_    0.987013 0.639368 0.255871 0.172549
H3    H     H_    0.011519 0.357965 0.743500 0.149536
H4    H     H_    0.172781 0.399907 0.642123 0.166559
C15   C     C_R   0.475213 0.058984 0.617719 0.045565
C16   C     C_R   0.510901 0.129475 0.507883 -0.095232
C17   C     C_R   0.561177 0.068881 0.406510 -0.133977
H5    H     H_    0.598181 0.121099 0.327200 0.181028
C18   C     C_R   0.561929 0.939423 0.405789 -0.110584
H6    H     H_    0.603865 0.893498 0.331487 0.197074
C19   C     C_R   0.506998 0.870563 0.500300 -0.055243
C20   C     C_R   0.468110 0.932198 0.607842 -0.037667
C21   C     C_3   0.365170 0.922863 0.665502 0.310289
C22   C     C_3   0.376976 0.063347 0.689153 0.054187
H7    H     H_    0.316009 0.120683 0.632723 0.116535
C23   C     C_R   0.579894 0.554314 0.081505 0.135686
N1    N     N_R   0.500660 0.500930 0.148010 -0.199883
C24   C     C_R   0.423593 0.439828 0.064053 0.244374
C25   C     C_R   0.422374 0.443433 0.916364 0.332686
N2    N     N_R   0.500660 0.500890 0.852110 -0.184736
C26   C     C_R   0.582435 0.548733 0.935431 0.122107
C27   C     C_3   0.626859 0.676069 0.922124 -0.517751
C28   C     C_3   0.614973 0.688963 0.076542 0.384117
H8    H     H_    0.708377 0.674980 0.895638 0.180345
H9    H     H_    0.576690 0.737727 0.853804 0.231469
N3    N     N_3   0.366995 0.842510 0.789964 -0.496509
H10   H     H_    0.430587 0.866360 0.859679 0.281184
H11   H     H_    0.299933 0.856071 0.839060 0.299254
N4    N     N_R   0.397220 0.094905 0.836600 0.114607
O9    O     O_R   0.486440 0.142188 0.885983 -0.319759
O10   O     O_R   0.323843 0.079764 0.918784 -0.340202
N5    N     N_3   0.338414 0.375657 0.119817 -0.572433
H12   H     H_    0.362689 0.320652 0.205611 0.282133
H13   H     H_    0.282735 0.438674 0.140502 0.261690
N6    N     N_3   0.333775 0.394535 0.834087 -0.526458
H14   H     H_    0.270083 0.445636 0.855408 0.217338
H15   H     H_    0.319469 0.303697 0.865305 0.268458
N7    N     N_3   0.712778 0.713779 0.161622 -0.605686
H16   H     H_    0.739794 0.802714 0.136724 0.247005
H17   H     H_    0.768427 0.653063 0.133901 0.187323
N8    N     N_R   0.535808 0.779182 0.098580 0.129490
O11   O     O_R   0.439842 0.744102 0.107773 -0.286058
O12   O     O_R   0.556520 0.896164 0.077670 -0.359423
N9    N     N_3   0.807848 0.360973 0.757545 -0.555211
H18   H     H_    0.837193 0.395886 0.854149 0.226761
H19   H     H_    0.822510 0.266394 0.758076 0.229399
N10   N     N_R   0.189846 0.648913 0.245974 0.131977
O13   O     O_R   0.150222 0.654895 0.116926 -0.358242
O14   O     O_R   0.268374 0.721541 0.285669 -0.234682
N11   N     N_R   0.279932 0.889544 0.560083 0.142923
O15   O     O_R   0.215472 0.798760 0.583358 -0.325937
O16   O     O_R   0.266745 0.951669 0.443011 -0.315209

loop_
_geom_bond_atom_site_label_1
_geom_bond_atom_site_label_2
_geom_bond_distance
_ccdc_geom_bond_type
C23   C28   1.514410 S    
C21   N11   1.469797 S    
N1    C24   1.385028 A    
C9    C10   1.388235 A    
C14   H3    1.084464 S    
C28   N7    1.463582 S    
Cu1   Cu2   2.715147 S    
N4    O9    1.302307 A    
Cu1   O7    1.960840 S    
C27   H9    1.107682 S    
C21   C22   1.542033 S    
N11   O16   1.302368 A    
C7    H2    1.084518 S    
C20   C21   1.495284 S    
C3    C19   1.442416 S    
O4    C2    1.300821 A    
O7    C4    1.300544 A    
N5    H12   1.038833 S    
O5    C3    1.298612 A    
N7    H17   1.046565 S    
C24   N5    1.430996 S    
C5    C12   1.395008 A    
C19   C20   1.387177 A    
N5    H13   1.042790 S    
N9    H18   1.045721 S    
N8    O12   1.301734 A    
C12   H1    1.077820 S    
C15   C22   1.508448 S    
N3    H11   1.045145 S    
C13   C14   1.398625 A    
C17   C18   1.400655 A    
C25   N6    1.426560 S    
C5    C13   1.411183 A    
N6    H14   1.045821 S    
C11   C12   1.387034 A    
O3    Cu1   1.959929 S    
N3    H10   1.042260 S    
N4    O10   1.301352 A    
C23   C26   1.415817 A    
C27   H8    1.111852 S    
N6    H15   1.038752 S    
N11   O15   1.301421 A    
C10   C14   1.399739 A    
C22   H7    1.112420 S    
Cu2   N1    2.040048 S    
O3    C2    1.306799 A    
N10   O14   1.300427 A    
C26   C27   1.485527 S    
C7    C11   1.397129 A    
O1    C1    1.299461 A    
C13   N9    1.432876 S    
C1    C16   1.448256 S    
C25   N2    1.368133 A    
C15   C16   1.400611 A    
C17   H5    1.083275 S    
C15   C20   1.376307 A    
Cu2   O8    1.959929 S    
N7    H16   1.045680 S    
C7    C8    1.396282 A    
Cu1   N2    2.039941 S    
C9    H4    1.081386 S    
N9    H19   1.045649 S    
C23   N1    1.371149 A    
O8    C4    1.306815 A    
C24   C25   1.423621 A    
N2    C26   1.363277 A    
C8    N10   1.437009 S    
Cu1   O5    1.957738 S    
C27   C28   1.522530 S    
O1    Cu1   1.966062 S    
Cu2   O6    1.966060 S    
O2    Cu2   1.957738 S    
O6    C3    1.302990 A    
O4    Cu2   1.960837 S    
O2    C1    1.304973 A    
N10   O13   1.301475 A    
C21   N3    1.467210 S    
C16   C17   1.409084 A    
C22   N4    1.466972 S    
C6    C9    1.399388 A    
C18   C19   1.400877 A    
C18   H6    1.077963 S    
C2    C6    1.458585 S    
C10   C11   1.408127 A    
C6    C8    1.418117 A    
N8    O11   1.301320 A    
C4    C5    1.457980 S    
C28   N8    1.469533 S    
