data_mof_unit_36747.cif
_audit_creation_date              2012-12-11T14:15:46-0500
_audit_creation_method            fapswitch 2.2
_symmetry_space_group_name_H-M    P1
_symmetry_Int_Tables_number       1
_space_group_crystal_system       triclinic
_cell_length_a                    11.149471
_cell_length_b                    12.722599
_cell_length_c                    23.547728
_cell_angle_alpha                 90.39713
_cell_angle_beta                  96.982295
_cell_angle_gamma                 68.515311
_cell_volume                      3082.54816385

loop_
_atom_site_label
_atom_site_type_symbol
_atom_type_description
_atom_site_fract_x
_atom_site_fract_y
_atom_site_fract_z
_atom_type_partial_charge
C1    C     C_R   0.149318 0.616773 0.428819 0.545980
C2    C     C_2   0.180955 0.229641 0.226798 -0.101713
C3    C     C_2   0.156335 0.161924 0.263729 0.106814
C4    C     C_R   0.749462 0.604172 0.403943 0.543678
C5    C     C_1   0.132753 0.197781 0.321055 -0.014579
C6    C     C_1   0.210805 0.195606 0.169829 -0.005032
C7    C     C_1   0.115985 0.231922 0.368553 -0.000174
C8    C     C_1   0.167926 0.748966 0.123562 0.022121
C9    C     C_2   0.143239 0.686779 0.227586 -0.106008
C10   C     C_2   0.236288 0.675979 0.271550 -0.101080
C11   C     C_1   0.217243 0.652605 0.329129 -0.035265
C12   C     C_R   0.660948 0.558195 0.310737 -0.127187
C13   C     C_1   0.155831 0.719221 0.170496 -0.017827
C14   C     C_1   0.193288 0.635131 0.376082 0.004322
C15   C     C_1   0.620811 0.761837 0.864103 0.057479
C16   C     C_R   0.101018 0.282507 0.423315 0.545736
C17   C     C_2   0.665689 0.741368 0.756477 -0.095844
C18   C     C_2   0.668271 0.648465 0.728861 0.096042
C19   C     C_1   0.683540 0.641361 0.669189 -0.019273
C20   C     C_1   0.646219 0.752022 0.815721 0.027163
C21   C     C_1   0.705698 0.628655 0.620424 0.003688
C22   C     C_R   0.191777 0.189956 0.857174 0.019581
C23   C     C_R   0.713161 0.728081 0.317873 -0.118467
C24   C     C_R   0.114230 0.229671 0.643220 0.018802
C25   C     C_R   0.012698 0.172489 0.716462 -0.112368
C26   C     C_R   0.015934 0.195774 0.659036 -0.138522
C27   C     C_R   0.210661 0.239187 0.685859 0.085037
C28   C     C_R   0.146003 0.614193 0.592333 0.546012
C29   C     C_R   0.190362 0.238371 0.742925 0.031763
C30   C     C_R   0.098532 0.195419 0.758699 0.023468
C31   C     C_R   0.101139 0.169342 0.816302 -0.128206
C32   C     C_R   0.258766 0.258103 0.842143 0.091042
C33   C     C_R   0.260757 0.278967 0.784851 -0.080516
C34   C     C_R   0.704351 0.735944 0.258386 0.042548
C35   C     C_R   0.120459 0.742532 0.854761 0.017329
C36   C     C_R   0.173732 0.627214 0.653303 0.014427
C37   C     C_R   0.300902 0.562265 0.745591 -0.114327
C38   C     C_R   0.288159 0.556598 0.686098 -0.112937
C39   C     C_R   0.071445 0.700721 0.680306 -0.113909
C40   C     C_R   0.750354 0.601649 0.565975 0.547126
C41   C     C_R   0.083186 0.706426 0.738990 0.019394
C42   C     C_R   0.199561 0.638734 0.772043 0.035087
C43   C     C_R   0.215640 0.654508 0.830333 -0.127646
C44   C     C_R   0.998042 0.800883 0.822512 0.083760
C45   C     C_R   0.682804 0.649338 0.226031 0.041611
C46   C     C_R   0.980700 0.781611 0.764664 -0.112288
C47   C     C_R   0.265868 0.109960 0.069424 0.550966
C48   C     C_R   0.601055 0.774349 0.081041 0.544504
C49   C     C_R   0.189751 0.787594 0.069796 0.552148
C50   C     C_R   0.239093 0.118562 0.909155 0.560247
C51   C     C_R   0.574076 0.776672 0.918516 0.552124
C52   C     C_R   0.101118 0.279230 0.585862 0.554363
C53   C     C_R   0.162213 0.785763 0.907956 0.556972
C54   C     C_R   0.670567 0.752392 0.139047 0.006695
C55   C     C_R   0.697237 0.636076 0.344223 0.011129
C56   C     C_R   0.678586 0.653347 0.167404 -0.116097
C57   C     C_R   0.657560 0.562918 0.252068 -0.140886
C58   C     C_R   0.695569 0.837955 0.170539 -0.123468
C59   C     C_R   0.716746 0.827823 0.230367 -0.128281
C60   C     C_1   0.236203 0.161746 0.123036 0.026864
Cr1   Cr    Cr6+3 0.189770 0.415650 0.511620 1.065278
Cr2   Cr    Cr6+3 0.930400 0.667320 0.496770 1.031094
Cr3   Cr    Cr6+3 0.879870 0.417010 0.491650 1.039657
Cr4   Cr    Cr6+3 0.149500 0.973980 0.985330 1.078572
Cr5   Cr    Cr6+3 0.457000 0.976510 0.994660 1.083570
Cr6   Cr    Cr6+3 0.411170 0.724270 0.995270 1.055899
H1    H     H_    0.054190 0.675358 0.234654 0.137693
H2    H     H_    0.889621 0.830481 0.739092 0.123602
H3    H     H_    0.980134 0.752883 0.655800 0.137420
H4    H     H_    0.636014 0.498586 0.227123 0.116220
H5    H     H_    0.645885 0.487673 0.330002 0.145921
H6    H     H_    0.181059 0.311748 0.239785 0.107251
H7    H     H_    0.324806 0.688662 0.264814 0.156121
H8    H     H_    0.663629 0.584750 0.143722 0.139427
H9    H     H_    0.366294 0.497048 0.665874 0.167427
H10   H     H_    0.733836 0.894886 0.254524 0.125999
H11   H     H_    0.738894 0.789684 0.343452 0.129855
H12   H     H_    0.670563 0.813288 0.733615 0.122607
H13   H     H_    0.043050 0.122821 0.828257 0.154353
H14   H     H_    0.940254 0.141190 0.727952 0.145348
H15   H     H_    0.318756 0.325761 0.773617 0.162068
H16   H     H_    0.941880 0.187470 0.627002 0.139936
H17   H     H_    0.308318 0.606482 0.855062 0.163045
H18   H     H_    0.690647 0.914946 0.149330 0.144561
H19   H     H_    0.389669 0.508048 0.770828 0.164726
I1    I     I_    0.668982 0.501192 0.771014 -0.367855
I2    I     I_    0.365496 0.326235 0.902721 -0.330354
I3    I     I_    0.400273 0.232040 0.669169 -0.352629
I4    I     I_    0.836145 0.925799 0.854218 -0.337670
I5    I     I_    0.155804 0.999759 0.242313 -0.389435
O1    O     O_R   0.196340 0.303200 0.448500 -0.502222
O2    O     O_R   0.555390 0.700940 0.062700 -0.517896
O3    O     O_R   0.295020 0.731920 0.049950 -0.495842
O4    O     O_R   0.199310 0.519670 0.454880 -0.494210
O5    O     O_R   0.094290 0.884230 0.921550 -0.476754
O6    O     O_R   0.168980 0.069410 0.926940 -0.504968
O7    O     O_R   0.358400 0.089990 0.927950 -0.469305
O8    O     O_R   0.544850 0.873850 0.939920 -0.480375
O9    O     O_R   0.536020 0.701900 0.936430 -0.498285
O10   O     O_R   0.277070 0.732810 0.932890 -0.506730
O11   O     O_3   0.339220 0.891590 0.991750 -0.267856
O12   O     O_R   0.811960 0.658090 0.547150 -0.501664
O13   O     O_R   0.045660 0.691380 0.441680 -0.503624
O14   O     O_R   0.811930 0.659460 0.430950 -0.503258
O15   O     O_R   0.757900 0.507620 0.421760 -0.517445
O16   O     O_R   0.988630 0.322990 0.439840 -0.494699
O17   O     O_R   0.196380 0.301720 0.573850 -0.474040
O18   O     O_R   0.199350 0.518300 0.571080 -0.486852
O19   O     O_R   0.045700 0.689900 0.567030 -0.522171
O20   O     O_R   0.757930 0.506140 0.547110 -0.496928
O21   O     O_R   0.988670 0.321620 0.556040 -0.503252
O22   O     O_3   0.000020 0.499990 0.500010 -0.258405
O23   O     O_R   0.113660 0.883270 0.047820 -0.490009
O24   O     O_R   0.186930 0.068530 0.043990 -0.488235
O25   O     O_R   0.377770 0.089040 0.054220 -0.500751
O26   O     O_R   0.562800 0.872960 0.056970 -0.498053

loop_
_geom_bond_atom_site_label_1
_geom_bond_atom_site_label_2
_ccdc_geom_bond_type
C24   C52   S    
C47   O24   A    
C49   O23   A    
C8    C13   T    
C35   C53   S    
C25   H14   S    
C43   H17   S    
C41   C42   A    
C24   C27   A    
Cr5   O11   S    
C39   C41   A    
C48   C54   S    
Cr2   O19   S    
C45   C57   A    
C18   I1    S    
C22   C32   A    
C3    I5    S    
C37   H19   S    
C19   C21   T    
C24   C26   A    
Cr5   O8    S    
C30   C31   A    
C10   H7    S    
C8    C49   S    
C53   O5    A    
C29   C33   A    
Cr3   O22   S    
C17   C20   S    
C27   C29   A    
C18   C19   S    
Cr6   O10   S    
C37   C42   A    
Cr1   O18   S    
C9    C13   S    
C47   C60   S    
C52   O17   A    
C45   C56   A    
C1    O4    A    
C41   C46   A    
C15   C51   S    
C57   H4    S    
Cr3   O15   S    
C29   C30   A    
C35   C43   A    
C9    C10   D    
C1    O13   A    
C16   O16   A    
C48   O26   A    
C51   O8    A    
C26   H16   S    
Cr5   O25   S    
Cr6   O11   S    
C2    C6    S    
C2    H6    S    
C44   C46   A    
Cr2   O14   S    
C38   H9    S    
C53   O10   A    
C51   O9    A    
C15   C20   T    
C54   C56   A    
Cr4   O24   S    
C22   C31   A    
C6    C60   T    
C56   H8    S    
Cr4   O6    S    
C5    C7    T    
Cr1   O4    S    
Cr6   O2    S    
Cr4   O11   S    
C52   O21   A    
C58   C59   A    
C32   I2    S    
Cr6   O9    S    
C47   O25   A    
C9    H1    S    
C46   H2    S    
C37   C38   A    
C58   H18   S    
C23   C34   A    
C17   C18   D    
C39   H3    S    
C34   C45   A    
C23   H11   S    
Cr3   O16   S    
C31   H13   S    
C35   C44   A    
Cr6   O3    S    
C12   C57   A    
C7    C16   S    
C12   H5    S    
C4    C55   S    
C34   C59   A    
Cr5   O26   S    
C42   C43   A    
Cr2   O13   S    
C54   C58   A    
C25   C30   A    
C50   O7    A    
Cr4   O23   S    
C36   C39   A    
Cr4   O5    S    
C3    C5    S    
C40   O20   A    
C23   C55   A    
C28   O19   A    
C4    O15   A    
C22   C50   S    
C32   C33   A    
Cr3   O20   S    
C36   C38   A    
C2    C3    D    
C25   C26   A    
Cr5   O7    S    
C50   O6    A    
C21   C40   S    
C28   O18   A    
C4    O14   A    
C17   H12   S    
C11   C14   T    
Cr3   O21   S    
C27   I3    S    
Cr1   O17   S    
C12   C55   A    
C10   C11   S    
C40   O12   A    
Cr2   O22   S    
C28   C36   S    
C16   O1    A    
C48   O2    A    
C1    C14   S    
C49   O3    A    
Cr1   O22   S    
C33   H15   S    
C59   H10   S    
C44   I4    S    
Cr1   O1    S    
Cr2   O12   S    
