data_mof_unit_43126.cif
_audit_creation_date              2012-12-10T19:44:25-0500
_audit_creation_method            fapswitch 2.2
_symmetry_space_group_name_H-M    P1
_symmetry_Int_Tables_number       1
_space_group_crystal_system       triclinic
_cell_length_a                    10.880431
_cell_length_b                    12.292474
_cell_length_c                    13.219606
_cell_angle_alpha                 116.260456
_cell_angle_beta                  77.523182
_cell_angle_gamma                 100.414036
_cell_volume                      1540.81952359

loop_
_atom_site_label
_atom_site_type_symbol
_atom_type_description
_atom_site_fract_x
_atom_site_fract_y
_atom_site_fract_z
_atom_type_partial_charge
C1    C     C_R   0.516845 0.854994 0.285833 0.766509
C2    C     C_R   0.696793 0.708265 0.716716 -0.126683
C3    C     C_R   0.042419 0.935851 0.548491 -0.238311
C4    C     C_R   0.129711 0.002801 0.498046 -0.083557
C5    C     C_R   0.086931 0.071172 0.452389 -0.002936
C6    C     C_R   0.957719 0.069925 0.458971 -0.236730
C7    C     C_R   0.869943 0.000535 0.507188 -0.084187
C8    C     C_R   0.913044 0.931749 0.552955 0.001404
C9    C     C_R   0.166292 0.268543 0.437403 -0.180121
C10   C     C_R   0.240185 0.334756 0.379066 -0.144701
C11   C     C_R   0.320529 0.275710 0.277644 -0.105355
C12   C     C_R   0.736814 0.000588 0.503399 0.778673
C13   C     C_R   0.325606 0.149921 0.233350 -0.134872
C14   C     C_R   0.250545 0.082949 0.290644 -0.093834
C15   C     C_R   0.171551 0.142125 0.393990 0.132689
C16   C     C_R   0.551076 0.279832 0.012699 -0.247323
C17   C     C_R   0.480612 0.228716 0.834645 -0.066854
C18   C     C_R   0.467399 0.819917 0.098199 -0.200816
C19   C     C_R   0.435733 0.741203 0.991120 -0.168473
C20   C     C_R   0.445863 0.616621 0.947958 -0.191824
C21   C     C_R   0.496529 0.569278 0.008536 0.091635
C22   C     C_R   0.538935 0.652600 0.112964 0.089394
C23   C     C_R   0.481218 0.145253 0.713550 0.806423
C24   C     C_R   0.505579 0.442346 0.970873 0.076695
C25   C     C_R   0.555677 0.403541 0.038481 0.122767
C26   C     C_R   0.614733 0.488451 0.128958 -0.226817
C27   C     C_R   0.609883 0.611796 0.163552 -0.201647
C28   C     C_R   0.470978 0.352672 0.867234 -0.296309
C29   C     C_R   0.508313 0.191391 0.913137 0.157326
C30   C     C_R   0.513385 0.775813 0.162797 -0.092821
C31   C     C_R   0.716104 0.355233 0.344525 -0.332383
C32   C     C_R   0.324319 0.758631 0.642076 0.079286
C33   C     C_R   0.286604 0.662467 0.674269 -0.280479
C34   C     C_R   0.263075 0.000392 0.498222 0.786474
C35   C     C_R   0.353745 0.559982 0.622849 -0.217262
C36   C     C_R   0.460439 0.553157 0.538748 -0.002330
C37   C     C_R   0.496587 0.655104 0.510630 0.302319
C38   C     C_R   0.532908 0.449788 0.481276 -0.033000
C39   C     C_R   0.643564 0.454435 0.403186 0.167299
C40   C     C_R   0.681020 0.558044 0.383528 -0.300631
C41   C     C_R   0.605902 0.653301 0.432172 -0.157253
C42   C     C_R   0.501061 0.341223 0.497028 0.049274
C43   C     C_R   0.678907 0.250877 0.363050 0.069668
C44   C     C_R   0.670778 0.828606 0.755884 -0.119620
C45   C     C_R   0.738695 0.901985 0.702046 -0.070372
C46   C     C_R   0.831242 0.853643 0.605965 0.104293
C47   C     C_R   0.857591 0.732428 0.568343 -0.161761
C48   C     C_R   0.791031 0.660568 0.623696 -0.122160
Cu1   Cu    Cu3+1 0.529370 0.098270 0.475420 0.935950
Cu2   Cu    Cu3+1 0.470630 0.901730 0.524580 0.934300
H1    H     H_    0.644344 0.652158 0.758817 0.140588
H2    H     H_    0.378291 0.327450 0.233233 0.140484
H3    H     H_    0.386781 0.104363 0.154036 0.108575
H4    H     H_    0.253160 0.985188 0.254637 0.105884
H5    H     H_    0.667449 0.457796 0.170025 0.153916
H6    H     H_    0.582764 0.252193 0.069459 0.131602
H7    H     H_    0.442678 0.377180 0.807378 0.147292
H8    H     H_    0.451191 0.914723 0.132413 0.142611
H9    H     H_    0.413459 0.560247 0.867332 0.125092
H10   H     H_    0.398124 0.776277 0.943166 0.139747
H11   H     H_    0.598908 0.864583 0.829047 0.144050
H12   H     H_    0.664689 0.676113 0.227703 0.129109
H13   H     H_    0.734741 0.173939 0.319031 0.123555
H14   H     H_    0.767880 0.564451 0.327107 0.142897
H15   H     H_    0.800743 0.358413 0.284689 0.137987
H16   H     H_    0.419290 0.329870 0.555395 0.120124
H17   H     H_    0.271647 0.837768 0.682525 0.121815
H18   H     H_    0.320873 0.488152 0.650871 0.132995
H19   H     H_    0.205029 0.667345 0.739146 0.144760
H20   H     H_    0.636699 0.724371 0.405830 0.196396
H21   H     H_    0.720268 0.996305 0.735549 0.143597
H22   H     H_    0.930220 0.693501 0.495980 0.128737
H23   H     H_    0.811872 0.567477 0.593729 0.138651
H24   H     H_    0.075132 0.886327 0.586531 0.157557
H25   H     H_    0.926084 0.121142 0.422015 0.159943
H26   H     H_    0.104478 0.315543 0.516013 0.129780
H27   H     H_    0.235264 0.431945 0.412535 0.147796
N1    N     N_R   0.573890 0.246290 0.438210 -0.179970
N2    N     N_R   0.426890 0.754320 0.561170 -0.205192
O1    O     O_R   0.536940 0.972510 0.318130 -0.581511
O2    O     O_R   0.487330 0.806530 0.359650 -0.587420
O3    O     O_R   0.705160 0.082990 0.479250 -0.586553
O4    O     O_R   0.655550 0.917010 0.520760 -0.601510
O5    O     O_R   0.512670 0.193470 0.640350 -0.590670
O6    O     O_R   0.463060 0.027490 0.681870 -0.566498
O7    O     O_R   0.344450 0.082990 0.479240 -0.579181
O8    O     O_R   0.294840 0.917010 0.520750 -0.594881
N3    N     N_3   0.498822 0.064760 0.889623 -0.599048
H28   H     H_    0.403071 0.032332 0.890454 0.215698
H29   H     H_    0.526843 0.054465 0.955495 0.190241

loop_
_geom_bond_atom_site_label_1
_geom_bond_atom_site_label_2
_ccdc_geom_bond_type
C45   H21   S    
C17   C29   A    
C35   C36   A    
C26   H5    S    
C43   H13   S    
C7    C8    A    
C28   H7    S    
C43   N1    A    
C37   N2    A    
C26   C27   A    
C17   C23   S    
C31   C43   A    
Cu1   O5    S    
C36   C37   A    
C38   C42   A    
C5    C6    A    
C1    O2    A    
Cu1   N1    S    
C18   C19   A    
C34   O7    A    
C3    H24   S    
C29   N3    S    
C11   H2    S    
Cu2   O6    S    
C18   H8    S    
C19   C20   A    
C2    C44   A    
C18   C30   A    
C9    H26   S    
C9    C10   A    
C33   H19   S    
C21   C22   A    
Cu2   N2    S    
C48   H23   S    
C25   C26   A    
C10   H27   S    
Cu2   O4    S    
C13   H3    S    
C7    C12   S    
C4    C34   S    
C23   O5    A    
C6    H25   S    
C24   C25   A    
C3    C8    A    
C2    H1    S    
C39   C40   A    
C2    C48   A    
C16   C29   A    
C45   C46   A    
C12   O4    A    
Cu1   O3    S    
C16   H6    S    
C27   H12   S    
C47   C48   A    
C12   O3    A    
C20   C21   A    
C20   H9    S    
Cu2   O8    S    
C32   H17   S    
C40   C41   A    
C14   H4    S    
N3    H29   S    
C42   N1    A    
C22   C27   A    
C44   H11   S    
C3    C4    A    
C44   C45   A    
C16   C25   A    
C31   H15   S    
C46   C47   A    
C22   C30   A    
C17   C28   A    
Cu1   O7    S    
C24   C28   A    
C4    C5    A    
C6    C7    A    
C19   H10   S    
C40   H14   S    
Cu1   O1    S    
C32   C33   A    
C36   C38   A    
C9    C15   A    
C32   N2    A    
C11   C13   A    
C38   C39   A    
C35   H18   S    
C1    C30   S    
C33   C35   A    
C31   C39   A    
C34   O8    A    
C37   C41   A    
C8    C46   S    
C47   H22   S    
C5    C15   S    
C10   C11   A    
N3    H28   S    
Cu1   Cu2   S    
C23   O6    A    
C21   C24   A    
C42   H16   S    
C1    O1    A    
C14   C15   A    
C13   C14   A    
Cu2   O2    S    
C41   H20   S    
