data_mof_unit_24199.cif
_audit_creation_date              2012-12-10T20:41:48-0500
_audit_creation_method            fapswitch 2.2
_symmetry_space_group_name_H-M    P1
_symmetry_Int_Tables_number       1
_space_group_crystal_system       triclinic
_cell_length_a                    14.785173
_cell_length_b                    15.38477
_cell_length_c                    9.948027
_cell_angle_alpha                 89.482905
_cell_angle_beta                  89.745203
_cell_angle_gamma                 89.975092
_cell_volume                      2262.72803944

loop_
_atom_site_label
_atom_site_type_symbol
_atom_type_description
_atom_site_fract_x
_atom_site_fract_y
_atom_site_fract_z
_atom_type_partial_charge
C1    C     C_R   0.384484 0.876127 0.499466 0.949909
C2    C     C_R   0.384509 0.123405 0.500154 0.926204
C3    C     C_R   0.886760 0.374731 0.500709 0.955360
C4    C     C_R   0.885888 0.624826 0.499186 0.900001
C5    C     C_3   0.316476 0.248269 0.749383 -0.282315
C6    C     C_3   0.332273 0.743221 0.743520 -0.224712
C7    C     C_3   0.891390 0.812356 0.665707 -0.236912
C8    C     C_3   0.847017 0.216336 0.733382 -0.268877
C9    C     C_R   0.437735 0.048885 0.070827 0.164494
C10   C     C_R   0.929790 0.462445 0.070344 0.113672
C11   C     C_R   0.567319 0.960990 0.071555 -0.045808
C12   C     C_R   0.074840 0.523237 0.071043 -0.078160
C13   C     C_R   0.567783 0.962205 0.928276 -0.035783
C14   C     C_R   0.075634 0.520472 0.927630 -0.053494
C15   C     C_R   0.430402 0.036675 0.929892 0.167918
C16   C     C_R   0.926356 0.473550 0.929881 0.116332
C17   C     C_3   0.332504 0.004698 0.951162 -0.392374
C18   C     C_3   0.831080 0.509020 0.929834 -0.303077
C19   C     C_3   0.336348 0.051589 0.087150 -0.225460
C20   C     C_3   0.827198 0.471888 0.076388 -0.223424
C21   C     C_R   0.622673 0.117278 0.499562 0.860278
C22   C     C_R   0.624600 0.884576 0.500127 0.877015
C23   C     C_R   0.121897 0.617942 0.499117 0.870676
C24   C     C_R   0.122220 0.382629 0.499917 0.896671
C25   C     C_R   0.278862 0.214601 0.619771 0.102322
C26   C     C_R   0.328319 0.737329 0.594801 0.011063
C27   C     C_R   0.821372 0.751380 0.611095 0.023058
C28   C     C_R   0.798789 0.265979 0.623263 0.155306
C29   C     C_R   0.325049 0.195412 0.501772 -0.111846
C30   C     C_R   0.331311 0.798750 0.491672 -0.089165
C31   C     C_R   0.832692 0.702324 0.495319 -0.107977
C32   C     C_R   0.833554 0.297469 0.502046 -0.127471
C33   C     C_R   0.310332 0.243712 0.384985 -0.160028
C34   C     C_R   0.284301 0.781191 0.372314 -0.138608
C35   C     C_R   0.796167 0.731639 0.373965 -0.098759
C36   C     C_R   0.808214 0.260042 0.380718 -0.205048
C37   C     C_R   0.728474 0.792494 0.376036 -0.153185
C38   C     C_R   0.737784 0.201388 0.378550 -0.172962
C39   C     C_R   0.242026 0.304734 0.382218 -0.172735
C40   C     C_R   0.216549 0.719534 0.373762 -0.179323
C41   C     C_R   0.701997 0.828909 0.498594 -0.090447
C42   C     C_R   0.696049 0.176905 0.499556 -0.125673
C43   C     C_R   0.192303 0.320263 0.499726 -0.105642
C44   C     C_R   0.197860 0.674068 0.493494 -0.043387
C45   C     C_R   0.753522 0.814651 0.615271 0.070111
C46   C     C_R   0.728665 0.207041 0.621968 0.113222
C47   C     C_R   0.211909 0.276327 0.618523 0.171451
C48   C     C_R   0.260086 0.677561 0.597973 0.041930
C49   C     C_3   0.817770 0.880236 0.673874 -0.267537
C50   C     C_3   0.767981 0.152901 0.732793 -0.313659
C51   C     C_3   0.241175 0.315506 0.748186 -0.320645
C52   C     C_3   0.255822 0.675839 0.748326 -0.326282
H1    H     H_    0.353354 0.235325 0.298400 0.186270
H2    H     H_    0.294168 0.818888 0.281258 0.210173
H3    H     H_    0.816974 0.705638 0.278161 0.182309
H4    H     H_    0.842138 0.277436 0.288200 0.184840
H5    H     H_    0.695440 0.808744 0.282134 0.169400
H6    H     H_    0.716693 0.175097 0.283030 0.194305
H7    H     H_    0.230103 0.341214 0.290325 0.182426
H8    H     H_    0.175272 0.712428 0.284774 0.183078
H9    H     H_    0.827572 0.938642 0.608606 0.192015
H10   H     H_    0.782995 0.085374 0.701117 0.181446
H11   H     H_    0.263256 0.384418 0.737903 0.170549
H12   H     H_    0.274082 0.611125 0.790650 0.171940
H13   H     H_    0.311172 0.198729 0.829527 0.172512
H14   H     H_    0.312944 0.809323 0.773991 0.192982
H15   H     H_    0.917617 0.789215 0.764387 0.207885
H16   H     H_    0.853103 0.254489 0.827342 0.182123
H17   H     H_    0.620935 0.927636 0.124519 0.143852
H18   H     H_    0.134809 0.543921 0.123749 0.142692
H19   H     H_    0.620598 0.929440 0.874249 0.153033
H20   H     H_    0.136806 0.536935 0.873612 0.114496
N1    N     N_R   0.499140 1.000000 0.142800 -0.114038
N2    N     N_R   0.999140 0.500000 0.142800 -0.108534
N3    N     N_R   0.499160 0.000000 0.857150 -0.101080
N4    N     N_R   0.999160 0.500000 0.857150 -0.094583
O1    O     O_R   0.408400 0.908380 0.614690 -0.566245
O2    O     O_R   0.408400 0.091620 0.614690 -0.586217
O3    O     O_R   0.908400 0.408380 0.614690 -0.595924
O4    O     O_R   0.908400 0.591620 0.614690 -0.605179
O5    O     O_R   0.408370 0.908370 0.385350 -0.619819
O6    O     O_R   0.408370 0.091630 0.385350 -0.631691
O7    O     O_R   0.908370 0.408370 0.385350 -0.636073
O8    O     O_R   0.908370 0.591630 0.385350 -0.618682
O9    O     O_R   0.591610 0.091610 0.614650 -0.620932
O10   O     O_R   0.591610 0.908390 0.614650 -0.603862
O11   O     O_R   0.091610 0.591610 0.614650 -0.625537
O12   O     O_R   0.091610 0.408390 0.614650 -0.613467
O13   O     O_R   0.591590 0.091600 0.385310 -0.624290
O14   O     O_R   0.591590 0.908400 0.385310 -0.638102
O15   O     O_R   0.091590 0.591600 0.385310 -0.638134
O16   O     O_R   0.091590 0.408400 0.385310 -0.629737
Zn1   Zn    Zn3+2 0.500010 0.000000 0.653130 1.026043
Zn2   Zn    Zn3+2 0.000010 0.500000 0.653130 0.999777
Zn3   Zn    Zn3+2 0.499980 1.000000 0.346870 0.983517
Zn4   Zn    Zn3+2 0.999980 0.500000 0.346870 0.968032
C53   C     C_1   0.306445 0.143058 0.082652 0.151180
N5    N     N_1   0.282248 0.214524 0.078441 -0.212457
C54   C     C_1   0.291100 0.008453 0.201649 0.274007
N6    N     N_1   0.251245 0.977948 0.290559 -0.193948
C55   C     C_1   0.784390 0.526000 0.178868 0.324524
N7    N     N_1   0.744575 0.564331 0.259005 -0.181854
C56   C     C_1   0.784124 0.385569 0.086742 0.235229
N8    N     N_1   0.748564 0.318640 0.091952 -0.176914
C57   C     C_1   0.798488 0.902623 0.814488 0.201948
N9    N     N_1   0.786005 0.920163 0.925915 -0.222521
C58   C     C_1   0.711722 0.156326 0.854963 0.330236
N10   N     N_1   0.667220 0.158711 0.950841 -0.166992
C59   C     C_1   0.172024 0.302337 0.853195 0.349803
N11   N     N_1   0.117151 0.292322 0.935223 -0.173150
C60   C     C_1   0.171723 0.711862 0.804955 0.368082
N12   N     N_1   0.105787 0.739771 0.850488 -0.111166
C61   C     C_2   0.410199 0.286634 0.737268 0.953055
O17   O     O_2   0.469610 0.261755 0.813550 -0.600324
O18   O     O_R   0.429191 0.349763 0.639069 -0.797110
H21   H     H_    0.494570 0.369541 0.640951 0.365058
C62   C     C_2   0.422275 0.712330 0.796671 1.044476
O19   O     O_2   0.425826 0.655585 0.883381 -0.592375
O20   O     O_R   0.501782 0.751232 0.749165 -0.781483
H22   H     H_    0.557994 0.726365 0.793103 0.353773
C63   C     C_2   0.966299 0.836712 0.568082 0.946481
O21   O     O_2   0.045144 0.828601 0.602163 -0.622892
O22   O     O_R   0.945742 0.869076 0.439929 -0.794378
H23   H     H_    0.001863 0.882566 0.384664 0.350465
C64   C     C_2   0.936846 0.178191 0.690416 0.946589
O23   O     O_2   0.000403 0.226838 0.667091 -0.630337
O24   O     O_R   0.948544 0.088221 0.680814 -0.795884
H24   H     H_    0.012125 0.071641 0.652271 0.376501
C65   C     C_2   0.262437 0.034114 0.848526 0.888846
O25   O     O_2   0.273519 0.015815 0.730811 -0.552154
O26   O     O_R   0.179873 0.071690 0.885696 -0.761579
H25   H     H_    0.166158 0.067410 0.985202 0.309855
C66   C     C_2   0.325874 0.906199 0.973992 0.893283
O27   O     O_2   0.394150 0.861719 0.979549 -0.582401
O28   O     O_R   0.242478 0.865883 0.998386 -0.798498
H26   H     H_    0.189639 0.907672 0.999348 0.315079
C67   C     C_2   0.828825 0.608449 0.928337 0.852253
O29   O     O_2   0.897661 0.650848 0.908828 -0.618434
O30   O     O_R   0.746818 0.651285 0.951676 -0.806007
H27   H     H_    0.753207 0.716885 0.948437 0.343524
C68   C     C_2   0.769472 0.469211 0.822519 1.006184
O31   O     O_2   0.756410 0.391168 0.821495 -0.608540
O32   O     O_R   0.727114 0.518832 0.721954 -0.750310
H28   H     H_    0.742957 0.582600 0.719437 0.321494

loop_
_geom_bond_atom_site_label_1
_geom_bond_atom_site_label_2
_ccdc_geom_bond_type
C15   N3    A    
C55   N7    T    
C40   H8    S    
C12   N2    A    
C11   C13   A    
C1    O1    A    
C60   N12   T    
C3    O3    A    
C53   N5    T    
C19   C53   S    
O22   H23   S    
C20   C56   S    
C21   O13   A    
C65   O26   S    
C67   O30   S    
C28   C46   A    
C33   C39   A    
C2    C29   S    
C34   C40   A    
C32   C36   A    
C35   C37   A    
C38   C42   A    
C48   C52   S    
C62   O20   S    
C42   C46   A    
O5    Zn3   S    
C22   C41   S    
O2    Zn1   S    
C1    O5    A    
O18   H21   S    
O11   Zn2   S    
C29   C33   A    
O16   Zn4   S    
C7    C27   S    
O8    Zn4   S    
O1    Zn1   S    
N4    Zn2   S    
O15   Zn4   S    
C38   H6    S    
O9    Zn1   S    
C9    C19   S    
C13   N3    A    
C10   C20   S    
C58   N10   T    
C45   C49   S    
C25   C47   A    
C6    C62   S    
C18   C20   S    
C26   C48   A    
C27   C45   A    
O28   H26   S    
C64   O23   D    
C51   C59   S    
C23   O11   A    
C25   C29   A    
C9    N1    A    
C7    C63   S    
C24   O16   A    
C21   O9    A    
C33   H1    S    
O12   Zn2   S    
C49   H9    S    
C30   C34   A    
C35   H3    S    
N2    Zn4   S    
C28   C32   A    
C51   H11   S    
C7    C49   S    
O3    Zn2   S    
C5    H13   S    
C52   H12   S    
C19   C54   S    
C65   O25   D    
C47   C51   S    
C20   C55   S    
C13   H19   S    
C52   C60   S    
C27   C31   A    
C23   C44   S    
C14   N4    A    
O13   Zn3   S    
C18   C67   S    
C36   H4    S    
O10   Zn1   S    
C54   N6    T    
C4    O8    A    
C6    H14   S    
O30   H27   S    
C39   H7    S    
C22   O14   A    
C24   O12   A    
C63   O21   D    
C5    C25   S    
C12   C14   A    
C8    H16   S    
C3    O7    A    
C50   C58   S    
C50   H10   S    
C23   O15   A    
C2    O6    A    
N1    Zn3   S    
O4    Zn2   S    
O24   H24   S    
C8    C50   S    
C2    O2    A    
N3    Zn1   S    
C66   O28   S    
C61   O17   D    
C67   O29   D    
C15   C17   S    
C12   H18   S    
O6    Zn3   S    
C5    C61   S    
C16   N4    A    
C14   H20   S    
C18   C68   S    
O14   Zn3   S    
C49   C57   S    
O20   H22   S    
C11   H17   S    
C4    O4    A    
C6    C26   S    
C57   N9    T    
C46   C50   S    
C68   O32   S    
O32   H28   S    
C9    C15   A    
C10   C16   A    
C68   O31   D    
C17   C66   S    
C10   N2    A    
C34   H2    S    
C66   O27   D    
C8    C28   S    
O7    Zn4   S    
C36   C38   A    
C1    C30   S    
C17   C19   S    
C31   C35   A    
C22   O10   A    
C37   C41   A    
C3    C32   S    
C11   N1    A    
C63   O22   S    
C4    C31   S    
C7    H15   S    
C21   C42   S    
C44   C48   A    
C8    C64   S    
C40   C44   A    
C39   C43   A    
C16   C18   S    
C59   N11   T    
C56   N8    T    
C64   O24   S    
C24   C43   S    
C41   C45   A    
C5    C51   S    
C6    C52   S    
C62   O19   D    
C43   C47   A    
C17   C65   S    
C37   H5    S    
O26   H25   S    
C61   O18   S    
C26   C30   A    
