data_mof_unit_6563.cif
_audit_creation_date              2013-03-05T16:21:22-0500
_audit_creation_method            fapswitch 2.2
_symmetry_space_group_name_H-M    P1
_symmetry_Int_Tables_number       1
_space_group_crystal_system       triclinic
_cell_length_a                    8.809017
_cell_length_b                    15.071928
_cell_length_c                    14.018145
_cell_angle_alpha                 90.104762
_cell_angle_beta                  97.899484
_cell_angle_gamma                 92.599397
_cell_volume                      1841.55403435

loop_
_atom_site_label
_atom_site_type_symbol
_atom_site_description
_atom_site_fract_x
_atom_site_fract_y
_atom_site_fract_z
_atom_type_partial_charge
O1    O     O_R   0.500010 0.371450 0.581430 -0.635834
O2    O     O_R   0.499990 0.628550 0.418570 -0.628675
O3    O     O_R   0.500010 0.371460 0.418560 -0.539869
O4    O     O_R   0.499990 0.628540 0.581440 -0.528000
C1    C     C_R   0.501801 0.329983 0.499980 0.799481
C2    C     C_R   0.501851 0.669757 0.500122 0.783252
O5    O     O_R   0.274840 0.499990 0.562640 -0.598098
O6    O     O_R   0.725160 0.500010 0.437360 -0.599428
O7    O     O_R   0.274840 0.500000 0.399770 -0.510882
O8    O     O_R   0.725160 0.500000 0.600230 -0.519062
C3    C     C_R   0.204551 0.499982 0.475463 0.824122
C4    C     C_R   0.795385 0.499606 0.524512 0.816339
Cu1   Cu    Cu3+1 0.500000 0.499990 0.596430 1.045315
Cu2   Cu    Cu3+1 0.500000 0.500010 0.403570 1.044541
C5    C     C_2   0.039244 0.491602 0.462489 0.013211
C6    C     C_2   0.960656 0.507096 0.537490 0.014091
C7    C     C_R   0.467814 0.091333 0.573580 -0.122196
C8    C     C_R   0.416977 0.904140 0.433689 -0.125122
H1    H     H_    0.427475 0.053241 0.631371 0.176184
H2    H     H_    0.337402 0.939048 0.382805 0.169759
C9    C     C_R   0.460908 0.183164 0.574648 -0.161780
C10   C     C_R   0.409674 0.811918 0.433513 -0.134365
H3    H     H_    0.415546 0.214762 0.633367 0.181836
H4    H     H_    0.324999 0.776203 0.382440 0.163949
C11   C     C_R   0.509747 0.233270 0.499697 -0.075620
C12   C     C_R   0.509242 0.766214 0.500215 -0.061028
C13   C     C_R   0.568680 0.190721 0.424546 -0.054130
C14   C     C_R   0.619725 0.812716 0.564995 -0.080883
H5    H     H_    0.610382 0.230003 0.368101 0.225827
H6    H     H_    0.700867 0.776120 0.612885 0.225763
C15   C     C_R   0.577718 0.098198 0.422950 -0.022873
C16   C     C_R   0.629710 0.905735 0.565489 -0.012646
C17   C     C_R   0.525481 0.048510 0.498348 -0.037403
C18   C     C_R   0.525743 0.951361 0.499322 -0.035448
C19   C     C_R   0.567271 0.571089 0.113550 -0.187903
C20   C     C_R   0.408597 0.439961 0.885059 -0.173673
H7    H     H_    0.618939 0.628357 0.082440 0.188485
H8    H     H_    0.329697 0.394482 0.914652 0.193040
C21   C     C_R   0.572526 0.568776 0.214686 0.127831
C22   C     C_R   0.410277 0.438379 0.784408 0.137621
N1    N     N_R   0.500000 0.500020 0.258690 -0.272920
N2    N     N_R   0.500000 0.499980 0.741310 -0.277940
C23   C     C_R   0.431726 0.430501 0.201975 0.533590
C24   C     C_R   0.587903 0.562183 0.799004 0.545262
C25   C     C_R   0.437074 0.428616 0.101981 -0.257893
C26   C     C_R   0.593303 0.561286 0.899954 -0.254858
H9    H     H_    0.388703 0.369966 0.062899 0.181839
H10   H     H_    0.669587 0.609912 0.940707 0.176571
C27   C     C_R   0.501785 0.500138 0.054600 0.062279
C28   C     C_R   0.502229 0.500272 0.945738 0.052412
N3    N     N_R   0.965228 0.456682 0.371334 0.150460
O9    O     O_R   0.977499 0.500251 0.292516 -0.316963
O10   O     O_R   0.902600 0.376617 0.366025 -0.314581
N4    N     N_R   0.034900 0.540905 0.628985 0.148747
O11   O     O_R   0.026131 0.495148 0.706797 -0.307387
O12   O     O_R   0.095407 0.621456 0.635769 -0.300488
C29   C     C_2   0.644132 0.054738 0.343900 0.416013
H11   H     H_    0.661317 0.983916 0.345074 0.093058
O13   O     O_2   0.681068 0.097685 0.276217 -0.465223
C30   C     C_2   0.750240 0.954007 0.633231 0.409936
H12   H     H_    0.765547 0.025718 0.630404 0.084160
O14   O     O_2   0.834711 0.914115 0.693210 -0.463220
C31   C     C_2   0.665730 0.640349 0.270516 0.467684
H13   H     H_    0.727675 0.628078 0.340659 0.112947
O15   O     O_2   0.677610 0.714795 0.237248 -0.545689
C32   C     C_2   0.309564 0.369126 0.728641 0.450314
H14   H     H_    0.274385 0.373769 0.652635 0.119998
O16   O     O_2   0.261406 0.303817 0.768647 -0.548761
N5    N     N_R   0.354932 0.357046 0.242344 0.129045
O17   O     O_R   0.224593 0.368200 0.273157 -0.266560
O18   O     O_R   0.391537 0.276712 0.224032 -0.339325
N6    N     N_R   0.668758 0.633432 0.758324 0.122164
O19   O     O_R   0.808813 0.623088 0.742719 -0.274000
O20   O     O_R   0.624666 0.713641 0.768896 -0.336398

loop_
_geom_bond_atom_site_label_1
_geom_bond_atom_site_label_2
_geom_bond_distance
_ccdc_geom_bond_type
C19   C27   1.403204 A    
O5    Cu1   1.974881 S    
C19   C21   1.412662 A    
O7    Cu2   1.976815 S    
C15   C17   1.412465 A    
N4    O12   1.301540 A    
C5    N3    1.439572 S    
C11   C13   1.403090 A    
C8    C10   1.388525 A    
C21   C31   1.479956 S    
C26   C28   1.406405 A    
C12   C14   1.398547 A    
C25   C27   1.406788 A    
O6    C4    1.291486 A    
C31   O15   1.221529 D    
C15   C29   1.486465 S    
C6    N4    1.438498 S    
C14   H6    1.082143 S    
C17   C18   1.464427 S    
C32   H14   1.071271 S    
N3    O9    1.301038 A    
C21   N1    1.383175 A    
C22   C32   1.486640 S    
Cu1   Cu2   2.703540 S    
N6    O19   1.298380 A    
C30   O14   1.221716 D    
O5    C3    1.291826 A    
C23   C25   1.409255 A    
O7    C3    1.299934 A    
C29   H11   1.084731 S    
C2    C12   1.452283 S    
O3    Cu2   1.949243 S    
N2    C24   1.375451 A    
Cu2   N1    2.030951 S    
C1    C11   1.462523 S    
O8    C4    1.300051 A    
C20   H8    1.078002 S    
Cu1   N2    2.030949 S    
C19   H7    1.078263 S    
C24   C26   1.409500 A    
C24   N6    1.424837 S    
C10   H4    1.083560 S    
C8    C18   1.401595 A    
C9    H3    1.081795 S    
N5    O17   1.298718 A    
O2    Cu2   1.948346 S    
O1    C1    1.302968 A    
C29   O13   1.221899 D    
O4    C2    1.300930 A    
O1    Cu1   1.948345 S    
C32   O16   1.221847 D    
C16   C30   1.486167 S    
N3    O10   1.301580 A    
C13   C15   1.400676 A    
C5    C6    1.361245 D    
C26   H10   1.078573 S    
C4    C6    1.441398 S    
C14   C16   1.400685 A    
C20   C28   1.402300 A    
C13   H5    1.083263 S    
C8    H2    1.083681 S    
N6    O20   1.300784 A    
C27   C28   1.526602 S    
C10   C12   1.396368 A    
C25   H9    1.078430 S    
O4    Cu1   1.949244 S    
N5    O18   1.301127 A    
C9    C11   1.398930 A    
N4    O11   1.300932 A    
C30   H12   1.084592 S    
C20   C22   1.413220 A    
O6    Cu2   1.974879 S    
C7    C17   1.400478 A    
C7    H1    1.083740 S    
C31   H13   1.077557 S    
C3    C5    1.442212 S    
C7    C9    1.388295 A    
N1    C23   1.378414 A    
O2    C2    1.297787 A    
C23   N5    1.429377 S    
C22   N2    1.385075 A    
O3    C1    1.300888 A    
O8    Cu1   1.976814 S    
C16   C18   1.413487 A    
