data_mof_unit_30647.cif
_audit_creation_date              2012-12-11T15:20:40-0500
_audit_creation_method            fapswitch 2.2
_symmetry_space_group_name_H-M    P1
_symmetry_Int_Tables_number       1
_space_group_crystal_system       triclinic
_cell_length_a                    21.517021
_cell_length_b                    7.265291
_cell_length_c                    20.004986
_cell_angle_alpha                 89.927272
_cell_angle_beta                  87.554863
_cell_angle_gamma                 89.962158
_cell_volume                      3124.47740097

loop_
_atom_site_label
_atom_site_type_symbol
_atom_type_description
_atom_site_fract_x
_atom_site_fract_y
_atom_site_fract_z
_atom_type_partial_charge
O1    O     O_R   0.688010 0.379840 0.189360 -0.546678
O2    O     O_R   0.311990 0.620160 0.810640 -0.534582
O3    O     O_R   0.811990 0.879840 0.310640 -0.546652
O4    O     O_R   0.188010 0.120160 0.689360 -0.535158
O5    O     O_R   0.808630 0.708850 0.184280 -0.532398
O6    O     O_R   0.191370 0.291150 0.815720 -0.522356
O7    O     O_R   0.691370 0.208850 0.315720 -0.532375
O8    O     O_R   0.308630 0.791150 0.684280 -0.521223
C1    C     C_R   0.830263 0.540895 0.166571 0.710612
C2    C     C_R   0.169425 0.458959 0.833065 0.683005
C3    C     C_R   0.669677 0.040910 0.333352 0.709618
C4    C     C_R   0.330622 0.959024 0.667005 0.683034
O9    O     O_R   0.688260 0.709510 0.181570 -0.525964
O10   O     O_R   0.311740 0.290490 0.818430 -0.544345
O11   O     O_R   0.811740 0.209510 0.318430 -0.525790
O12   O     O_R   0.188260 0.790490 0.681570 -0.543058
O13   O     O_R   0.690760 0.880550 0.307920 -0.515045
O14   O     O_R   0.309240 0.119450 0.692080 -0.526304
O15   O     O_R   0.809240 0.380550 0.192080 -0.514554
O16   O     O_R   0.190760 0.619450 0.807920 -0.526553
C5    C     C_R   0.668648 0.541382 0.166154 0.746345
C6    C     C_R   0.332098 0.458499 0.833356 0.762092
C7    C     C_R   0.831353 0.041246 0.333848 0.746125
C8    C     C_R   0.167731 0.958704 0.666864 0.765022
O17   O     O_3   0.750960 0.546580 0.291460 -0.371457
O18   O     O_3   0.249040 0.453420 0.708540 -0.368521
O19   O     O_3   0.749040 0.046580 0.208540 -0.371263
O20   O     O_3   0.250960 0.953420 0.791460 -0.369019
V1    V     V_3+5 0.749820 0.821150 0.242310 1.399333
V2    V     V_3+5 0.250180 0.178850 0.757690 1.386175
V3    V     V_3+5 0.750180 0.321150 0.257690 1.399752
V4    V     V_3+5 0.249820 0.678850 0.742310 1.388194
C9    C     C_R   0.055936 0.926362 0.638208 0.375173
C10   C     C_R   0.941238 0.079506 0.365441 0.345181
C11   C     C_R   0.443603 0.425192 0.862453 0.375815
C12   C     C_R   0.558421 0.576550 0.135167 0.347720
C13   C     C_R   0.117823 0.966848 0.617661 -0.244694
C14   C     C_R   0.879623 0.033857 0.384318 -0.234580
C15   C     C_R   0.381719 0.465591 0.882906 -0.244103
C16   C     C_R   0.620201 0.533809 0.115883 -0.235254
C17   C     C_R   0.132289 0.018766 0.551042 0.215744
C18   C     C_R   0.863284 0.993742 0.451609 0.235572
C19   C     C_R   0.366999 0.514759 0.949780 0.217604
C20   C     C_R   0.636356 0.493653 0.048632 0.235580
C21   C     C_R   0.084096 0.042890 0.505018 -0.045931
C22   C     C_R   0.910341 0.977561 0.499432 -0.016621
C23   C     C_R   0.415095 0.537629 0.996059 -0.043625
C24   C     C_R   0.589131 0.475471 0.001153 -0.017435
C25   C     C_R   0.021150 0.005742 0.526249 -0.143212
C26   C     C_R   0.972888 0.023054 0.479993 -0.127013
C27   C     C_R   0.478143 0.501551 0.974693 -0.143152
C28   C     C_R   0.526453 0.518951 0.020848 -0.125899
C29   C     C_R   0.006586 0.949539 0.593213 -0.049850
C30   C     C_R   0.987193 0.087331 0.414057 -0.061263
C31   C     C_R   0.492838 0.447125 0.907579 -0.051299
C32   C     C_R   0.512161 0.582508 0.086800 -0.057418
C33   C     C_R   0.097058 0.110788 0.439125 0.431762
C34   C     C_R   0.896108 0.916681 0.565759 0.355222
C35   C     C_R   0.402018 0.604489 0.062152 0.426616
C36   C     C_R   0.603385 0.414906 0.934872 0.355839
C37   C     C_R   0.047631 0.155364 0.398152 0.184329
C38   C     C_R   0.943244 0.913136 0.613263 0.196928
C39   C     C_R   0.451692 0.650185 0.102752 0.178445
C40   C     C_R   0.556217 0.411301 0.887459 0.197337
C41   C     C_1   0.383064 0.969111 0.615095 -0.209976
C42   C     C_1   0.617696 0.030559 0.385773 -0.201589
C43   C     C_1   0.116960 0.468816 0.884947 -0.207854
C44   C     C_1   0.882112 0.530262 0.114007 -0.201650
C45   C     C_1   0.426775 0.979767 0.572408 -0.003196
C46   C     C_1   0.574281 0.019489 0.428796 -0.012316
C47   C     C_1   0.073181 0.479262 0.927559 -0.005214
C48   C     C_1   0.925458 0.518746 0.070917 -0.014036
C49   C     C_1   0.478693 0.993595 0.521949 -0.003597
C50   C     C_1   0.522484 0.005516 0.479389 -0.005480
C51   C     C_1   0.021161 0.492864 0.977902 -0.003926
C52   C     C_1   0.977294 0.504676 0.020373 -0.003752
O21   O     O_3   0.042507 0.892477 0.705402 -0.568024
C53   C     C_3   0.051171 0.705974 0.724623 0.116371
H1    H     H_    0.017312 0.679199 0.767002 0.144675
H2    H     H_    0.097256 0.690068 0.745702 0.140990
C54   C     C_3   0.041981 0.557400 0.670836 -0.391291
H3    H     H_    0.997668 0.578675 0.645728 0.210967
H4    H     H_    0.080797 0.562611 0.632374 0.191051
C55   C     C_3   0.040214 0.366750 0.702136 -0.777307
H5    H     H_    0.086170 0.330964 0.721705 0.242418
H6    H     H_    0.028216 0.267468 0.663117 0.243472
H7    H     H_    0.004011 0.358828 0.743304 0.221211
O22   O     O_3   0.956609 0.115663 0.298776 -0.577464
C56   C     C_3   0.961607 0.948967 0.262050 0.074735
H8    H     H_    0.922442 0.942990 0.227641 0.145011
H9    H     H_    0.959587 0.821630 0.293580 0.094215
C57   C     C_3   0.022971 0.947989 0.220638 -0.340854
H10   H     H_    0.027264 0.077031 0.190865 0.207076
H11   H     H_    0.062152 0.941431 0.254831 0.187162
C58   C     C_3   0.027258 0.783973 0.173226 -0.808310
H12   H     H_    0.020855 0.652842 0.201298 0.232679
H13   H     H_    0.073676 0.782196 0.146747 0.232371
H14   H     H_    0.991142 0.795947 0.135511 0.239386
O23   O     O_3   0.457113 0.392317 0.795229 -0.568024
C59   C     C_3   0.448721 0.205976 0.775808 0.117135
H15   H     H_    0.482953 0.179635 0.733750 0.144419
H16   H     H_    0.402849 0.190371 0.754215 0.141329
C60   C     C_3   0.457464 0.056691 0.829610 -0.391890
H17   H     H_    0.501571 0.077447 0.855136 0.210457
H18   H     H_    0.418365 0.061659 0.867734 0.191694
C61   C     C_3   0.459454 0.866377 0.798208 -0.776986
H19   H     H_    0.413682 0.831120 0.778150 0.242393
H20   H     H_    0.471079 0.766507 0.837294 0.243576
H21   H     H_    0.495990 0.858730 0.757377 0.220989
O24   O     O_3   0.543514 0.613710 0.201857 -0.579499
C62   C     C_3   0.540568 0.448176 0.239614 0.078896
H22   H     H_    0.571396 0.464031 0.282420 0.145377
H23   H     H_    0.556650 0.322719 0.211495 0.099210
C63   C     C_3   0.473962 0.416664 0.266726 -0.350465
H24   H     H_    0.457251 0.540219 0.294861 0.201926
H25   H     H_    0.443511 0.394616 0.224097 0.188631
C64   C     C_3   0.469692 0.249886 0.313113 -0.809105
H26   H     H_    0.487728 0.124711 0.287001 0.235464
H27   H     H_    0.420413 0.225942 0.329510 0.231300
H28   H     H_    0.496966 0.275040 0.358065 0.239330
N1    N     N_2   0.195808 0.048262 0.530759 -0.462102
H29   H     H_    0.218334 0.147064 0.557656 0.258304
C65   C     C_3   0.232320 0.883247 0.518350 -0.499419
H30   H     H_    0.260373 0.851552 0.561999 0.172302
H31   H     H_    0.264386 0.905740 0.474189 0.204368
H32   H     H_    0.202387 0.762123 0.508913 0.183048
N2    N     N_2   0.799052 0.982983 0.471670 -0.486548
H33   H     H_    0.773355 0.897713 0.442324 0.256542
C66   C     C_3   0.769622 0.160537 0.483125 -0.588724
H34   H     H_    0.768966 0.242084 0.436366 0.210563
H35   H     H_    0.794699 0.239639 0.521120 0.203067
H36   H     H_    0.720738 0.140204 0.501707 0.188610
N3    N     N_2   0.303428 0.543181 0.970118 -0.459263
H37   H     H_    0.281133 0.643098 0.943391 0.258236
C67   C     C_3   0.266971 0.377118 0.979925 -0.514705
H38   H     H_    0.246327 0.335112 0.932623 0.178798
H39   H     H_    0.228565 0.403700 0.017463 0.199896
H40   H     H_    0.295984 0.261516 0.997455 0.188873
N4    N     N_2   0.700541 0.485256 0.028216 -0.487764
H41   H     H_    0.726824 0.401291 0.057551 0.256187
C68   C     C_3   0.729018 0.663884 0.016246 -0.589073
H42   H     H_    0.729237 0.746194 0.062790 0.211087
H43   H     H_    0.703509 0.741195 0.978026 0.203483
H44   H     H_    0.777998 0.645412 0.997688 0.188494
O25   O     O_3   0.158031 0.152275 0.418252 -0.540862
C69   C     C_3   0.176789 0.067582 0.356411 0.119802
H45   H     H_    0.227804 0.088690 0.349666 0.148495
H46   H     H_    0.156532 0.138340 0.313387 0.119798
C70   C     C_3   0.164333 0.858601 0.353336 -0.362883
H47   H     H_    0.184410 0.788814 0.396557 0.214973
H48   H     H_    0.113551 0.831523 0.355048 0.171283
C71   C     C_3   0.192947 0.774635 0.289189 -0.835777
H49   H     H_    0.173893 0.841888 0.244579 0.230066
H50   H     H_    0.181923 0.625408 0.287649 0.245817
H51   H     H_    0.244311 0.791195 0.287435 0.226480
O26   O     O_3   0.840987 0.820513 0.579090 -0.558388
C72   C     C_3   0.799294 0.916408 0.623408 0.136530
H52   H     H_    0.762790 0.982881 0.594803 0.160458
H53   H     H_    0.821067 0.027698 0.652150 0.107053
C73   C     C_3   0.765878 0.777385 0.669674 -0.314678
H54   H     H_    0.737029 0.684901 0.639428 0.198915
H55   H     H_    0.800378 0.691732 0.694874 0.198249
C74   C     C_3   0.724363 0.871579 0.722851 -0.887415
H56   H     H_    0.753762 0.944804 0.758291 0.238322
H57   H     H_    0.696545 0.767154 0.751361 0.229885
H58   H     H_    0.692128 0.970033 0.699647 0.237748
O27   O     O_3   0.341086 0.649573 0.082453 -0.539840
C75   C     C_3   0.322226 0.572467 0.145614 0.123968
H59   H     H_    0.273322 0.616107 0.156330 0.146274
H60   H     H_    0.348485 0.629377 0.187155 0.118523
C76   C     C_3   0.323790 0.360664 0.147256 -0.350486
H61   H     H_    0.292449 0.304951 0.109946 0.212891
H62   H     H_    0.371609 0.309560 0.135374 0.175584
C77   C     C_3   0.301965 0.287249 0.215884 -0.846764
H63   H     H_    0.331438 0.342220 0.255440 0.233548
H64   H     H_    0.305115 0.134646 0.216177 0.243862
H65   H     H_    0.252839 0.327533 0.227319 0.227848
O28   O     O_3   0.658588 0.318936 0.921565 -0.558633
C78   C     C_3   0.700237 0.415045 0.877212 0.137426
H66   H     H_    0.736905 0.480522 0.905781 0.161314
H67   H     H_    0.678481 0.527132 0.848698 0.106925
C79   C     C_3   0.733461 0.276437 0.830695 -0.315701
H68   H     H_    0.762243 0.182992 0.860766 0.198864
H69   H     H_    0.698871 0.191717 0.805386 0.198433
C80   C     C_3   0.775035 0.371098 0.777631 -0.887272
H70   H     H_    0.745686 0.445506 0.742366 0.238283
H71   H     H_    0.802686 0.266844 0.748898 0.229961
H72   H     H_    0.807421 0.468575 0.800956 0.237788
N5    N     N_2   0.058493 0.291657 0.347617 -0.497301
H73   H     H_    0.055843 0.249378 0.298841 0.279760
C81   C     C_3   0.030921 0.469883 0.361631 -0.494548
H74   H     H_    0.046951 0.569279 0.322431 0.183878
H75   H     H_    0.045457 0.521513 0.410850 0.194248
H76   H     H_    0.979380 0.461429 0.361773 0.204844
N6    N     N_2   0.927514 0.855051 0.680019 -0.482749
H77   H     H_    0.902003 0.735901 0.685454 0.258025
C82   C     C_3   0.914290 0.996996 0.729690 -0.490413
H78   H     H_    0.946724 0.984265 0.771025 0.230987
H79   H     H_    0.866679 0.979000 0.752124 0.162546
H80   H     H_    0.918624 0.137324 0.707756 0.182484
N7    N     N_2   0.441637 0.792109 0.151243 -0.499306
H81   H     H_    0.446275 0.756273 0.200495 0.282510
C83   C     C_3   0.467986 0.969298 0.133073 -0.495423
H82   H     H_    0.451499 0.073975 0.170031 0.187759
H83   H     H_    0.452842 0.012109 0.082941 0.194743
H84   H     H_    0.519589 0.963606 0.132719 0.203238
N8    N     N_2   0.571990 0.353922 0.820685 -0.482711
H85   H     H_    0.597303 0.234379 0.815184 0.257778
C84   C     C_3   0.585343 0.496317 0.771108 -0.490820
H86   H     H_    0.552945 0.484376 0.729725 0.230765
H87   H     H_    0.632958 0.478133 0.748715 0.162766
H88   H     H_    0.581063 0.636428 0.793119 0.182370

loop_
_geom_bond_atom_site_label_1
_geom_bond_atom_site_label_2
_ccdc_geom_bond_type
C34   C38   A    
C67   H40   S    
C76   H61   S    
C25   C29   A    
O1    C5    A    
C72   H52   S    
C33   O25   S    
O19   V1    S    
C64   H26   S    
O13   V1    S    
N7    H81   S    
O3    C7    A    
C58   H12   S    
C55   H7    S    
C48   C52   S    
O15   V3    S    
C64   H27   S    
N2    C66   S    
O25   C69   S    
C58   H14   S    
C67   H38   S    
C2    C43   S    
O7    C3    A    
C76   H62   S    
C21   C33   A    
C26   C30   A    
O9    V1    S    
O26   C72   S    
C74   H57   S    
C55   H6    S    
C14   C18   A    
C70   H48   S    
C18   C22   A    
O4    C8    A    
C53   H2    S    
C20   N4    S    
C65   H31   S    
C43   C47   T    
C61   H19   S    
C36   O28   S    
O1    V3    S    
C84   H88   S    
O2    V4    S    
C49   C50   T    
C17   N1    S    
C33   C37   A    
C82   H79   S    
C79   H68   S    
C57   H10   S    
O24   C62   S    
C1    O15   A    
C75   C76   S    
C23   C27   A    
C62   H22   S    
C2    O16   A    
C46   C50   S    
C45   C49   S    
O14   V2    S    
C21   C25   A    
C56   H9    S    
C81   H76   S    
C16   C20   A    
O5    V1    S    
C3    C42   S    
C44   C48   T    
C78   C79   S    
O11   C7    A    
O12   C8    A    
C22   C34   A    
C37   N5    S    
N7    C83   S    
C62   C63   S    
N5    H73   S    
C38   N6    S    
O10   V2    S    
C11   O23   S    
C59   H16   S    
C54   H4    S    
C24   C36   A    
C69   H46   S    
C9    C29   A    
C63   C64   S    
C76   C77   S    
O7    V3    S    
C11   C31   A    
N8    H85   S    
O8    V4    S    
C73   C74   S    
O28   C78   S    
C83   H84   S    
C65   H30   S    
C74   H58   S    
C55   H5    S    
C8    C13   S    
C68   H44   S    
O27   C75   S    
C53   H1    S    
C80   H72   S    
C15   C19   A    
O21   C53   S    
O10   C6    A    
C57   C58   S    
C54   H3    S    
C27   C28   A    
C79   C80   S    
C73   H55   S    
C82   H80   S    
C11   C15   A    
C51   C52   T    
C81   H75   S    
O5    C1    A    
C12   C32   A    
C69   C70   S    
C83   H83   S    
C29   C38   A    
O23   C59   S    
C71   H51   S    
C12   C16   A    
O8    C4    A    
C31   C40   A    
C57   H11   S    
C84   H86   S    
C32   C39   A    
O9    C5    A    
C62   H23   S    
C10   O22   S    
C71   H49   S    
C56   C57   S    
O11   V3    S    
C77   H65   S    
N1    H29   S    
C34   O26   S    
C18   N2    S    
C75   H59   S    
O6    V2    S    
C19   N3    S    
C71   H50   S    
C10   C30   A    
C72   C73   S    
C12   O24   S    
N3    H37   S    
C60   H18   S    
N6    C82   S    
C70   C71   S    
C4    O14   A    
N2    H33   S    
C54   C55   S    
C35   O27   S    
N3    C67   S    
C69   H45   S    
O16   V4    S    
C81   H74   S    
C67   H39   S    
C3    O13   A    
C39   N7    S    
C79   H69   S    
C10   C14   A    
O17   V3    S    
C65   H32   S    
O6    C2    A    
C63   H25   S    
N4    H41   S    
C58   H13   S    
C63   H24   S    
C40   N8    S    
O18   V4    S    
C30   C37   A    
C78   H66   S    
O12   V4    S    
C7    C14   S    
C4    C41   S    
C22   C26   A    
C35   C39   A    
C9    O21   S    
C36   C40   A    
O2    C6    A    
C73   H54   S    
C66   H36   S    
C68   H43   S    
C66   H34   S    
C1    C44   S    
C68   H42   S    
C47   C51   S    
N4    C68   S    
C53   C54   S    
O3    V1    S    
C80   H70   S    
C42   C46   T    
C5    C16   S    
C61   H20   S    
C41   C45   T    
C6    C15   S    
O20   V2    S    
C59   H15   S    
C84   H87   S    
C77   H64   S    
C64   H28   S    
C60   C61   S    
C27   C31   A    
C59   C60   S    
C13   C17   A    
C82   H78   S    
C9    C13   A    
N1    C65   S    
C74   H56   S    
C80   H71   S    
C23   C35   A    
N6    H77   S    
C28   C32   A    
C24   C28   A    
O22   C56   S    
C72   H53   S    
C25   C26   A    
C75   H60   S    
C60   H17   S    
N8    C84   S    
C17   C21   A    
C83   H82   S    
C66   H35   S    
C56   H8    S    
C70   H47   S    
C19   C23   A    
C61   H21   S    
O4    V2    S    
C20   C24   A    
N5    C81   S    
C78   H67   S    
C77   H63   S    
