data_mof_unit_58184.cif
_audit_creation_date              2012-12-10T17:03:58-0500
_audit_creation_method            fapswitch 2.2
_symmetry_space_group_name_H-M    P1
_symmetry_Int_Tables_number       1
_space_group_crystal_system       triclinic
_cell_length_a                    9.832348
_cell_length_b                    10.858565
_cell_length_c                    15.856819
_cell_angle_alpha                 93.624145
_cell_angle_beta                  80.029273
_cell_angle_gamma                 110.41325
_cell_volume                      1562.66955675

loop_
_atom_site_label
_atom_site_type_symbol
_atom_type_description
_atom_site_fract_x
_atom_site_fract_y
_atom_site_fract_z
_atom_type_partial_charge
C1    C     C_R   0.553388 0.746048 0.508247 0.810957
C2    C     C_R   0.442985 0.253327 0.498645 0.808146
C3    C     C_R   0.324128 0.477409 0.077170 -0.237928
C4    C     C_R   0.678900 0.593155 0.927376 -0.237254
C5    C     C_R   0.221258 0.453532 0.022404 -0.038815
C6    C     C_R   0.781979 0.620092 0.982267 -0.044464
C7    C     C_2   0.575203 0.886730 0.516794 -0.222528
C8    C     C_2   0.412961 0.111474 0.507285 -0.229791
C9    C     C_2   0.468028 0.928062 0.561399 -0.087051
C10   C     C_2   0.479638 0.066921 0.561108 -0.087835
C11   C     C_2   0.924665 0.493030 0.492102 -0.067563
C12   C     C_2   0.074669 0.505970 0.508335 -0.075508
C13   C     C_R   0.412139 0.487059 0.662535 0.798335
C14   C     C_R   0.588154 0.514547 0.337542 0.803910
C15   C     C_R   0.360476 0.481507 0.755344 -0.054845
C16   C     C_R   0.641858 0.533786 0.245310 -0.058251
C17   C     C_R   0.165321 0.442575 0.876884 -0.155491
C18   C     C_R   0.838072 0.618127 0.126690 -0.148864
C19   C     C_R   0.211532 0.451445 0.788764 -0.153699
C20   C     C_R   0.791568 0.590514 0.213570 -0.158987
C21   C     C_R   0.462914 0.506681 0.810948 -0.218514
C22   C     C_R   0.539647 0.503165 0.189283 -0.219238
C23   C     C_R   0.420603 0.505525 0.900362 0.086546
C24   C     C_R   0.582330 0.536663 0.102022 0.087693
C25   C     C_R   0.267942 0.467210 0.933577 0.104146
C26   C     C_R   0.735274 0.591715 0.069945 0.104808
C27   C     C_R   0.526022 0.537249 0.957052 0.051605
C28   C     C_R   0.476919 0.515759 0.046208 0.051963
Cu1   Cu    Cu3+1 0.362980 0.479380 0.485080 0.976021
Cu2   Cu    Cu3+1 0.637020 0.520620 0.514920 0.977065
H1    H     H_    0.426847 0.451294 0.215715 0.157914
H2    H     H_    0.575284 0.522786 0.782675 0.163964
H3    H     H_    0.872678 0.615105 0.255950 0.162642
H4    H     H_    0.130268 0.432185 0.746862 0.166201
H5    H     H_    0.048617 0.416078 0.900158 0.152712
H6    H     H_    0.955099 0.661494 0.104553 0.150016
H7    H     H_    0.280408 0.468766 0.144552 0.155198
H8    H     H_    0.722250 0.622235 0.861633 0.162549
H9    H     H_    0.118175 0.566638 0.560990 0.175711
H10   H     H_    0.881307 0.432966 0.439069 0.166334
N1    N     N_2   0.842890 0.551600 0.537350 -0.236683
N2    N     N_2   0.157110 0.448400 0.462650 -0.238638
O1    O     O_R   0.426810 0.668300 0.492040 -0.570284
O2    O     O_R   0.573190 0.331700 0.507960 -0.570576
O3    O     O_R   0.658240 0.703130 0.517240 -0.566463
O4    O     O_R   0.341760 0.296870 0.482760 -0.563437
O5    O     O_R   0.319390 0.472820 0.610170 -0.585333
O6    O     O_R   0.680610 0.527180 0.389830 -0.584422
O7    O     O_R   0.550820 0.507640 0.635370 -0.583906
O8    O     O_R   0.449180 0.492360 0.364630 -0.583539
C29   C     C_1   0.067093 0.409174 0.059663 0.229167
N3    N     N_1   0.943858 0.372747 0.089463 -0.265182
C30   C     C_1   0.936065 0.676403 0.945940 0.235570
N4    N     N_1   0.059178 0.721295 0.916803 -0.251967
C31   C     C_1   0.563625 0.151704 0.622349 0.308564
N5    N     N_1   0.630582 0.219202 0.671234 -0.277029
C32   C     C_1   0.344584 0.840936 0.617833 0.281568
N6    N     N_1   0.247011 0.771766 0.663675 -0.268393
C33   C     C_1   0.314925 0.021436 0.454694 0.284668
N7    N     N_1   0.236541 0.949411 0.412746 -0.259246
C34   C     C_1   0.710149 0.978465 0.472037 0.270520
N8    N     N_1   0.817985 0.051797 0.436323 -0.251018
C35   C     C_1   0.112154 0.374825 0.390885 0.448232
N9    N     N_1   0.075289 0.313812 0.331145 -0.314603
C36   C     C_1   0.883968 0.619891 0.611475 0.451609
N10   N     N_1   0.916835 0.676472 0.673331 -0.316989

loop_
_geom_bond_atom_site_label_1
_geom_bond_atom_site_label_2
_ccdc_geom_bond_type
N1    C36   S    
C11   C12   S    
Cu2   N1    S    
Cu1   Cu2   S    
C14   C16   S    
C23   C27   A    
Cu1   N2    S    
C2    O4    A    
C24   C28   A    
C9    C10   S    
Cu2   O3    S    
C9    C32   S    
C18   C26   A    
Cu1   O4    S    
C16   C20   A    
C17   C25   A    
C31   N5    T    
C23   C25   A    
C33   N7    T    
C1    O3    A    
C14   O8    A    
C30   N4    T    
Cu1   O1    S    
C15   C19   A    
C10   C31   S    
Cu2   O2    S    
C32   N6    T    
C6    C26   A    
Cu1   O5    S    
C13   O7    A    
C20   H3    S    
C22   C24   A    
Cu2   O6    S    
C3    C28   A    
C17   C19   A    
Cu2   O7    S    
C24   C26   A    
C11   N1    D    
C18   C20   A    
Cu1   O8    S    
C13   C15   S    
C21   C23   A    
C34   N8    T    
C8    C10   D    
C21   H2    S    
C5    C25   A    
C22   H1    S    
C6    C30   S    
C12   N2    D    
C11   H10   S    
C7    C9    D    
C15   C21   A    
C4    C27   A    
C2    O2    A    
C3    H7    S    
C4    C6    A    
C36   N10   T    
C8    C33   S    
C27   C28   A    
C13   O5    A    
C14   O6    A    
C5    C29   S    
C16   C22   A    
C17   H5    S    
C2    C8    S    
C1    C7    S    
C18   H6    S    
N2    C35   S    
C1    O1    A    
C12   H9    S    
C7    C34   S    
C29   N3    T    
C4    H8    S    
C35   N9    T    
C3    C5    A    
C19   H4    S    
