data_mof_unit_44402.cif
_audit_creation_date              2012-10-26T21:00:19-0400
_audit_creation_method            fapswitch 2.2
_symmetry_space_group_name_H-M    P1
_symmetry_Int_Tables_number       1
_space_group_crystal_system       triclinic
_cell_length_a                    19.296106
_cell_length_b                    8.718666
_cell_length_c                    7.521093
_cell_angle_alpha                 102.915949
_cell_angle_beta                  94.511053
_cell_angle_gamma                 93.622551
_cell_volume                      1225.23212241

loop_
_atom_site_label
_atom_site_type_symbol
_atom_type_description
_atom_site_fract_x
_atom_site_fract_y
_atom_site_fract_z
_atom_type_partial_charge
C1    C     C_R   0.496361 0.200473 0.454551 0.547419
C2    C     C_R   0.809201 0.395115 0.337050 0.267186
C3    C     C_R   0.146836 0.516842 0.510497 0.004676
C4    C     C_R   0.853165 0.483161 0.489503 0.004675
C5    C     C_R   0.176098 0.432254 0.357585 -0.124871
C6    C     C_R   0.823902 0.567737 0.642421 -0.124866
C7    C     C_R   0.247912 0.430146 0.356850 -0.140165
C8    C     C_R   0.752088 0.569844 0.643156 -0.140158
C9    C     C_R   0.292271 0.513050 0.508823 0.000450
C10   C     C_R   0.707729 0.486950 0.491177 0.000449
C11   C     C_R   0.929534 0.489388 0.493715 0.368027
C12   C     C_R   0.503639 0.799527 0.545449 0.547425
C13   C     C_R   0.070467 0.510617 0.506286 0.368028
C14   C     C_2   0.421106 0.958554 0.309578 0.286083
C15   C     C_2   0.578892 0.041446 0.690424 0.286073
C16   C     C_2   0.441842 0.320548 0.928164 0.471277
C17   C     C_2   0.558157 0.679453 0.071836 0.471282
C18   C     C_2   0.482943 0.034427 0.438547 0.002016
C19   C     C_2   0.517056 0.965573 0.561453 0.002014
C20   C     C_R   0.367899 0.504509 0.502797 0.574823
C21   C     C_R   0.632101 0.495491 0.497203 0.574823
C22   C     C_R   0.263615 0.603607 0.661989 0.254967
C23   C     C_R   0.736386 0.396403 0.338003 0.254961
C24   C     C_R   0.190799 0.604897 0.662943 0.267188
Cl1   Cl    Cl    0.317674 0.723984 0.849026 -0.458585
Cl2   Cl    Cl    0.682327 0.276036 0.150956 -0.458595
Cl3   Cl    Cl    0.155836 0.724957 0.851261 -0.438452
Cl4   Cl    Cl    0.844165 0.275066 0.148721 -0.438452
Cu1   Cu    Cu3+1 0.507710 0.517380 0.684380 1.100714
Cu2   Cu    Cu3+1 0.492290 0.482620 0.315620 1.100726
H1    H     H_    0.143145 0.364622 0.239154 0.185575
H2    H     H_    0.856855 0.635363 0.760858 0.185576
H3    H     H_    0.268827 0.361057 0.237767 0.166576
H4    H     H_    0.731173 0.638925 0.762245 0.166576
H5    H     H_    0.410377 0.995106 0.182099 0.193710
H6    H     H_    0.589620 0.004899 0.817906 0.193702
H7    H     H_    0.398617 0.330184 0.832525 0.105908
H8    H     H_    0.601391 0.669813 0.167458 0.105893
N1    N     N_R   0.031024 0.508224 0.348078 -0.174008
N2    N     N_R   0.968977 0.491781 0.651922 -0.174009
N3    N     N_R   0.961815 0.498763 0.342242 -0.129993
N4    N     N_R   0.038186 0.501242 0.657758 -0.129994
N5    N     N_2   0.480680 0.456420 0.038530 -0.162038
N6    N     N_2   0.519320 0.543580 0.961470 -0.162044
O1    O     O_R   0.505010 0.286130 0.619770 -0.500168
O2    O     O_2   0.620557 0.136925 0.650804 -0.439499
O3    O     O_2   0.454737 0.189550 0.946497 -0.493848
O4    O     O_2   0.545251 0.810453 0.053522 -0.493840
O5    O     O_R   0.494990 0.713870 0.380230 -0.500154
O6    O     O_R   0.491990 0.256780 0.308370 -0.466805
O7    O     O_R   0.508010 0.743220 0.691630 -0.466813
O8    O     O_R   0.406650 0.514660 0.655750 -0.506133
O9    O     O_R   0.593350 0.485340 0.344250 -0.506128
O10   O     O_R   0.393640 0.485310 0.344340 -0.494835
O11   O     O_R   0.606360 0.514690 0.655660 -0.494841
O12   O     O_2   0.379443 0.863071 0.349195 -0.439501

loop_
_geom_bond_atom_site_label_1
_geom_bond_atom_site_label_2
_ccdc_geom_bond_type
C10   C21   S    
C14   O12   D    
N5    N6    D    
C17   O4    D    
Cu1   Cu2   S    
C10   C23   A    
Cu2   O10   S    
C1    O6    A    
C14   C18   S    
C9    C20   S    
C2    C4    A    
C3    C13   S    
C24   Cl3   S    
C16   H7    S    
C3    C5    A    
N2    N4    A    
C12   O5    A    
Cu2   O6    S    
C17   N6    S    
C20   O8    A    
C8    H4    S    
C4    C11   S    
C21   O9    A    
C7    H3    S    
C16   N5    S    
C1    O1    A    
C1    C18   S    
C12   C19   S    
C20   O10   A    
C13   N4    A    
Cu2   O5    S    
C11   N3    A    
C5    C7    A    
C17   H8    S    
C3    C24   A    
Cu1   N6    S    
C11   N2    A    
Cu2   N5    S    
Cu2   O9    S    
C22   C24   A    
C9    C22   A    
C13   N1    A    
C4    C6    A    
C2    Cl4   S    
C7    C9    A    
C15   H6    S    
C2    C23   A    
C12   O7    A    
C16   O3    D    
N1    N3    A    
C18   C19   D    
Cu1   O7    S    
C23   Cl2   S    
C14   H5    S    
C21   O11   A    
C6    C8    A    
Cu1   O11   S    
C15   O2    D    
C5    H1    S    
C15   C19   S    
Cu1   O8    S    
C8    C10   A    
Cu1   O1    S    
C6    H2    S    
C22   Cl1   S    
