data_mof_unit_42076.cif
_audit_creation_date              2012-12-10T17:33:04-0500
_audit_creation_method            fapswitch 2.2
_symmetry_space_group_name_H-M    P1
_symmetry_Int_Tables_number       1
_space_group_crystal_system       triclinic
_cell_length_a                    12.47468
_cell_length_b                    13.283399
_cell_length_c                    14.094629
_cell_angle_alpha                 94.136808
_cell_angle_beta                  107.232949
_cell_angle_gamma                 117.231535
_cell_volume                      1923.24073658

loop_
_atom_site_label
_atom_site_type_symbol
_atom_type_description
_atom_site_fract_x
_atom_site_fract_y
_atom_site_fract_z
_atom_type_partial_charge
C1    C     C_R   0.649379 0.713593 0.506077 0.789172
C2    C     C_R   0.866331 0.523230 0.923825 0.106895
C3    C     C_R   0.825083 0.545744 0.001999 0.130724
C4    C     C_R   0.975419 0.505971 0.948626 0.053866
C5    C     C_R   0.039391 0.508761 0.051421 0.081037
C6    C     C_R   0.993943 0.530747 0.127041 -0.213031
C7    C     C_R   0.890351 0.550716 0.102778 -0.198294
C8    C     C_R   0.021971 0.484853 0.873966 -0.281784
C9    C     C_R   0.114206 0.449717 0.894882 0.147126
C10   C     C_R   0.168588 0.439624 0.994608 0.082425
C11   C     C_R   0.142601 0.483645 0.074757 0.040034
C12   C     C_R   0.616576 0.515332 0.687710 0.837751
C13   C     C_R   0.251619 0.391284 0.017714 -0.083245
C14   C     C_R   0.324872 0.406022 0.121310 -0.085729
C15   C     C_R   0.220908 0.502150 0.176293 -0.244073
C16   C     C_R   0.150136 0.960855 0.372157 -0.171181
C17   C     C_R   0.250782 0.161285 0.464944 -0.048676
C18   C     C_R   0.717819 0.922794 0.553115 -0.175301
C19   C     C_R   0.806263 0.040028 0.569515 -0.122070
C20   C     C_R   0.912930 0.072934 0.541267 -0.180308
C21   C     C_R   0.929713 0.988145 0.490674 0.082076
C22   C     C_R   0.830923 0.869143 0.463749 0.079344
C23   C     C_R   0.345698 0.285127 0.485312 0.811869
C24   C     C_R   0.039856 0.017984 0.463767 0.069463
C25   C     C_R   0.042866 0.931812 0.400674 0.160484
C26   C     C_R   0.937447 0.818436 0.364552 -0.224472
C27   C     C_R   0.832417 0.787792 0.394453 -0.184290
C28   C     C_R   0.147809 0.131087 0.498349 -0.242120
C29   C     C_R   0.253177 0.075437 0.403318 -0.168218
C30   C     C_R   0.731755 0.836018 0.504890 -0.112514
C31   C     C_R   0.248383 0.684698 0.661872 0.001379
C32   C     C_R   0.649151 0.338702 0.364123 0.128280
C33   C     C_R   0.720150 0.299370 0.331012 -0.243213
C34   C     C_R   0.380566 0.480540 0.311898 0.795929
C35   C     C_R   0.854471 0.356510 0.379657 -0.212482
C36   C     C_R   0.922596 0.455201 0.464242 0.019775
C37   C     C_R   0.842271 0.491788 0.493984 0.282455
C38   C     C_R   0.063843 0.519751 0.520822 -0.104103
C39   C     C_R   0.114219 0.615970 0.604931 0.072126
C40   C     C_R   0.031159 0.645976 0.631222 -0.273230
C41   C     C_R   0.900199 0.586923 0.576564 -0.191523
C42   C     C_R   0.159492 0.496508 0.501139 0.286545
C43   C     C_R   0.335380 0.662876 0.633839 0.122410
C44   C     C_R   0.682021 0.524160 0.797503 -0.134846
C45   C     C_R   0.311049 0.464401 0.201213 -0.138613
C46   C     C_R   0.715020 0.557883 0.978454 -0.192911
C47   C     C_R   0.640584 0.544353 0.877035 -0.005313
C48   C     C_R   0.793368 0.513536 0.822734 -0.259440
Cu1   Cu    Cu3+1 0.416420 0.526630 0.522910 1.004772
Cu2   Cu    Cu3+1 0.583580 0.473370 0.477090 0.947244
H1    H     H_    0.858012 0.565818 0.163019 0.156641
H2    H     H_    0.332220 0.097527 0.376499 0.154526
H3    H     H_    0.935929 0.753002 0.312672 0.145426
H4    H     H_    0.152620 0.895572 0.323482 0.139658
H5    H     H_    0.154207 0.198144 0.551265 0.161785
H6    H     H_    0.638872 0.899958 0.579301 0.186237
H7    H     H_    0.977614 0.165567 0.556721 0.127787
H8    H     H_    0.793823 0.105964 0.606741 0.154014
H9    H     H_    0.750674 0.700602 0.358861 0.192131
H10   H     H_    0.215850 0.550069 0.238187 0.160102
H11   H     H_    0.066272 0.718170 0.694562 0.159078
H12   H     H_    0.544740 0.292782 0.327053 0.137034
H13   H     H_    0.896943 0.317518 0.346800 0.149572
H14   H     H_    0.670656 0.223594 0.267294 0.152051
H15   H     H_    0.846813 0.619138 0.602127 0.209460
H16   H     H_    0.683487 0.572824 0.039379 0.184567
H17   H     H_    0.819802 0.494687 0.760830 0.165908
H18   H     H_    0.032393 0.527788 0.205420 0.138454
H19   H     H_    0.989135 0.494373 0.797267 0.147714
N1    N     N_R   0.290690 0.566960 0.557640 -0.224429
N2    N     N_R   0.709100 0.433710 0.442970 -0.213344
O1    O     O_R   0.545970 0.684450 0.528810 -0.577503
O2    O     O_R   0.687130 0.639470 0.490120 -0.606581
O3    O     O_R   0.519670 0.535100 0.660030 -0.507432
O4    O     O_R   0.660830 0.490120 0.621340 -0.613373
O5    O     O_R   0.312870 0.360530 0.509880 -0.547232
O6    O     O_R   0.454030 0.315550 0.471190 -0.599012
O7    O     O_R   0.339170 0.509880 0.378660 -0.566599
O8    O     O_R   0.480330 0.464900 0.339970 -0.573315
C49   C     C_2   0.250344 0.313133 0.935400 0.943556
O9    O     O_2   0.352113 0.325072 0.931764 -0.572899
O10   O     O_R   0.131655 0.223769 0.863534 -0.746760
H20   H     H_    0.142811 0.176555 0.811324 0.337075
C50   C     C_2   0.474702 0.753287 0.684594 0.915863
O11   O     O_2   0.555448 0.728847 0.730394 -0.580989
O12   O     O_R   0.510889 0.870555 0.689462 -0.773681
H21   H     H_    0.605549 0.925992 0.733935 0.331069
N3    N     N_3   0.299515 0.778212 0.750034 -0.558868
H22   H     H_    0.276822 0.841565 0.727424 0.252356
H23   H     H_    0.259443 0.744731 0.803880 0.216333
N4    N     N_3   0.124512 0.401668 0.422154 -0.521919
H24   H     H_    0.085671 0.413924 0.350320 0.198309
H25   H     H_    0.067134 0.322217 0.436488 0.199263
C51   C     C_2   0.409430 0.354115 0.144032 0.891340
O13   O     O_2   0.526398 0.415773 0.166476 -0.592078
O14   O     O_R   0.353771 0.233763 0.134291 -0.767443
H26   H     H_    0.419907 0.207170 0.145917 0.319591
N5    N     N_3   0.158630 0.433168 0.815267 -0.551867
H27   H     H_    0.196477 0.511138 0.792232 0.218078
H28   H     H_    0.078511 0.369397 0.752370 0.239271
C52   C     C_2   0.518939 0.547082 0.859702 0.952222
O15   O     O_2   0.416876 0.471347 0.793332 -0.563636
O16   O     O_R   0.519923 0.632786 0.924274 -0.750069
H29   H     H_    0.431179 0.625064 0.906545 0.330358

loop_
_geom_bond_atom_site_label_1
_geom_bond_atom_site_label_2
_ccdc_geom_bond_type
Cu2   O6    S    
C52   O15   D    
C47   C52   S    
C12   O3    A    
C17   C29   A    
C15   H10   S    
C35   C36   A    
C23   O5    A    
C4    C8    A    
Cu2   O8    S    
C26   C27   A    
C17   C23   S    
C31   C43   A    
C36   C37   A    
C50   O12   S    
C46   H16   S    
C3    C7    A    
C5    C6    A    
N5    H27   S    
C42   N1    A    
Cu1   O7    S    
C42   N4    S    
C11   C15   A    
C19   C20   A    
C8    C9    A    
Cu1   O1    S    
C18   C30   A    
C14   C45   A    
C9    C10   A    
C44   C47   A    
C18   H6    S    
C6    H18   S    
C13   C49   S    
C52   O16   S    
C21   C22   A    
C43   C50   S    
C28   H5    S    
C32   N2    A    
C19   H8    S    
C1    O1    A    
C24   C25   A    
C49   O10   S    
Cu2   O2    S    
C39   C40   A    
O12   H21   S    
C18   C19   A    
C41   H15   S    
C2    C48   A    
C16   C29   A    
C23   O6    A    
C40   H11   S    
C2    C4    A    
Cu2   N2    S    
C9    N5    S    
C34   O8    A    
N4    H25   S    
O14   H26   S    
C20   C21   A    
C8    H19   S    
Cu1   O5    S    
C34   C45   S    
C50   O11   D    
C51   O14   S    
C40   C41   A    
N3    H23   S    
O10   H20   S    
C43   N1    A    
N5    H28   S    
C22   C27   A    
C37   N2    A    
C12   O4    A    
C15   C45   A    
C26   H3    S    
N4    H24   S    
C16   C25   A    
C46   C47   A    
C31   N3    S    
C22   C30   A    
C17   C28   A    
C24   C28   A    
C49   O9    D    
C10   C13   A    
C5    C11   A    
C6    C7    A    
C3    C46   A    
Cu1   N1    S    
C1    O2    A    
C32   C33   A    
C36   C38   A    
C2    C3    A    
C25   C26   A    
C7    H1    S    
C12   C44   S    
C27   H9    S    
Cu2   O4    S    
C34   O7    A    
C38   C39   A    
C33   H14   S    
C1    C30   S    
C33   C35   A    
C31   C39   A    
C48   H17   S    
C37   C41   A    
C51   O13   D    
C16   H4    S    
C10   C11   A    
C32   H12   S    
C38   C42   A    
C4    C5    A    
N3    H22   S    
Cu1   Cu2   S    
C21   C24   A    
O16   H29   S    
Cu1   O3    S    
C35   H13   S    
C20   H7    S    
C13   C14   A    
C14   C51   S    
C44   C48   A    
C29   H2    S    
