data_mof_unit_56455.cif
_audit_creation_date              2012-12-11T15:27:33-0500
_audit_creation_method            fapswitch 2.2
_symmetry_space_group_name_H-M    P1
_symmetry_Int_Tables_number       1
_space_group_crystal_system       triclinic
_cell_length_a                    23.213697
_cell_length_b                    7.301691
_cell_length_c                    15.150438
_cell_angle_alpha                 90.023504
_cell_angle_beta                  108.261336
_cell_angle_gamma                 89.967239
_cell_volume                      2438.65610542

loop_
_atom_site_label
_atom_site_type_symbol
_atom_type_description
_atom_site_fract_x
_atom_site_fract_y
_atom_site_fract_z
_atom_type_partial_charge
O1    O     O_R   0.711000 0.648610 0.341170 -0.535119
O2    O     O_R   0.289000 0.351390 0.658830 -0.535020
O3    O     O_R   0.789000 0.148610 0.158830 -0.534638
O4    O     O_R   0.211000 0.851390 0.841170 -0.535028
O5    O     O_R   0.829650 0.322030 0.336650 -0.537239
O6    O     O_R   0.170350 0.677970 0.663350 -0.537038
O7    O     O_R   0.670350 0.822030 0.163350 -0.537244
O8    O     O_R   0.329650 0.177970 0.836650 -0.537096
C1    C     C_R   0.854262 0.485780 0.356779 0.717506
C2    C     C_R   0.145738 0.514218 0.643222 0.717596
C3    C     C_R   0.645738 0.985821 0.143221 0.717422
C4    C     C_R   0.354262 0.014178 0.856778 0.717538
O9    O     O_R   0.713950 0.319280 0.352070 -0.539700
O10   O     O_R   0.286050 0.680720 0.647930 -0.539504
O11   O     O_R   0.786050 0.819280 0.147930 -0.539898
O12   O     O_R   0.213950 0.180720 0.852070 -0.539556
O13   O     O_R   0.672470 0.142870 0.174360 -0.533741
O14   O     O_R   0.327530 0.857130 0.825640 -0.533945
O15   O     O_R   0.827530 0.642870 0.325640 -0.533798
O16   O     O_R   0.172470 0.357130 0.674360 -0.533922
C5    C     C_R   0.701870 0.487748 0.375937 0.699524
C6    C     C_R   0.298285 0.512284 0.624196 0.699414
C7    C     C_R   0.798093 0.987683 0.124030 0.700049
C8    C     C_R   0.201745 0.012406 0.875833 0.699367
O17   O     O_3   0.736530 0.478650 0.191680 -0.378847
O18   O     O_3   0.263470 0.521350 0.808320 -0.378999
O19   O     O_3   0.763470 0.978650 0.308320 -0.379135
O20   O     O_3   0.236530 0.021350 0.691680 -0.378929
V1    V     V_3+5 0.752500 0.206170 0.260820 1.423484
V2    V     V_3+5 0.247500 0.793830 0.739180 1.423705
V3    V     V_3+5 0.747500 0.706170 0.239180 1.423129
V4    V     V_3+5 0.252500 0.293830 0.760820 1.423491
C9    C     C_R   0.827212 0.998509 0.051793 -0.080252
C10   C     C_R   0.172401 0.002790 0.947923 -0.081296
C11   C     C_R   0.672724 0.498362 0.448166 -0.079704
C12   C     C_R   0.327669 0.502023 0.552155 -0.081200
C13   C     C_R   0.820720 0.053185 0.890798 0.303115
C14   C     C_R   0.178058 0.943047 0.108294 0.297899
C15   C     C_R   0.679260 0.549069 0.609549 0.295950
C16   C     C_R   0.321848 0.445130 0.391355 0.299071
C17   C     C_R   0.792741 0.032498 0.960160 -0.198971
C18   C     C_R   0.206193 0.959862 0.038851 -0.196250
C19   C     C_R   0.707209 0.530996 0.539978 -0.199438
C20   C     C_R   0.293774 0.461002 0.460983 -0.195271
C21   C     C_R   0.889995 0.985575 0.076668 -0.220393
C22   C     C_R   0.109932 0.026422 0.923459 -0.219576
C23   C     C_R   0.609887 0.487030 0.423137 -0.220714
C24   C     C_R   0.390269 0.522266 0.576896 -0.220924
C25   C     C_R   0.920742 0.012126 0.010719 0.044972
C26   C     C_R   0.079063 0.009541 0.989864 0.048139
C27   C     C_R   0.579280 0.509410 0.489545 0.046278
C28   C     C_R   0.421121 0.502786 0.510644 0.048829
C29   C     C_R   0.885185 0.044737 0.916640 0.063732
C30   C     C_R   0.114274 0.972776 0.083737 0.058394
C31   C     C_R   0.614955 0.534649 0.584163 0.061550
C32   C     C_R   0.385727 0.473188 0.416190 0.057368
C33   C     C_R   0.985620 0.006540 0.035618 0.081762
C34   C     C_R   0.014345 0.026023 0.965580 0.081229
C35   C     C_R   0.514443 0.504250 0.464748 0.081256
C36   C     C_R   0.485941 0.512935 0.535441 0.081462
C37   C     C_R   0.977348 0.060991 0.873546 -0.191422
C38   C     C_R   0.022787 0.985073 0.128648 -0.188062
C39   C     C_R   0.523270 0.527541 0.628830 -0.191141
C40   C     C_R   0.477126 0.493391 0.371286 -0.187929
C41   C     C_R   0.914727 0.071864 0.850168 -0.201321
C42   C     C_R   0.085203 0.968889 0.151838 -0.207957
C43   C     C_R   0.585864 0.540330 0.652228 -0.204454
C44   C     C_R   0.414698 0.476356 0.347913 -0.209091
H1    H     H_    0.889716 0.102557 0.778519 0.136886
H2    H     H_    0.110409 0.954647 0.224807 0.134906
H3    H     H_    0.611363 0.550403 0.725317 0.139068
H4    H     H_    0.389350 0.469581 0.274704 0.133591
H5    H     H_    0.087062 0.055509 0.851329 0.106684
H6    H     H_    0.913164 0.955550 0.148621 0.106989
H7    H     H_    0.413253 0.554285 0.648717 0.107330
H8    H     H_    0.586527 0.459076 0.350970 0.107038
H9    H     H_    0.254368 0.937270 0.053915 0.110039
H10   H     H_    0.743986 0.040478 0.943875 0.110187
H11   H     H_    0.245510 0.440377 0.445788 0.109702
H12   H     H_    0.755825 0.543988 0.555915 0.111271
H13   H     H_    0.995060 0.082068 0.816730 0.123331
H14   H     H_    0.005374 0.981832 0.186573 0.123116
H15   H     H_    0.505798 0.526959 0.686739 0.123582
H16   H     H_    0.494531 0.499412 0.313359 0.123219
C45   C     C_1   0.416752 0.006915 0.918734 -0.192626
C46   C     C_1   0.583249 0.993082 0.081262 -0.192377
C47   C     C_1   0.083248 0.507010 0.581263 -0.192555
C48   C     C_1   0.916752 0.492982 0.418739 -0.192452
C49   C     C_1   0.469143 0.002367 0.969964 -0.000633
C50   C     C_1   0.530858 0.997627 0.030031 -0.000568
C51   C     C_1   0.030857 0.502411 0.530034 -0.000566
C52   C     C_1   0.969142 0.497576 0.469969 -0.000534
N1    N     N_2   0.785328 0.080602 0.795441 -0.539009
H17   H     H_    0.794901 0.991371 0.749211 0.250067
C53   C     C_3   0.721796 0.129497 0.771538 -0.521903
H18   H     H_    0.704249 0.165184 0.696609 0.214037
H19   H     H_    0.716020 0.250786 0.812250 0.224398
H20   H     H_    0.694996 0.012333 0.784263 0.174877
N2    N     N_2   0.212173 0.891557 0.201606 -0.531726
H21   H     H_    0.191639 0.793779 0.230540 0.252584
C54   C     C_3   0.277355 0.868704 0.227840 -0.511568
H22   H     H_    0.295746 0.843744 0.303850 0.210111
H23   H     H_    0.299012 0.994620 0.212108 0.187159
H24   H     H_    0.288787 0.749100 0.191121 0.206231
N3    N     N_2   0.714325 0.586033 0.704156 -0.536510
H25   H     H_    0.699347 0.695888 0.733714 0.253146
C55   C     C_3   0.779700 0.566011 0.733986 -0.529595
H26   H     H_    0.797682 0.578110 0.810843 0.209765
H27   H     H_    0.800493 0.675223 0.702992 0.177180
H28   H     H_    0.792539 0.429192 0.714134 0.226912
N4    N     N_2   0.287523 0.397180 0.297552 -0.531195
H29   H     H_    0.308801 0.305739 0.266260 0.250424
C56   C     C_3   0.222811 0.365105 0.272620 -0.513911
H30   H     H_    0.204142 0.339938 0.196647 0.209588
H31   H     H_    0.199452 0.486978 0.288952 0.186143
H32   H     H_    0.213655 0.242666 0.309651 0.208697

loop_
_geom_bond_atom_site_label_1
_geom_bond_atom_site_label_2
_ccdc_geom_bond_type
O17   V3    S    
O1    C5    A    
N1    H17   S    
C47   C51   T    
O19   V1    S    
C9    C21   A    
O12   C8    A    
O3    C7    A    
C53   H18   S    
C10   C18   A    
O15   V3    S    
C53   H20   S    
C25   C33   A    
C33   C38   A    
O7    C3    A    
N3    C55   S    
C35   C40   A    
C54   H22   S    
C4    C45   S    
C36   C39   A    
C40   C44   A    
O9    V1    S    
C23   H8    S    
C14   C18   A    
C1    C48   S    
O4    C8    A    
C25   C29   A    
C3    C46   S    
O1    V3    S    
O13   V1    S    
O2    V4    S    
O3    V1    S    
C40   H16   S    
C28   C36   A    
C1    O15   A    
C15   C31   A    
C48   C52   T    
C2    O16   A    
C7    C9    S    
O2    C6    A    
C55   H26   S    
C10   C22   A    
C11   C19   A    
C16   C20   A    
C43   H3    S    
C44   H4    S    
C56   H32   S    
C13   C29   A    
C34   C37   A    
O11   C7    A    
C38   H14   S    
C11   C23   A    
C35   C36   A    
N1    C53   S    
C55   H27   S    
C24   H7    S    
O10   V2    S    
C16   N4    S    
O5    V1    S    
C39   C43   A    
C2    C47   S    
O7    V3    S    
C38   C42   A    
C13   N1    S    
O8    V4    S    
C46   C50   T    
C51   C52   S    
C45   C49   T    
O18   V4    S    
C23   C27   A    
C16   C32   A    
C19   H12   S    
C32   C44   A    
C8    C10   S    
C39   H15   S    
C21   H6    S    
C26   C34   A    
O5    C1    A    
C31   C43   A    
N2    H21   S    
C14   C30   A    
C21   C25   A    
O8    C4    A    
O9    C5    A    
N4    C56   S    
C26   C30   A    
O14   V2    S    
N2    C54   S    
C54   H24   S    
C55   H28   S    
C12   C20   A    
C27   C35   A    
C17   H10   S    
C29   C41   A    
C56   H30   S    
O16   V4    S    
C15   N3    S    
C3    O13   A    
N4    H29   S    
O6    V2    S    
C20   H11   S    
C14   N2    S    
O6    C2    A    
C15   C19   A    
C53   H19   S    
O11   V3    S    
C30   C42   A    
O12   V4    S    
C6    C12   S    
N3    H25   S    
C22   C26   A    
C9    C17   A    
O10   C6    A    
O20   V2    S    
C5    C11   S    
C37   H13   S    
C33   C34   A    
C42   H2    S    
C41   H1    S    
C12   C24   A    
C27   C31   A    
C13   C17   A    
C37   C41   A    
C24   C28   A    
C18   H9    S    
C54   H23   S    
C4    O14   A    
C49   C50   S    
C22   H5    S    
O4    V2    S    
C28   C32   A    
C56   H31   S    
