data_mof_unit_11650.cif
_audit_creation_date              2012-12-11T17:14:03-0500
_audit_creation_method            fapswitch 2.2
_symmetry_space_group_name_H-M    P1
_symmetry_Int_Tables_number       1
_space_group_crystal_system       triclinic
_cell_length_a                    18.224847
_cell_length_b                    7.09293
_cell_length_c                    13.019306
_cell_angle_alpha                 90.159709
_cell_angle_beta                  72.016664
_cell_angle_gamma                 89.956889
_cell_volume                      1600.74603174

loop_
_atom_site_label
_atom_site_type_symbol
_atom_type_description
_atom_site_fract_x
_atom_site_fract_y
_atom_site_fract_z
_atom_type_partial_charge
O1    O     O_R   0.453880 0.506200 0.150010 -0.535098
O2    O     O_R   0.546120 0.006200 0.849990 -0.535703
O3    O     O_R   0.604080 0.177770 0.007280 -0.538399
O4    O     O_R   0.395920 0.677770 0.992720 -0.538701
C1    C     C_R   0.635974 0.344468 0.001798 0.730981
C2    C     C_R   0.364026 0.844554 0.998193 0.730440
O5    O     O_R   0.458010 0.176640 0.159130 -0.535633
O6    O     O_R   0.541990 0.676640 0.840870 -0.535328
O7    O     O_R   0.399010 0.004010 0.002930 -0.538902
O8    O     O_R   0.600990 0.504010 0.997070 -0.539557
C3    C     C_R   0.443201 0.345778 0.201746 0.732712
C4    C     C_R   0.556806 0.845069 0.798260 0.731225
O9    O     O_3   0.480810 0.338440 0.948570 -0.375515
O10   O     O_3   0.519190 0.838440 0.051430 -0.374938
V1    V     V_3+5 0.503560 0.064490 0.009540 1.491157
V2    V     V_3+5 0.496440 0.564490 0.990460 1.490878
C5    C     C_R   0.582839 0.888286 0.502199 0.660302
C6    C     C_R   0.415576 0.433060 0.495327 0.655654
H1    H     H_    0.485598 0.887231 0.646212 0.148096
H2    H     H_    0.512601 0.432466 0.351106 0.145288
H3    H     H_    0.662642 0.892505 0.293098 0.174559
H4    H     H_    0.335318 0.461257 0.703630 0.173562
C7    C     C_R   0.592842 0.854274 0.681590 -0.163428
C8    C     C_R   0.407302 0.358340 0.318437 -0.158849
C9    C     C_R   0.955424 0.864031 0.383525 -0.268413
C10   C     C_R   0.045107 0.330247 0.617183 -0.271169
C11   C     C_R   0.924671 0.876234 0.494896 -0.173239
C12   C     C_R   0.075656 0.327441 0.505581 -0.172516
C13   C     C_R   0.845062 0.882856 0.544266 0.600056
C14   C     C_R   0.154831 0.346304 0.455562 0.600249
C15   C     C_R   0.793279 0.869544 0.481730 -0.009960
C16   C     C_R   0.206597 0.361543 0.518015 -0.010855
C17   C     C_R   0.825813 0.866683 0.366886 0.005486
C18   C     C_R   0.173882 0.375487 0.632588 0.005856
C19   C     C_R   0.710888 0.865930 0.527642 0.024376
C20   C     C_R   0.288939 0.369401 0.472008 0.024073
C21   C     C_R   0.663790 0.880281 0.458558 -0.008366
C22   C     C_R   0.335128 0.411861 0.539705 -0.004084
C23   C     C_R   0.697695 0.884037 0.346711 -0.139673
C24   C     C_R   0.300864 0.431335 0.650971 -0.139039
C25   C     C_R   0.777071 0.873141 0.301580 -0.181579
C26   C     C_R   0.221996 0.409279 0.696911 -0.182590
C27   C     C_R   0.673083 0.843558 0.639334 -0.166745
C28   C     C_R   0.327706 0.332849 0.361729 -0.166176
C29   C     C_R   0.547860 0.878661 0.613366 -0.148982
C30   C     C_R   0.450967 0.410736 0.384842 -0.159177
C31   C     C_R   0.906934 0.862293 0.319042 -0.075240
C32   C     C_R   0.093154 0.357778 0.681011 -0.075674
H5    H     H_    0.703560 0.811666 0.695884 0.204107
H6    H     H_    0.298530 0.281643 0.307017 0.204667
H7    H     H_    0.017540 0.862585 0.347141 0.155672
H8    H     H_    0.983317 0.316202 0.653974 0.158556
H9    H     H_    0.963150 0.886108 0.543598 0.162043
H10   H     H_    0.037232 0.314337 0.456963 0.163143
H11   H     H_    0.800004 0.873142 0.214320 0.116940
H12   H     H_    0.198863 0.422381 0.783841 0.118010
C33   C     C_1   0.216316 0.858678 0.000277 -0.157453
C34   C     C_1   0.783685 0.358808 0.999707 -0.157457
C35   C     C_1   0.283609 0.852621 0.999080 -0.157336
C36   C     C_1   0.716395 0.352520 0.000909 -0.156854
O11   O     O_R   0.899030 0.205490 0.002790 -0.535907
O12   O     O_R   0.100970 0.705490 0.997210 -0.537127
O13   O     O_R   0.042000 0.536370 0.840840 -0.541437
O14   O     O_R   0.958000 0.036370 0.159160 -0.540686
C37   C     C_R   0.057501 0.367799 0.798279 0.708564
C38   C     C_R   0.942577 0.868554 0.201742 0.709098
O15   O     O_R   0.895930 0.535070 0.992690 -0.539040
O16   O     O_R   0.104070 0.035070 0.007310 -0.537328
O17   O     O_R   0.953870 0.707520 0.150040 -0.539312
O18   O     O_R   0.046130 0.207520 0.849960 -0.539032
C39   C     C_R   0.864128 0.366792 0.998706 0.729091
C40   C     C_R   0.135875 0.866695 0.001287 0.729084
O19   O     O_3   0.019200 0.374340 0.051340 -0.372044
O20   O     O_3   0.980800 0.874340 0.948660 -0.372846
V3    V     V_3+5 0.996440 0.648350 0.990470 1.465540
V4    V     V_3+5 0.003560 0.148350 0.009530 1.470393
F1    F     F_    0.537466 0.905889 0.437269 -0.688553
F2    F     F_    0.459936 0.477757 0.558703 -0.692846
F3    F     F_    0.821470 0.917962 0.651797 -0.715974
F4    F     F_    0.177555 0.363744 0.346739 -0.715102

loop_
_geom_bond_atom_site_label_1
_geom_bond_atom_site_label_2
_ccdc_geom_bond_type
C14   C16   A    
O13   C37   A    
C7    C29   A    
C11   C13   A    
O1    C3    A    
O2    C4    A    
C2    O7    A    
C23   C25   A    
O5    C3    A    
C4    C7    S    
O20   V4    S    
C16   C20   A    
C19   C21   A    
C5    C29   A    
C34   C39   S    
C33   C35   T    
C38   O17   A    
C34   C36   T    
C37   O18   A    
C3    C8    S    
C7    C27   A    
C25   H11   S    
C26   H12   S    
C18   C26   A    
H3    C23   S    
C15   C17   A    
C32   C37   S    
C19   C27   A    
C9    C31   A    
C31   C38   S    
C10   C32   A    
C14   F4    S    
O11   C39   A    
C24   C26   A    
O6    V2    S    
O19   V3    S    
C6    C30   A    
O11   V4    S    
O20   V3    S    
O4    C2    A    
C12   H10   S    
C27   H5    S    
O5    V1    S    
H1    C29   S    
O14   C38   A    
O4    V2    S    
C9    H7    S    
C10   H8    S    
C13   F3    S    
O16   C40   A    
H4    C24   S    
C5    F1    S    
O14   V4    S    
O12   C40   A    
O1    V2    S    
C5    C21   A    
O2    V1    S    
C6    F2    S    
O18   V4    S    
C9    C11   A    
C17   C31   A    
O19   V4    S    
C15   C19   A    
O12   V3    S    
C20   C28   A    
C18   C32   A    
O3    V1    S    
C28   H6    S    
C1    C36   S    
C2    C35   S    
O3    C1    A    
C11   H9    S    
O16   V4    S    
C10   C12   A    
C17   C25   A    
C12   C14   A    
C6    C22   A    
C8    C30   A    
C1    O8    A    
C21   C23   A    
O8    V2    S    
C22   C24   A    
O13   V3    S    
C8    C28   A    
C20   C22   A    
O17   V3    S    
O15   C39   A    
C33   C40   S    
O7    V1    S    
O15   V3    S    
C13   C15   A    
O9    V2    S    
O10   V1    S    
H2    C30   S    
O6    C4    A    
C16   C18   A    
