data_mof_unit_38051.cif
_audit_creation_date              2013-03-05T15:41:45-0500
_audit_creation_method            fapswitch 2.2
_symmetry_space_group_name_H-M    P1
_symmetry_Int_Tables_number       1
_space_group_crystal_system       triclinic
_cell_length_a                    11.160283
_cell_length_b                    12.712801
_cell_length_c                    23.553143
_cell_angle_alpha                 90.274828
_cell_angle_beta                  96.83815
_cell_angle_gamma                 68.539939
_cell_volume                      3085.17265017

loop_
_atom_site_label
_atom_site_type_symbol
_atom_site_description
_atom_site_fract_x
_atom_site_fract_y
_atom_site_fract_z
_atom_type_partial_charge
O1    O     O_R   0.196340 0.303200 0.448500 -0.482835
O2    O     O_R   0.199310 0.519670 0.454880 -0.484240
C1    C     C_R   0.149192 0.616891 0.428816 0.548617
O3    O     O_R   0.045660 0.691380 0.441680 -0.460546
O4    O     O_R   0.811930 0.659460 0.430950 -0.454934
C2    C     C_R   0.745190 0.606752 0.404913 0.573626
O5    O     O_R   0.757900 0.507620 0.421760 -0.455958
O6    O     O_R   0.988630 0.322990 0.439840 -0.488950
C3    C     C_R   0.101052 0.282636 0.423296 0.549225
O7    O     O_R   0.196380 0.301720 0.573850 -0.478981
O8    O     O_R   0.199350 0.518300 0.571080 -0.464556
C4    C     C_R   0.152870 0.617548 0.590125 0.572108
O9    O     O_R   0.045700 0.689900 0.567030 -0.444144
O10   O     O_R   0.811960 0.658090 0.547150 -0.474239
C5    C     C_R   0.750772 0.601528 0.566135 0.552426
O11   O     O_R   0.757930 0.506140 0.547110 -0.480627
O12   O     O_R   0.988670 0.321620 0.556040 -0.500772
C6    C     C_R   0.099546 0.279873 0.585552 0.551652
Cr1   Cr    Cr6+3 0.189770 0.415650 0.511620 1.135559
Cr2   Cr    Cr6+3 0.930400 0.667320 0.496770 1.183861
Cr3   Cr    Cr6+3 0.879870 0.417010 0.491650 1.121390
O13   O     O_3   0.000020 0.499990 0.500010 -0.315475
C7    C     C_R   0.664759 0.754349 0.140307 0.012035
C8    C     C_R   0.677698 0.648541 0.347127 -0.006979
C9    C     C_R   0.630597 0.578957 0.255043 -0.147584
C10   C     C_R   0.627171 0.577883 0.313728 0.162010
C11   C     C_R   0.696795 0.740032 0.320182 0.158792
C12   C     C_R   0.691362 0.744945 0.260246 0.018049
C13   C     C_R   0.667213 0.658549 0.228786 -0.044551
C14   C     C_R   0.666087 0.658837 0.170080 -0.108612
C15   C     C_R   0.690201 0.840417 0.170725 -0.141499
C16   C     C_R   0.706412 0.834542 0.230479 -0.097827
H1    H     H_    0.648220 0.590654 0.147223 0.145660
H2    H     H_    0.689018 0.915310 0.148562 0.142437
H3    H     H_    0.599860 0.520123 0.229397 0.161103
H4    H     H_    0.721653 0.904199 0.252563 0.184285
C17   C     C_1   0.236175 0.161653 0.123082 0.013774
C18   C     C_2   0.182079 0.232226 0.226559 -0.107983
C19   C     C_2   0.155558 0.165363 0.263110 -0.103017
C20   C     C_1   0.132478 0.199541 0.320707 -0.008087
C21   C     C_1   0.211119 0.196342 0.169777 -0.029586
C22   C     C_1   0.115979 0.232723 0.368379 0.038773
H5    H     H_    0.153791 0.083654 0.250340 0.145326
H6    H     H_    0.184634 0.313596 0.239529 0.147197
C23   C     C_1   0.167843 0.749131 0.123594 0.006102
C24   C     C_2   0.142561 0.687704 0.227678 -0.122859
C25   C     C_2   0.234980 0.677868 0.271583 -0.092602
C26   C     C_1   0.216140 0.653831 0.329084 0.033927
C27   C     C_1   0.155446 0.719790 0.170573 -0.038647
C28   C     C_1   0.192684 0.635684 0.376040 0.076522
H7    H     H_    0.323012 0.691330 0.264820 0.150103
H8    H     H_    0.054035 0.675366 0.234758 0.143833
C29   C     C_1   0.625773 0.762161 0.865305 0.053553
C30   C     C_2   0.676663 0.749465 0.758264 0.187364
C31   C     C_2   0.690033 0.652101 0.731454 0.211709
C32   C     C_1   0.695854 0.641654 0.670991 0.089134
C33   C     C_1   0.654633 0.755255 0.817509 0.052788
C34   C     C_1   0.711153 0.627339 0.621510 0.077087
C35   C     C_R   0.195678 0.184214 0.855476 0.000714
C36   C     C_R   0.105198 0.236884 0.642995 -0.021173
C37   C     C_R   0.005541 0.175555 0.715708 0.252108
C38   C     C_R   0.012289 0.195555 0.658130 -0.043508
C39   C     C_R   0.188609 0.261211 0.685158 -0.113944
C40   C     C_R   0.181070 0.244681 0.742023 -0.004817
C41   C     C_R   0.092736 0.197512 0.758195 0.056417
C42   C     C_R   0.100175 0.168249 0.815916 -0.075483
C43   C     C_R   0.269665 0.244771 0.839565 -0.050802
C44   C     C_R   0.263363 0.273565 0.782804 -0.074969
H9    H     H_    0.042379 0.122643 0.829148 0.181028
H10   H     H_    0.341628 0.259918 0.870136 0.196760
H11   H     H_    0.328774 0.311483 0.770272 0.199322
H12   H     H_    0.943103 0.181967 0.625428 0.194541
H13   H     H_    0.256624 0.298286 0.673975 0.188952
C45   C     C_R   0.130761 0.751149 0.849836 -0.004071
C46   C     C_R   0.204664 0.640839 0.647336 -0.025219
C47   C     C_R   0.316189 0.560497 0.741268 0.241716
C48   C     C_R   0.305977 0.556072 0.681378 0.191743
C49   C     C_R   0.130701 0.739927 0.672567 0.168781
C50   C     C_R   0.128262 0.738661 0.731676 -0.061353
C51   C     C_R   0.220732 0.647980 0.767323 -0.044498
C52   C     C_R   0.216342 0.652660 0.827372 0.233813
C53   C     C_R   0.032821 0.831799 0.813498 -0.153141
C54   C     C_R   0.032182 0.826010 0.755313 -0.072397
H14   H     H_    0.962517 0.905573 0.829888 0.191520
H15   H     H_    0.957293 0.893023 0.729388 0.254973
O14   O     O_R   0.113660 0.883270 0.047820 -0.504983
O15   O     O_R   0.186930 0.068530 0.043990 -0.493924
C55   C     C_R   0.265966 0.109677 0.069510 0.549401
O16   O     O_R   0.377770 0.089040 0.054220 -0.500485
O17   O     O_R   0.562800 0.872960 0.056970 -0.502683
C56   C     C_R   0.600025 0.774576 0.081417 0.537976
O18   O     O_R   0.555390 0.700940 0.062700 -0.518870
O19   O     O_R   0.295020 0.731920 0.049950 -0.490357
C57   C     C_R   0.189727 0.787556 0.069778 0.545085
O20   O     O_R   0.094290 0.884230 0.921550 -0.523498
O21   O     O_R   0.168980 0.069410 0.926940 -0.499778
C58   C     C_R   0.240358 0.116146 0.908224 0.548697
O22   O     O_R   0.358400 0.089990 0.927950 -0.501881
O23   O     O_R   0.544850 0.873850 0.939920 -0.497281
C59   C     C_R   0.574998 0.776606 0.918815 0.547579
O24   O     O_R   0.536020 0.701900 0.936430 -0.452537
O25   O     O_R   0.277070 0.732810 0.932890 -0.442241
C60   C     C_R   0.163946 0.786458 0.906911 0.557448
Cr4   Cr    Cr6+3 0.149500 0.973980 0.985330 1.058571
Cr5   Cr    Cr6+3 0.457000 0.976510 0.994660 1.061090
Cr6   Cr    Cr6+3 0.411170 0.724270 0.995270 1.119484
O26   O     O_3   0.339220 0.891590 0.991750 -0.273051
Cl1   Cl    Cl    0.710426 0.526842 0.770002 -0.455392
N1    N     N_R   0.671431 0.851151 0.729051 0.065124
O27   O     O_R   0.630590 0.947425 0.753835 -0.276605
O28   O     O_R   0.718790 0.847572 0.680894 -0.287853
Cl2   Cl    Cl    0.882147 0.130177 0.732575 -0.496416
N2    N     N_R   0.286651 0.556123 0.865327 0.103455
O29   O     O_R   0.402655 0.541153 0.890170 -0.235690
O30   O     O_R   0.224480 0.497271 0.884014 -0.350139
Cl3   Cl    Cl    0.453255 0.457131 0.780470 -0.382278
Cl4   Cl    Cl    0.424869 0.446331 0.649423 -0.443620
N3    N     N_R   0.060088 0.841826 0.637910 0.092379
O31   O     O_R   0.933988 0.879008 0.628089 -0.246273
O32   O     O_R   0.122887 0.885015 0.607988 -0.305689
N4    N     N_R   0.574637 0.503836 0.338968 0.097491
O33   O     O_R   0.512324 0.534682 0.383245 -0.316989
O34   O     O_R   0.574127 0.412623 0.313773 -0.320159
N5    N     N_R   0.722738 0.825966 0.353576 0.082145
O35   O     O_R   0.645305 0.878752 0.390294 -0.290122
O36   O     O_R   0.829834 0.843715 0.351455 -0.328088

loop_
_geom_bond_atom_site_label_1
_geom_bond_atom_site_label_2
_geom_bond_distance
_ccdc_geom_bond_type
O15   C55   1.273303 A    
O19   C57   1.272232 A    
C17   C55   1.438892 S    
C8    C11   1.421841 A    
C31   C32   1.436594 S    
O14   Cr4   2.037177 S    
C58   O22   1.263776 A    
O4    Cr2   1.941266 S    
Cr5   O26   1.978415 S    
C24   C27   1.445794 S    
O8    Cr1   1.929922 S    
C3    C22   1.438603 S    
O11   Cr3   2.030526 S    
O22   Cr5   2.051665 S    
C36   C39   1.391394 A    
C16   H4    1.080924 S    
C12   C13   1.410416 A    
C49   N3    1.440649 S    
C8    C10   1.414882 A    
C48   Cl4   1.773878 S    
N1    O28   1.301013 A    
C35   C42   1.401920 A    
C18   C19   1.342783 D    
C42   H9    1.082854 S    
Cr6   O26   1.977954 S    
C5    O11   1.268902 A    
C24   H8    1.086905 S    
C36   C38   1.402400 A    
N3    O31   1.301632 A    
O14   C57   1.270587 A    
C35   C43   1.398752 A    
C30   C31   1.353847 D    
C15   C16   1.396284 A    
O6    C3    1.277781 A    
C25   C26   1.445896 S    
C10   N4    1.440647 S    
C14   H1    1.085052 S    
C20   C22   1.208492 T    
Cr3   O13   1.979846 S    
O25   C60   1.274149 A    
C45   C53   1.394321 A    
C23   C57   1.439405 S    
C1    C28   1.438477 S    
O20   C60   1.273133 A    
O12   C6    1.270516 A    
C29   C59   1.426516 S    
C9    C13   1.393560 A    
O23   Cr5   1.917140 S    
O1    Cr1   2.046478 S    
C43   C44   1.374676 A    
C7    C14   1.399588 A    
O10   Cr2   1.912418 S    
C12   C16   1.411664 A    
Cr1   O13   1.977986 S    
O1    C3    1.266189 A    
C47   C48   1.404153 A    
C18   C21   1.446000 S    
C19   C20   1.446060 S    
C29   C33   1.201451 T    
C49   C50   1.395984 A    
C19   H5    1.086479 S    
C39   H13   1.085487 S    
C9    C10   1.387562 A    
O5    Cr3   2.055928 S    
O12   Cr3   1.935641 S    
C39   C40   1.373894 A    
C30   N1    1.446261 S    
C7    C15   1.400874 A    
C18   H6    1.086592 S    
C13   C14   1.381274 A    
O19   Cr6   1.911156 S    
O23   C59   1.272079 A    
C23   C27   1.208645 T    
O7    Cr1   2.041559 S    
C11   N5    1.436980 S    
C2    C8    1.473787 S    
O21   C58   1.270580 A    
O6    Cr3   1.915253 S    
C15   H2    1.083082 S    
C38   H12   1.083524 S    
C4    O9    1.271748 A    
C46   C48   1.408339 A    
N4    O33   1.301625 A    
C9    H3    1.084438 S    
C6    C36   1.447303 S    
C54   H15   1.076863 S    
Cr2   O13   1.978055 S    
C41   C42   1.396057 A    
C53   H14   1.083735 S    
O21   Cr4   1.921099 S    
C35   C58   1.444983 S    
C5    C34   1.425263 S    
C7    C56   1.463167 S    
C50   C51   1.425254 A    
C45   C52   1.413799 A    
C52   N2    1.435241 S    
C1    O3    1.266335 A    
C40   C44   1.390752 A    
C56   O18   1.266399 A    
O20   Cr4   2.053213 S    
N5    O36   1.301388 A    
N2    O29   1.301953 A    
O18   Cr6   2.060927 S    
O24   Cr6   2.027084 S    
C24   C25   1.342277 D    
O9    Cr2   2.057995 S    
O2    Cr1   1.923504 S    
C47   C51   1.424990 A    
O17   Cr5   1.936364 S    
C51   C52   1.421205 A    
C25   H7    1.086488 S    
O8    C4    1.278011 A    
C2    O5    1.275304 A    
C31   Cl1   1.763888 S    
C43   H10   1.083813 S    
C40   C41   1.414449 A    
O2    C1    1.279440 A    
N1    O27   1.301842 A    
C50   C54   1.399213 A    
O17   C56   1.279927 A    
O4    C2    1.277620 A    
O7    C6    1.269761 A    
C44   H11   1.078209 S    
C26   C28   1.208492 T    
C59   O24   1.269796 A    
C47   Cl3   1.767413 S    
C32   C34   1.201292 T    
O25   Cr6   1.941466 S    
C17   C21   1.208572 T    
C37   C38   1.396809 A    
C46   C49   1.403616 A    
N3    O32   1.300862 A    
N4    O34   1.301613 A    
O15   Cr4   1.934480 S    
O3    Cr2   2.030021 S    
C37   C41   1.410826 A    
C55   O16   1.273578 A    
C53   C54   1.371365 A    
C4    C46   1.474289 S    
O16   Cr5   2.036385 S    
C11   C12   1.406471 A    
O10   C5    1.272160 A    
N5    O35   1.301192 A    
C37   Cl2   1.760923 S    
Cr4   O26   1.976254 S    
C45   C60   1.463925 S    
N2    O30   1.300227 A    
C30   C33   1.442377 S    
