data_mof_unit_40134.cif
_audit_creation_date              2012-12-11T15:36:49-0500
_audit_creation_method            fapswitch 2.2
_symmetry_space_group_name_H-M    P1
_symmetry_Int_Tables_number       1
_space_group_crystal_system       triclinic
_cell_length_a                    15.051424
_cell_length_b                    15.06468
_cell_length_c                    34.86364
_cell_angle_alpha                 91.174765
_cell_angle_beta                  91.75796
_cell_angle_gamma                 60.157588
_cell_volume                      6853.55560033

loop_
_atom_site_label
_atom_site_type_symbol
_atom_type_description
_atom_site_fract_x
_atom_site_fract_y
_atom_site_fract_z
_atom_type_partial_charge
C1    C     C_R   0.610576 0.303394 0.443783 0.547696
C2    C     C_R   0.719498 0.661739 0.176293 0.045748
C3    C     C_R   0.606534 0.153253 0.831018 0.030379
C4    C     C_R   0.677102 0.173114 0.851188 -0.118173
C5    C     C_R   0.709807 0.136280 0.888271 -0.125631
C6    C     C_R   0.578324 0.267163 0.775296 -0.123349
C7    C     C_R   0.580459 0.280157 0.735931 -0.125931
C8    C     C_R   0.591008 0.202981 0.710076 0.023873
C9    C     C_R   0.592222 0.115696 0.723994 -0.118215
C10   C     C_R   0.590678 0.102352 0.763467 -0.114768
C11   C     C_R   0.587194 0.176493 0.789535 0.027811
C12   C     C_R   0.547301 0.195472 0.640633 -0.134329
C13   C     C_R   0.808820 0.599479 0.156066 -0.141166
C14   C     C_R   0.552701 0.217028 0.602265 -0.131954
C15   C     C_R   0.682765 0.261664 0.619685 -0.124233
C16   C     C_R   0.675783 0.242158 0.658049 -0.120868
C17   C     C_R   0.605600 0.212222 0.668983 0.026000
C18   C     C_R   0.618317 0.253267 0.591643 0.024543
C19   C     C_R   0.046787 0.738476 0.048068 0.539508
C20   C     C_R   0.746153 0.745150 0.063401 0.544503
C21   C     C_R   0.750913 0.040826 0.050530 0.540780
C22   C     C_R   0.017994 0.722374 0.940007 0.544676
C23   C     C_R   0.717104 0.730128 0.954930 0.540816
C24   C     C_R   0.815943 0.622676 0.118149 -0.137173
C25   C     C_R   0.721371 0.024328 0.941987 0.542254
C26   C     C_R   0.732043 0.566949 0.235282 -0.191837
C27   C     C_R   0.723153 0.564439 0.274747 -0.150262
C28   C     C_R   0.700803 0.650609 0.297594 0.029518
C29   C     C_R   0.688054 0.740559 0.280515 0.279147
C30   C     C_R   0.704019 0.740329 0.240965 0.279027
C31   C     C_R   0.719714 0.655395 0.218150 -0.022727
C32   C     C_R   0.584088 0.716920 0.352246 -0.147857
C33   C     C_R   0.592631 0.610004 0.449166 0.549498
C34   C     C_R   0.558135 0.709262 0.389371 -0.152768
C35   C     C_R   0.727110 0.563008 0.400408 -0.122677
C36   C     C_R   0.753639 0.569153 0.362538 0.276922
C37   C     C_R   0.681333 0.647871 0.338564 0.083077
C38   C     C_R   0.628326 0.630609 0.413430 -0.018937
C39   C     C_R   0.113154 0.723795 0.082027 0.021740
C40   C     C_R   0.180288 0.624559 0.095350 -0.127428
C41   C     C_R   0.222809 0.609699 0.132332 -0.121742
C42   C     C_R   0.197765 0.693783 0.156768 0.030333
C43   C     C_R   0.138914 0.793245 0.142135 -0.125699
C44   C     C_R   0.306396 0.589891 0.441744 0.542842
C45   C     C_R   0.097200 0.808181 0.104880 -0.131139
C46   C     C_R   0.248237 0.736257 0.221075 -0.118504
C47   C     C_R   0.256007 0.726453 0.261062 -0.117813
C48   C     C_R   0.230120 0.659989 0.279291 0.030336
C49   C     C_R   0.198483 0.602371 0.256359 -0.124714
C50   C     C_R   0.194202 0.609601 0.216612 -0.129565
C51   C     C_R   0.217183 0.677789 0.198553 0.029650
C52   C     C_R   0.261513 0.553608 0.337820 -0.116548
C53   C     C_R   0.273674 0.539089 0.377228 -0.112271
C54   C     C_R   0.241705 0.712099 0.386347 -0.127875
C55   C     C_R   0.605263 0.301125 0.553911 0.536294
C56   C     C_R   0.226233 0.727845 0.346674 -0.122742
C57   C     C_R   0.238413 0.647799 0.321774 0.033378
C58   C     C_R   0.267231 0.616836 0.401896 0.019744
C59   C     C_R   0.721680 0.102413 0.086045 0.020837
C60   C     C_R   0.792802 0.121983 0.105878 -0.131828
C61   C     C_R   0.775658 0.156977 0.143719 -0.126872
C62   C     C_R   0.686968 0.173518 0.162128 0.034609
C63   C     C_R   0.611473 0.163418 0.141179 -0.117278
C64   C     C_R   0.628740 0.127996 0.103394 -0.127064
C65   C     C_R   0.588456 0.259235 0.221019 -0.137005
C66   C     C_R   0.587187 0.606041 0.559259 0.541814
C67   C     C_R   0.581159 0.265485 0.260827 -0.174532
C68   C     C_R   0.664967 0.199413 0.284342 0.037375
C69   C     C_R   0.757963 0.127295 0.267574 0.265853
C70   C     C_R   0.763609 0.120750 0.227403 -0.115929
C71   C     C_R   0.679869 0.186998 0.204085 -0.009816
C72   C     C_R   0.732381 0.217473 0.348193 -0.103215
C73   C     C_R   0.721049 0.237500 0.387248 -0.182948
C74   C     C_R   0.558468 0.239387 0.384320 0.260655
C75   C     C_R   0.569953 0.221016 0.344758 -0.112401
C76   C     C_R   0.656377 0.210714 0.326434 0.017748
C77   C     C_R   0.299983 0.587905 0.552330 0.547019
C78   C     C_R   0.631943 0.253966 0.405532 0.016709
C79   C     C_R   0.690983 0.689448 0.920127 0.020813
C80   C     C_R   0.764387 0.596042 0.903977 -0.126885
C81   C     C_R   0.751367 0.570168 0.866378 -0.123303
C82   C     C_R   0.664831 0.637228 0.844252 0.031464
C83   C     C_R   0.587068 0.725837 0.861639 -0.120271
C84   C     C_R   0.599876 0.751563 0.899267 -0.127705
C85   C     C_R   0.568349 0.647577 0.782975 -0.120822
C86   C     C_R   0.562962 0.646255 0.742950 -0.120269
C87   C     C_R   0.650405 0.619216 0.721439 0.026155
C88   C     C_R   0.733372 0.707841 0.100272 0.017555
C89   C     C_R   0.744100 0.589912 0.740623 -0.115928
C90   C     C_R   0.749423 0.591719 0.780632 -0.113455
C91   C     C_R   0.661252 0.622168 0.802228 0.028240
C92   C     C_R   0.715912 0.541028 0.657096 -0.121421
C93   C     C_R   0.702504 0.539504 0.617321 -0.127423
C94   C     C_R   0.547754 0.704769 0.620707 -0.125781
C95   C     C_R   0.560896 0.705908 0.660438 -0.122176
C96   C     C_R   0.643186 0.622590 0.679085 0.030781
C97   C     C_R   0.616238 0.619739 0.598877 0.021436
C98   C     C_R   0.075393 0.697411 0.904347 0.022615
C99   C     C_R   0.640877 0.763702 0.119671 -0.126422
C100  C     C_R   0.097750 0.769321 0.888847 -0.125897
C101  C     C_R   0.137192 0.754986 0.852347 -0.126161
C102  C     C_R   0.155696 0.668246 0.830886 0.030545
C103  C     C_R   0.140951 0.592369 0.847280 -0.118206
C104  C     C_R   0.100705 0.606961 0.883891 -0.129455
C105  C     C_R   0.258709 0.575432 0.774069 -0.124664
C106  C     C_R   0.273324 0.569563 0.734652 -0.079504
C107  C     C_R   0.205335 0.650548 0.710816 0.061973
C108  C     C_R   0.126383 0.739841 0.726954 -0.119190
C109  C     C_R   0.112703 0.746390 0.766375 -0.116606
C110  C     C_R   0.634136 0.740827 0.157469 -0.080024
C111  C     C_R   0.177621 0.663545 0.790027 0.025878
C112  C     C_R   0.224214 0.715519 0.648652 -0.177666
C113  C     C_R   0.243639 0.702853 0.609575 -0.145308
C114  C     C_R   0.235126 0.546336 0.609927 -0.113570
C115  C     C_R   0.219861 0.556138 0.649612 0.274101
C116  C     C_R   0.215468 0.641052 0.669002 0.039969
C117  C     C_R   0.252750 0.616301 0.590178 -0.018589
C118  C     C_R   0.672252 0.079278 0.906088 0.020987
C119  C     C_R   0.596496 0.065205 0.887002 -0.128996
C120  C     C_R   0.564297 0.101455 0.849647 -0.123698
Cr1   Cr    Cr6+3 0.426010 0.422500 0.497000 1.026422
Cr2   Cr    Cr6+3 0.651300 0.426310 0.501970 1.005620
Cr3   Cr    Cr6+3 0.422670 0.651170 0.501050 1.008660
Cr4   Cr    Cr6+3 0.905130 0.911420 0.992650 1.009096
Cr5   Cr    Cr6+3 0.911860 0.682710 0.002320 1.009163
Cr6   Cr    Cr6+3 0.682710 0.906840 0.004710 1.009353
H1    H     H_    0.575444 0.828719 0.106433 0.127725
H2    H     H_    0.480629 0.761121 0.398299 0.135725
H3    H     H_    0.875256 0.538187 0.170455 0.103832
H4    H     H_    0.781994 0.503363 0.419195 0.115621
H5    H     H_    0.194702 0.558319 0.078074 0.121568
H6    H     H_    0.045328 0.885547 0.095309 0.122859
H7    H     H_    0.206865 0.802019 0.335611 0.090790
H8    H     H_    0.282965 0.770458 0.277492 0.093220
H9    H     H_    0.266574 0.789274 0.207738 0.097265
H10   H     H_    0.269609 0.532261 0.142778 0.103055
H11   H     H_    0.173906 0.553355 0.268935 0.103821
H12   H     H_    0.887833 0.577839 0.103705 0.128362
H13   H     H_    0.166735 0.566035 0.200088 0.100064
H14   H     H_    0.275130 0.488591 0.320019 0.102869
H15   H     H_    0.295341 0.463895 0.388019 0.171505
H16   H     H_    0.117919 0.859338 0.160472 0.096138
H17   H     H_    0.237129 0.773116 0.404660 0.116180
H18   H     H_    0.864891 0.103406 0.093205 0.123064
H19   H     H_    0.572176 0.114397 0.088659 0.122293
H20   H     H_    0.510215 0.216529 0.328336 0.113438
H21   H     H_    0.510104 0.322785 0.273342 0.114751
H22   H     H_    0.522792 0.310680 0.203436 0.116812
H23   H     H_    0.834233 0.165707 0.159326 0.096926
H24   H     H_    0.832023 0.061452 0.214154 0.093116
H25   H     H_    0.798085 0.213299 0.334666 0.131615
H26   H     H_    0.779458 0.247255 0.402479 0.131401
H27   H     H_    0.542635 0.175486 0.154859 0.105717
H28   H     H_    0.834984 0.545989 0.919457 0.122953
H29   H     H_    0.541748 0.823962 0.910882 0.124271
H30   H     H_    0.505014 0.770686 0.676762 0.101888
H31   H     H_    0.729322 0.496404 0.287325 0.135043
H32   H     H_    0.490253 0.666903 0.728754 0.105737
H33   H     H_    0.499539 0.670004 0.798861 0.103588
H34   H     H_    0.811439 0.500203 0.853957 0.100298
H35   H     H_    0.812417 0.569146 0.724652 0.112424
H36   H     H_    0.821724 0.573570 0.794584 0.107155
H37   H     H_    0.780104 0.475935 0.670851 0.102671
H38   H     H_    0.756421 0.472663 0.601378 0.123109
H39   H     H_    0.519679 0.779343 0.845308 0.100806
H40   H     H_    0.480515 0.767838 0.607450 0.125310
H41   H     H_    0.080585 0.839091 0.904199 0.125743
H42   H     H_    0.745278 0.501148 0.217948 0.126825
H43   H     H_    0.084660 0.550196 0.895288 0.124990
H44   H     H_    0.336915 0.501508 0.722696 0.114390
H45   H     H_    0.310025 0.511381 0.792044 0.103265
H46   H     H_    0.149284 0.813645 0.840181 0.102907
H47   H     H_    0.073656 0.803075 0.708931 0.107686
H48   H     H_    0.049129 0.814699 0.778282 0.111366
H49   H     H_    0.221123 0.780916 0.663448 0.109715
H50   H     H_    0.256933 0.757938 0.595069 0.135626
H51   H     H_    0.154574 0.525062 0.830882 0.108973
H52   H     H_    0.564400 0.788763 0.172833 0.120371
H53   H     H_    0.238539 0.481106 0.594958 0.126833
H54   H     H_    0.566460 0.021207 0.900036 0.124275
H55   H     H_    0.767994 0.148553 0.902355 0.124921
H56   H     H_    0.723063 0.253506 0.679411 0.107600
H57   H     H_    0.576564 0.349451 0.725683 0.106427
H58   H     H_    0.573516 0.326386 0.794706 0.104402
H59   H     H_    0.509143 0.085916 0.834834 0.100689
H60   H     H_    0.599840 0.055508 0.704505 0.107300
H61   H     H_    0.598468 0.031314 0.773626 0.107289
H62   H     H_    0.493483 0.171356 0.648389 0.096032
H63   H     H_    0.501937 0.210243 0.581213 0.112958
H64   H     H_    0.711945 0.211739 0.837472 0.105835
H65   H     H_    0.733415 0.290276 0.612471 0.124852
H66   H     H_    0.525524 0.772763 0.333348 0.098319
O1    O     O_R   0.324990 0.503440 0.453910 -0.503833
O2    O     O_R   0.639980 0.519500 0.542640 -0.502502
O3    O     O_R   0.500750 0.673190 0.545480 -0.520671
O4    O     O_R   0.336260 0.640450 0.538210 -0.500088
O5    O     O_3   0.499990 0.499990 0.500010 -0.240194
O6    O     O_R   0.834210 0.019400 0.034570 -0.522329
O7    O     O_R   0.002210 0.824620 0.031030 -0.502672
O8    O     O_R   0.024400 0.669340 0.039790 -0.518129
O9    O     O_R   0.830490 0.694950 0.045870 -0.501879
O10   O     O_R   0.675430 0.831160 0.051290 -0.519167
O11   O     O_R   0.698870 0.998880 0.039560 -0.500824
O12   O     O_R   0.522030 0.339050 0.458320 -0.460476
O13   O     O_R   0.811290 0.006780 0.950620 -0.517190
O14   O     O_R   0.980960 0.812920 0.953200 -0.502765
O15   O     O_R   0.001480 0.656720 0.955830 -0.520101
O16   O     O_R   0.809240 0.683250 0.968050 -0.501534
O17   O     O_R   0.652500 0.818540 0.967340 -0.521575
O18   O     O_R   0.677620 0.987170 0.961730 -0.502255
O19   O     O_3   0.833240 0.833660 0.999890 -0.234195
O20   O     O_R   0.676180 0.324490 0.458320 -0.531332
O21   O     O_R   0.643570 0.521510 0.464260 -0.502558
O22   O     O_R   0.504630 0.675350 0.460920 -0.517323
O23   O     O_R   0.339850 0.642450 0.459830 -0.502370
O24   O     O_R   0.321120 0.501280 0.538470 -0.522092
O25   O     O_R   0.518440 0.337050 0.536710 -0.507292
O26   O     O_R   0.672300 0.322330 0.542880 -0.519939
O27   O     O_3   0.849866 0.501235 0.348515 -0.552141
C121  C     C_3   0.873895 0.398693 0.353981 -0.019291
H67   H     H_    0.805666 0.388539 0.349639 0.111418
H68   H     H_    0.907012 0.373083 0.383296 0.132961
C122  C     C_3   0.953525 0.329985 0.325162 -0.378143
H69   H     H_    0.023878 0.335956 0.329086 0.164034
H70   H     H_    0.973517 0.249208 0.329452 0.081276
H71   H     H_    0.922614 0.352992 0.295462 0.148781
O28   O     O_3   0.837876 0.057112 0.290804 -0.566042
C123  C     C_3   0.930317 0.055437 0.282854 -0.024934
H72   H     H_    0.918482 0.134078 0.279321 0.111312
H73   H     H_    0.965003 0.009630 0.256566 0.124150
C124  C     C_3   0.006026 0.004986 0.316098 -0.375268
H74   H     H_    0.019190 0.926515 0.320526 0.165998
H75   H     H_    0.080124 0.000252 0.309752 0.081303
H76   H     H_    0.975573 0.050437 0.342799 0.149987
O29   O     O_3   0.469829 0.253402 0.400735 -0.569915
C125  C     C_3   0.491125 0.164324 0.421125 0.024551
H77   H     H_    0.433141 0.187953 0.443788 0.151064
H78   H     H_    0.567456 0.127660 0.436266 0.115412
C126  C     C_3   0.481822 0.086950 0.394459 -0.283326
H79   H     H_    0.405628 0.124773 0.379554 0.162576
H80   H     H_    0.541982 0.059217 0.372551 0.164843
C127  C     C_3   0.494285 0.995005 0.416634 -0.472319
H81   H     H_    0.570934 0.954746 0.431108 0.161962
H82   H     H_    0.487134 0.940779 0.396468 0.148991
H83   H     H_    0.433991 0.019943 0.438435 0.142213
O30   O     O_3   0.203608 0.486959 0.669654 -0.555698
C128  C     C_3   0.287712 0.386646 0.665785 -0.021376
H84   H     H_    0.362584 0.385271 0.666505 0.128474
H85   H     H_    0.279837 0.351371 0.638516 0.129473
C129  C     C_3   0.288858 0.321736 0.698881 -0.367469
H86   H     H_    0.215954 0.319998 0.698849 0.158853
H87   H     H_    0.353504 0.242284 0.695931 0.095970
H88   H     H_    0.298341 0.353946 0.726633 0.156976
O31   O     O_3   0.667452 0.825761 0.302911 -0.560812
C130  C     C_3   0.566583 0.907308 0.295106 0.032978
H89   H     H_    0.522371 0.924044 0.321779 0.124579
H90   H     H_    0.523543 0.890114 0.272217 0.117468
C131  C     C_3   0.568655 0.004424 0.284470 -0.236070
H91   H     H_    0.607791 0.024307 0.307767 0.169437
H92   H     H_    0.611630 0.992164 0.257854 0.215543
C132  C     C_3   0.460277 0.093785 0.277838 -0.501401
H93   H     H_    0.419724 0.074249 0.254974 0.148228
H94   H     H_    0.463692 0.161960 0.268518 0.149013
H95   H     H_    0.416402 0.112910 0.304690 0.135591
O32   O     O_3   0.695331 0.827177 0.224393 -0.586152
C133  C     C_3   0.793239 0.810798 0.214985 -0.001336
H96   H     H_    0.782168 0.864562 0.191565 0.159580
H97   H     H_    0.844985 0.732408 0.203680 0.129730
C134  C     C_3   0.844896 0.833140 0.249435 -0.248502
H98   H     H_    0.795048 0.912516 0.259833 0.210431
H99   H     H_    0.857623 0.779512 0.273099 0.195188
C135  C     C_3   0.947987 0.819988 0.238508 -0.465558
H100  H     H_    0.996463 0.742105 0.226735 0.156037
H101  H     H_    0.987304 0.830222 0.264241 0.175412
H102  H     H_    0.937672 0.876658 0.216460 0.138311

loop_
_geom_bond_atom_site_label_1
_geom_bond_atom_site_label_2
_ccdc_geom_bond_type
C8    C9    A    
C15   C18   A    
C130  H90   S    
C101  C102  A    
C22   C98   S    
Cr3   O23   S    
C23   O16   A    
C44   O23   A    
C41   C42   A    
C14   C18   A    
C95   C96   A    
C70   H24   S    
C112  C116  A    
C21   O6    A    
C72   C76   A    
C120  H59   S    
C94   H40   S    
C121  H68   S    
C56   H7    S    
Cr5   O19   S    
C122  H71   S    
C48   C57   S    
C55   O25   A    
C85   C86   A    
Cr6   O10   S    
C126  H79   S    
C83   H39   S    
Cr4   O7    S    
C26   H42   S    
C44   O1    A    
C29   C30   A    
C90   H36   S    
C100  H41   S    
C66   C97   S    
C36   C37   A    
C77   O4    A    
C20   O9    A    
C21   C59   S    
C77   C117  S    
Cr6   O19   S    
C109  C111  A    
C33   O22   A    
C54   C58   A    
C132  H93   S    
C64   H19   S    
C84   H29   S    
C16   H56   S    
C106  C107  A    
C110  H52   S    
C119  H54   S    
C129  H87   S    
C15   C16   A    
C12   H62   S    
Cr4   O6    S    
C130  H89   S    
C92   C96   A    
C108  C109  A    
C22   O14   A    
C101  H46   S    
C95   H30   S    
C26   C31   A    
C89   H35   S    
C49   C50   A    
C2    C13   A    
C21   O11   A    
C118  C119  A    
C121  H67   S    
C15   H65   S    
C103  C104  A    
C46   H9    S    
C46   C47   A    
C14   H63   S    
C2    C110  A    
C35   C36   A    
Cr5   O8    S    
C44   C58   S    
C16   C17   A    
C65   C67   A    
C10   H61   S    
C12   C17   A    
C62   C71   S    
C47   C48   A    
C127  H82   S    
C107  C108  A    
C70   C71   A    
C124  H76   S    
Cr2   O26   S    
O32   C133  S    
C61   C62   A    
C42   C51   S    
C39   C45   A    
C115  O30   S    
Cr4   O14   S    
C129  H88   S    
C54   H17   S    
C105  C111  A    
C130  C131  S    
C59   C60   A    
C81   H34   S    
C34   C38   A    
C134  H98   S    
C87   C96   S    
C1    O20   A    
C1    C78   S    
C106  H44   S    
Cr3   O3    S    
C102  C111  S    
C25   O18   A    
Cr2   O2    S    
C25   O13   A    
C88   C99   A    
C69   O28   S    
C36   O27   S    
Cr1   O1    S    
C112  C113  A    
C66   O2    A    
C66   O3    A    
C55   O26   A    
C128  H85   S    
C75   H20   S    
C85   C91   A    
C54   C56   A    
C127  H83   S    
C74   C75   A    
C39   C40   A    
C67   C68   A    
C80   C81   A    
Cr1   O24   S    
C4    H64   S    
C7    C8    A    
C35   C38   A    
C63   H27   S    
C122  H69   S    
C124  H75   S    
C9    H60   S    
Cr6   O18   S    
O27   C121  S    
C132  H94   S    
C33   O21   A    
C86   C87   A    
C68   C69   A    
C99   H1    S    
C23   O17   A    
C93   H38   S    
C24   H12   S    
C129  H86   S    
C29   O31   S    
C73   C78   A    
C46   C51   A    
Cr5   O15   S    
C81   C82   A    
C82   C91   S    
C79   C80   A    
C13   C24   A    
C6    H58   S    
C60   C61   A    
C103  H51   S    
C32   C34   A    
C131  H92   S    
C75   C76   A    
C62   C63   A    
C24   C88   A    
C125  H77   S    
O28   C123  S    
C5    H55   S    
C128  H84   S    
C72   H25   S    
Cr5   O9    S    
C108  H47   S    
C50   C51   A    
C26   C27   A    
C94   C95   A    
C126  H80   S    
C30   O32   S    
C32   C37   A    
C119  C120  A    
C80   H28   S    
C43   C45   A    
C86   H32   S    
C35   H4    S    
Cr1   O5    S    
C19   C39   S    
C18   C55   S    
C113  H50   S    
C113  C117  A    
C121  C122  S    
C92   H37   S    
C34   H2    S    
C48   C49   A    
Cr4   O19   S    
C40   H5    S    
C12   C14   A    
C114  H53   S    
C98   C100  A    
C10   C11   A    
C134  H99   S    
C47   H8    S    
C67   H21   S    
C123  H73   S    
Cr2   O20   S    
Cr3   O4    S    
C83   C84   A    
Cr4   O13   S    
C27   H31   S    
C42   C43   A    
C135  H100  S    
C3    C4    A    
C28   C29   A    
Cr6   O17   S    
C93   C97   A    
C6    C11   A    
C65   H22   S    
C52   C53   A    
C50   H13   S    
C49   H11   S    
C9    C10   A    
C128  C129  S    
C3    C120  A    
C56   C57   A    
C19   O8    A    
O30   C128  S    
C40   C41   A    
O29   C125  S    
C105  H45   S    
C79   C84   A    
C127  H81   S    
C109  H48   S    
Cr1   O25   S    
Cr3   O5    S    
C33   C38   S    
Cr1   O12   S    
C72   C73   A    
C133  C134  S    
C133  H97   S    
C132  H95   S    
C53   C58   A    
C122  H70   S    
C114  C115  A    
C6    C7    A    
C52   C57   A    
Cr6   O11   S    
C68   C76   S    
C32   H66   S    
C105  C106  A    
Cr5   O16   S    
C19   O7    A    
C8    C17   S    
C94   C97   A    
Cr2   O21   S    
C7    H57   S    
C5    C118  A    
O31   C130  S    
C87   C89   A    
C131  H91   S    
C74   O29   S    
C20   O10   A    
C73   H26   S    
C65   C71   A    
C60   H18   S    
C99   C110  A    
C90   C91   A    
C30   C31   A    
C28   C37   S    
C135  H102  S    
C98   C104  A    
C20   C88   S    
C92   C93   A    
C52   H14   S    
C125  H78   S    
C22   O15   A    
C126  C127  S    
C53   H15   S    
C123  C124  S    
Cr2   O5    S    
C102  C103  A    
C69   C70   A    
C107  C116  S    
C134  C135  S    
C114  C117  A    
C3    C11   S    
C133  H96   S    
C123  H72   S    
C63   C64   A    
C131  C132  S    
C59   C64   A    
C4    C5    A    
C112  H49   S    
C125  C126  S    
C45   H6    S    
C135  H101  S    
C82   C83   A    
C74   C78   A    
Cr3   O22   S    
C124  H74   S    
C13   H3    S    
C2    C31   S    
C43   H16   S    
C100  C101  A    
C85   H33   S    
C25   C118  S    
C23   C79   S    
C89   C90   A    
C1    O12   A    
C61   H23   S    
C41   H10   S    
C115  C116  A    
C77   O24   A    
C104  H43   S    
C27   C28   A    
