data_mof_unit_40722.cif
_audit_creation_date              2012-12-11T17:28:23-0500
_audit_creation_method            fapswitch 2.2
_symmetry_space_group_name_H-M    P1
_symmetry_Int_Tables_number       1
_space_group_crystal_system       triclinic
_cell_length_a                    24.46136
_cell_length_b                    24.271077
_cell_length_c                    25.694065
_cell_angle_alpha                 89.686654
_cell_angle_beta                  90.093961
_cell_angle_gamma                 90.154385
_cell_volume                      15254.354009

loop_
_atom_site_label
_atom_site_type_symbol
_atom_type_description
_atom_site_fract_x
_atom_site_fract_y
_atom_site_fract_z
_atom_type_partial_charge
C1    C     C_R   0.636009 0.426778 0.423154 -0.108008
C2    C     C_R   0.362699 0.428026 0.424883 -0.184962
C3    C     C_R   0.705414 0.244567 0.391247 0.370923
C4    C     C_R   0.753703 0.713706 0.602175 0.496993
C5    C     C_R   0.248167 0.319414 0.343223 0.464793
C6    C     C_R   0.722492 0.261355 0.606391 0.494413
C7    C     C_R   0.306048 0.758081 0.362651 0.444996
C8    C     C_R   0.235537 0.700636 0.402122 0.369298
C9    C     C_R   0.742577 0.328165 0.674751 0.360374
C10   C     C_R   0.285719 0.247053 0.398930 0.401388
C11   C     C_R   0.679949 0.755525 0.652151 0.361245
C12   C     C_R   0.731856 0.310683 0.323737 0.344746
C13   C     C_R   0.426414 0.637521 0.574543 -0.100788
C14   C     C_R   0.248899 0.677370 0.657698 0.364493
C15   C     C_R   0.633800 0.702269 0.267909 0.362608
C16   C     C_R   0.314232 0.238406 0.638811 0.351400
C17   C     C_R   0.740467 0.791898 0.101512 0.497257
C18   C     C_R   0.181865 0.115832 0.753297 0.491298
C19   C     C_R   0.860198 0.207783 0.224631 0.412917
C20   C     C_R   0.111211 0.812845 0.755879 0.492184
C21   C     C_R   0.199903 0.135999 0.234077 0.461522
C22   C     C_R   0.817212 0.889226 0.754130 0.490762
C23   C     C_R   0.127972 0.790687 0.229694 0.467132
C24   C     C_R   0.569396 0.363728 0.421511 -0.131408
C25   C     C_R   0.893818 0.191415 0.757632 0.490320
C26   C     C_R   0.811243 0.135421 0.757906 0.352875
C27   C     C_R   0.178788 0.874922 0.246817 0.380681
C28   C     C_R   0.865568 0.802314 0.764019 0.357089
C29   C     C_R   0.109809 0.174546 0.250246 0.390583
C30   C     C_R   0.195627 0.865448 0.762529 0.354813
C31   C     C_R   0.833172 0.115441 0.252753 0.383687
C32   C     C_R   0.132369 0.201685 0.764266 0.351493
C33   C     C_R   0.812862 0.743684 0.148508 0.364414
C34   C     C_R   0.279829 0.326023 0.575466 0.282712
C35   C     C_R   0.361967 0.424694 0.572071 -0.180923
C36   C     C_R   0.635084 0.587926 0.285890 0.275559
C37   C     C_R   0.322416 0.713243 0.580666 0.300227
C38   C     C_R   0.663204 0.280256 0.406561 0.348739
C39   C     C_R   0.715921 0.676467 0.580649 0.276903
C40   C     C_R   0.293186 0.352902 0.353953 0.310458
C41   C     C_R   0.681721 0.296474 0.587181 0.263064
C42   C     C_R   0.345099 0.717499 0.372370 0.297075
C43   C     C_R   0.277104 0.666592 0.423089 0.331713
C44   C     C_R   0.695529 0.358110 0.661238 0.364429
C45   C     C_R   0.324486 0.285216 0.418272 0.332186
C46   C     C_R   0.623185 0.559626 0.405212 -0.177774
C47   C     C_R   0.645211 0.711575 0.639174 0.360272
C48   C     C_R   0.695685 0.349794 0.344369 0.299623
C49   C     C_R   0.294026 0.644466 0.645167 0.302819
C50   C     C_R   0.618675 0.681697 0.317122 0.353712
C51   C     C_R   0.351301 0.280909 0.627035 0.352305
C52   C     C_R   0.779834 0.827009 0.079129 0.272068
C53   C     C_R   0.156431 0.094539 0.797942 0.262991
C54   C     C_R   0.872085 0.187878 0.175301 0.322419
C55   C     C_R   0.090439 0.841739 0.798549 0.261774
C56   C     C_R   0.184369 0.122612 0.183343 0.327110
C57   C     C_R   0.571228 0.364669 0.580031 -0.143599
C58   C     C_R   0.844685 0.909398 0.797982 0.263177
C59   C     C_R   0.119134 0.808489 0.178376 0.291078
C60   C     C_R   0.914053 0.159651 0.798850 0.258799
C61   C     C_R   0.824950 0.114580 0.807490 0.391305
C62   C     C_R   0.157504 0.898417 0.200730 0.334881
C63   C     C_R   0.882082 0.817505 0.814484 0.388037
C64   C     C_R   0.090655 0.149479 0.204125 0.329669
C65   C     C_R   0.180374 0.883479 0.812487 0.386161
C66   C     C_R   0.855650 0.093741 0.206671 0.338093
C67   C     C_R   0.117323 0.185393 0.815058 0.389307
C68   C     C_R   0.425501 0.639166 0.429546 -0.176016
C69   C     C_R   0.850139 0.785670 0.134891 0.357395
C70   C     C_3   0.164230 0.347194 0.601542 0.209749
C71   C     C_3   0.172557 0.359738 0.659734 -0.396209
C72   C     C_3   0.138205 0.408814 0.676741 -0.946302
C73   C     C_3   0.729179 0.545143 0.226049 0.226703
C74   C     C_3   0.772311 0.580026 0.254910 -0.402838
C75   C     C_3   0.824588 0.547353 0.264571 -0.954124
C76   C     C_3   0.328622 0.834566 0.592411 0.152486
C77   C     C_3   0.346784 0.834297 0.649876 -0.335936
C78   C     C_3   0.388611 0.879592 0.660613 -0.965153
C79   C     C_R   0.127094 0.937713 0.908884 -0.100541
C80   C     C_3   0.692745 0.150824 0.393878 0.163853
C81   C     C_3   0.677714 0.107067 0.434433 -0.252083
C82   C     C_3   0.655133 0.055189 0.408784 -1.004747
C83   C     C_3   0.834546 0.663113 0.598540 0.216665
C84   C     C_3   0.830571 0.645209 0.656056 -0.399583
C85   C     C_3   0.870734 0.599002 0.668658 -0.952494
C86   C     C_3   0.173757 0.374910 0.329943 0.242176
C87   C     C_3   0.130120 0.345949 0.363264 -0.383612
C88   C     C_3   0.085520 0.385986 0.379826 -0.972064
C89   C     C_3   0.692551 0.175117 0.577776 0.252241
C90   C     C_R   0.873142 0.061571 0.091459 -0.051286
C91   C     C_3   0.666245 0.161273 0.630749 -0.413218
C92   C     C_3   0.632240 0.108550 0.628056 -0.964776
C93   C     C_3   0.345933 0.842897 0.370762 0.261088
C94   C     C_3   0.303181 0.874414 0.402479 -0.358325
C95   C     C_3   0.330002 0.917689 0.437071 -1.002362
C96   C     C_3   0.163084 0.640292 0.392026 0.136370
C97   C     C_3   0.145843 0.646743 0.335078 -0.262485
C98   C     C_3   0.123596 0.592838 0.313173 -0.989155
C99   C     C_3   0.809755 0.388572 0.699860 0.160534
C100  C     C_3   0.858547 0.368196 0.667730 -0.317986
C101  C     C_R   0.937148 0.872088 0.909569 -0.108791
C102  C     C_3   0.900975 0.413666 0.659929 -1.001893
C103  C     C_3   0.335206 0.165095 0.404593 0.157032
C104  C     C_3   0.355004 0.170694 0.347802 -0.342626
C105  C     C_3   0.399461 0.128768 0.335568 -0.964047
C106  C     C_3   0.631449 0.835882 0.657953 0.162396
C107  C     C_3   0.668496 0.877737 0.630023 -0.303954
C108  C     C_3   0.635917 0.926810 0.609521 -1.013364
C109  C     C_3   0.725780 0.320312 0.234686 0.251856
C110  C     C_3   0.712507 0.261091 0.217952 -0.334261
C111  C     C_3   0.677343 0.260282 0.168903 -0.974793
C112  C     C_R   0.362728 0.571453 0.574942 -0.032023
C113  C     C_R   0.064812 0.128858 0.089381 -0.038722
C114  C     C_3   0.173009 0.623284 0.669596 0.159970
C115  C     C_3   0.128557 0.655307 0.640081 -0.306754
C116  C     C_3   0.082247 0.617364 0.622736 -1.014570
C117  C     C_3   0.576015 0.773784 0.248145 0.155123
C118  C     C_3   0.556258 0.757247 0.193641 -0.317563
C119  C     C_3   0.500173 0.781677 0.181681 -0.969144
C120  C     C_3   0.355993 0.154470 0.632712 0.180791
C121  C     C_3   0.313150 0.118842 0.604928 -0.294372
C122  C     C_3   0.340104 0.074253 0.572203 -1.030483
C123  C     C_3   0.663962 0.848724 0.104086 0.229488
C124  C     C_R   0.873722 0.062061 0.907999 -0.099799
C125  C     C_3   0.673855 0.863394 0.161688 -0.405185
C126  C     C_3   0.638640 0.911923 0.178490 -0.967185
C127  C     C_3   0.266108 0.071873 0.755167 0.191469
C128  C     C_3   0.294748 0.122386 0.779182 -0.357312
C129  C     C_3   0.352482 0.108428 0.797390 -0.929078
C130  C     C_3   0.906590 0.282033 0.256294 0.248923
C131  C     C_3   0.895608 0.336894 0.283298 -0.202788
C132  C     C_3   0.947469 0.360878 0.307314 -1.096683
C133  C     C_3   0.066963 0.728461 0.765136 0.170406
C134  C     C_3   0.116808 0.701090 0.791117 -0.363885
C135  C     C_R   0.129586 0.933079 0.088167 -0.044153
C136  C     C_3   0.101681 0.645745 0.815629 -0.944691
C137  C     C_3   0.258683 0.074180 0.271198 0.226448
C138  C     C_3   0.235692 0.070910 0.326884 -0.379268
C139  C     C_3   0.254700 0.019305 0.355573 -0.974700
C140  C     C_3   0.735046 0.936934 0.758767 0.164942
C141  C     C_3   0.705147 0.888045 0.784613 -0.362564
C142  C     C_3   0.649823 0.905368 0.806299 -0.930069
C143  C     C_3   0.053947 0.736560 0.250593 0.231042
C144  C     C_3   0.033928 0.768674 0.298349 -0.411184
C145  C     C_3   0.972964 0.759477 0.307496 -0.913229
C146  C     C_R   0.063104 0.128610 0.909820 -0.102713
C147  C     C_3   0.934280 0.276167 0.775245 0.162961
C148  C     C_3   0.882945 0.297676 0.803192 -0.362278
C149  C     C_3   0.894822 0.351112 0.832117 -0.946728
C150  C     C_3   0.768451 0.069233 0.709674 0.153269
C151  C     C_3   0.797370 0.074493 0.656872 -0.324108
C152  C     C_3   0.796011 0.020117 0.627375 -0.923238
C153  C     C_3   0.266829 0.911431 0.247657 0.165737
C154  C     C_3   0.290227 0.859708 0.221013 -0.302506
C155  C     C_3   0.350088 0.867735 0.206070 -0.926733
C156  C     C_3   0.931508 0.753543 0.721653 0.153946
C157  C     C_R   0.926749 0.861070 0.072065 -0.053485
C158  C     C_3   0.929101 0.775238 0.665452 -0.324883
C159  C     C_3   0.984147 0.769949 0.638163 -0.916271
C160  C     C_3   0.056793 0.254005 0.251686 0.137333
C161  C     C_3   0.101863 0.288048 0.224461 -0.333143
C162  C     C_3   0.081023 0.344560 0.207583 -0.957034
C163  C     C_3   0.241680 0.932276 0.717382 0.151102
C164  C     C_3   0.217500 0.927886 0.662326 -0.313287
C165  C     C_3   0.224115 0.981603 0.631927 -0.951557
C166  C     C_3   0.756434 0.060734 0.265284 0.189821
C167  C     C_3   0.715316 0.105208 0.247823 -0.371969
C168  C     C_R   0.127304 0.062412 0.091156 -0.146817
C169  C     C_3   0.660643 0.079632 0.232437 -0.966681
C170  C     C_3   0.065029 0.250773 0.723401 0.162305
C171  C     C_3   0.066608 0.232749 0.666260 -0.331184
C172  C     C_3   0.010450 0.236787 0.640652 -0.894869
C173  C     C_3   0.858611 0.661381 0.151266 0.150981
C174  C     C_3   0.821244 0.626159 0.116562 -0.318035
C175  C     C_3   0.852309 0.577894 0.093120 -0.966399
C176  C     C_R   0.870396 0.933857 0.911784 -0.208630
C177  C     C_R   0.937011 0.127628 0.090517 -0.128692
C178  C     C_R   0.065145 0.870775 0.911177 -0.201917
C179  C     C_R   0.862136 0.925343 0.072999 -0.156798
C180  C     C_R   0.426652 0.362561 0.424956 -0.082881
C181  C     C_R   0.129508 0.066499 0.911689 -0.203450
C182  C     C_R   0.061193 0.872115 0.090997 -0.171382
C183  C     C_R   0.935518 0.129061 0.910650 -0.203944
C184  C     C_R   0.258649 0.246190 0.628424 -0.312963
C185  C     C_R   0.658282 0.666802 0.232083 -0.314121
C186  C     C_R   0.246143 0.731330 0.638261 -0.263734
C187  C     C_R   0.739759 0.260558 0.350287 -0.279249
C188  C     C_R   0.734741 0.754006 0.636589 -0.316326
C189  C     C_R   0.246834 0.265299 0.362489 -0.315951
C190  C     C_R   0.753662 0.278670 0.648996 -0.320094
C191  C     C_R   0.571736 0.638080 0.573911 -0.041062
C192  C     C_R   0.250790 0.746414 0.371936 -0.314769
C193  C     C_R   0.757734 0.749315 0.134654 -0.319780
C194  C     C_R   0.167108 0.168125 0.735274 -0.317275
C195  C     C_R   0.838479 0.171918 0.262308 -0.329693
C196  C     C_R   0.162683 0.827251 0.736536 -0.314360
C197  C     C_R   0.164157 0.166180 0.265430 -0.331948
C198  C     C_R   0.830102 0.836620 0.736118 -0.317445
C199  C     C_R   0.160647 0.822674 0.262644 -0.319239
C200  C     C_R   0.843508 0.177072 0.735970 -0.318051
C201  C     C_1   0.221013 0.214951 0.659037 0.153173
C202  C     C_R   0.361870 0.573718 0.427253 -0.078305
C203  C     C_1   0.689103 0.691301 0.190755 0.169919
C204  C     C_1   0.211532 0.768707 0.665333 0.154842
C205  C     C_1   0.778591 0.223404 0.329396 0.118440
C206  C     C_1   0.772231 0.788081 0.664216 0.155129
C207  C     C_1   0.212310 0.226817 0.336069 0.159438
C208  C     C_1   0.791790 0.242055 0.672222 0.163880
C209  C     C_1   0.211612 0.775071 0.340583 0.152776
C210  C     C_1   0.718574 0.716158 0.161801 0.168156
C211  C     C_1   0.194356 0.191563 0.691273 0.151176
C212  C     C_1   0.808346 0.196546 0.303189 0.160511
C213  C     C_R   0.634863 0.431204 0.580465 -0.085754
C214  C     C_1   0.186457 0.796749 0.694978 0.150452
C215  C     C_1   0.187455 0.197525 0.307010 0.159004
C216  C     C_1   0.800152 0.813042 0.694115 0.154226
C217  C     C_1   0.184988 0.797547 0.307590 0.163516
C218  C     C_1   0.818811 0.211789 0.698134 0.164447
C219  C     C_R   0.333999 0.325168 0.595297 -0.244993
C220  C     C_R   0.618134 0.624297 0.325773 -0.265282
C221  C     C_R   0.330439 0.662565 0.606428 -0.176149
C222  C     C_R   0.660510 0.333850 0.384811 -0.201245
C223  C     C_R   0.663115 0.672191 0.603010 -0.274852
C224  C     C_R   0.557223 0.623501 0.405302 -0.064421
C225  C     C_R   0.331176 0.336168 0.392427 -0.267155
C226  C     C_R   0.665653 0.342458 0.617074 -0.283931
C227  C     C_R   0.330695 0.670970 0.402940 -0.224415
C228  C     C_R   0.833701 0.827229 0.099699 -0.269991
C229  C     C_R   0.128264 0.130840 0.831869 -0.250050
C230  C     C_R   0.871560 0.130303 0.166511 -0.254532
C231  C     C_R   0.126918 0.872141 0.830685 -0.251483
C232  C     C_R   0.128935 0.128587 0.168088 -0.256601
C233  C     C_R   0.872151 0.871822 0.831586 -0.251551
C234  C     C_R   0.130626 0.864031 0.164575 -0.254957
C235  C     C_R   0.427055 0.360744 0.571045 -0.003969
C236  C     C_R   0.877025 0.126945 0.828501 -0.251259
C237  C     C_R   0.622162 0.374439 0.405415 0.268077
C238  C     C_R   0.373233 0.624872 0.589699 0.266006
C239  C     C_R   0.373459 0.374736 0.409682 0.189360
C240  C     C_R   0.625088 0.628236 0.588290 0.219580
C241  C     C_R   0.371770 0.628733 0.415757 0.203944
C242  C     C_R   0.622807 0.379219 0.598805 0.243393
C243  C     C_R   0.600943 0.603469 0.377040 0.204333
C244  C     C_R   0.373111 0.369699 0.583704 0.214395
C245  C     C_R   0.108844 0.891438 0.882548 0.213944
C246  C     C_R   0.637261 0.574238 0.574391 -0.164739
C247  C     C_R   0.891833 0.108091 0.117290 0.191861
C248  C     C_R   0.890751 0.889803 0.883594 0.221760
C249  C     C_R   0.109466 0.108917 0.117007 0.186070
C250  C     C_R   0.892839 0.107982 0.881223 0.210427
C251  C     C_R   0.109306 0.887635 0.115493 0.189772
C252  C     C_R   0.109418 0.111284 0.883671 0.217780
C253  C     C_R   0.873157 0.870759 0.085788 0.219441
C254  C     C_R   0.240676 0.290260 0.597375 0.489497
C255  C     C_R   0.660694 0.609854 0.241294 0.488899
C256  C     C_R   0.283236 0.750378 0.600511 0.377759
H1    H     H_    0.676601 0.444525 0.424074 0.123307
H2    H     H_    0.323071 0.447667 0.426078 0.132148
H3    H     H_    0.882388 0.449484 0.639509 0.269092
H4    H     H_    0.935254 0.397855 0.636039 0.271776
H5    H     H_    0.917534 0.427193 0.698079 0.265006
H6    H     H_    0.328606 0.120684 0.413305 0.150284
H7    H     H_    0.367882 0.178658 0.431636 0.129774
H8    H     H_    0.320357 0.164795 0.320627 0.247298
H9    H     H_    0.371900 0.212683 0.341126 0.192133
H10   H     H_    0.435008 0.134571 0.361953 0.263761
H11   H     H_    0.413310 0.134409 0.294749 0.277973
H12   H     H_    0.383389 0.086178 0.340172 0.255687
H13   H     H_    0.445172 0.677924 0.573768 0.133370
H14   H     H_    0.606154 0.858119 0.686880 0.144484
H15   H     H_    0.602303 0.816837 0.629811 0.100415
H16   H     H_    0.700272 0.892876 0.657299 0.241660
H17   H     H_    0.689270 0.857501 0.596827 0.199623
H18   H     H_    0.603662 0.912711 0.582142 0.272539
H19   H     H_    0.663675 0.955579 0.588569 0.271191
H20   H     H_    0.616681 0.949265 0.642273 0.265844
H21   H     H_    0.747315 0.341364 0.202121 0.140323
H22   H     H_    0.687232 0.343645 0.240975 0.105249
H23   H     H_    0.750939 0.238593 0.210070 0.232116
H24   H     H_    0.547425 0.325112 0.419423 0.149914
H25   H     H_    0.690103 0.239261 0.249512 0.178440
H26   H     H_    0.638015 0.281779 0.175858 0.270313
H27   H     H_    0.668485 0.216949 0.157991 0.271685
H28   H     H_    0.699197 0.280676 0.136164 0.274359
H29   H     H_    0.153279 0.598648 0.700960 0.145774
H30   H     H_    0.193153 0.593156 0.643231 0.105374
H31   H     H_    0.111553 0.687843 0.665473 0.239540
H32   H     H_    0.146618 0.675449 0.605163 0.201263
H33   H     H_    0.098302 0.584323 0.597262 0.271407
H34   H     H_    0.051449 0.641512 0.600567 0.274037
H35   H     H_    0.322073 0.443752 0.570744 0.140372
H36   H     H_    0.061916 0.598452 0.657120 0.264687
H37   H     H_    0.574120 0.819369 0.251331 0.147791
H38   H     H_    0.547708 0.757016 0.278308 0.124027
H39   H     H_    0.585848 0.771850 0.163885 0.226873
H40   H     H_    0.553473 0.711639 0.191120 0.201103
H41   H     H_    0.469675 0.767161 0.210708 0.279332
H42   H     H_    0.486680 0.768491 0.142384 0.275222
H43   H     H_    0.502136 0.827403 0.182339 0.261976
H44   H     H_    0.382279 0.127095 0.656798 0.132542
H45   H     H_    0.383541 0.174827 0.603796 0.101095
H46   H     H_    0.657754 0.534665 0.394310 0.149346
H47   H     H_    0.285984 0.099140 0.634253 0.237008
H48   H     H_    0.287731 0.145062 0.578929 0.206186
H49   H     H_    0.367340 0.093202 0.542492 0.270504
H50   H     H_    0.308144 0.049864 0.551905 0.281010
H51   H     H_    0.364298 0.046054 0.597410 0.264331
H52   H     H_    0.619139 0.847076 0.097203 0.131265
H53   H     H_    0.679572 0.882076 0.078385 0.163083
H54   H     H_    0.664444 0.827314 0.186675 0.256215
H55   H     H_    0.717503 0.874533 0.167695 0.199188
H56   H     H_    0.647597 0.948649 0.153932 0.264002
H57   H     H_    0.552913 0.324055 0.580651 0.134153
H58   H     H_    0.647662 0.922140 0.219701 0.275086
H59   H     H_    0.594588 0.901262 0.175103 0.264316
H60   H     H_    0.295344 0.051333 0.728583 0.117900
H61   H     H_    0.256329 0.041296 0.786078 0.153448
H62   H     H_    0.296770 0.156295 0.750305 0.265696
H63   H     H_    0.270941 0.137142 0.813152 0.185233
H64   H     H_    0.351295 0.074499 0.826563 0.260506
H65   H     H_    0.371413 0.145242 0.815579 0.275489
H66   H     H_    0.378055 0.095814 0.763832 0.259713
H67   H     H_    0.938500 0.288184 0.226030 0.112258
H68   H     H_    0.443899 0.679445 0.434056 0.151088
H69   H     H_    0.921855 0.252211 0.286227 0.064823
H70   H     H_    0.878736 0.366895 0.254671 0.217309
H71   H     H_    0.864888 0.330413 0.314578 0.225438
H72   H     H_    0.965219 0.331586 0.336052 0.281876
H73   H     H_    0.937608 0.399899 0.327569 0.288119
H74   H     H_    0.977937 0.369914 0.276479 0.274786
H75   H     H_    0.045500 0.696950 0.741437 0.121222
H76   H     H_    0.037313 0.741598 0.795224 0.160947
H77   H     H_    0.149205 0.694735 0.761850 0.263839
H78   H     H_    0.133407 0.728364 0.821982 0.192460
H79   H     H_    0.162355 0.962042 0.899993 0.179508
H80   H     H_    0.069267 0.651311 0.845355 0.265312
H81   H     H_    0.138241 0.627605 0.834729 0.277799
H82   H     H_    0.086926 0.616785 0.785324 0.257134
H83   H     H_    0.303029 0.064533 0.272369 0.139165
H84   H     H_    0.239378 0.042256 0.246125 0.100292
H85   H     H_    0.249004 0.107346 0.349371 0.244659
H86   H     H_    0.190294 0.070804 0.325514 0.205783
H87   H     H_    0.237551 0.982253 0.336652 0.300415
H88   H     H_    0.240000 0.020310 0.396417 0.282085
H89   H     H_    0.300024 0.016931 0.355931 0.254923
H90   H     H_    0.837834 0.036656 0.100926 0.128427
H91   H     H_    0.705512 0.958852 0.733205 0.120881
H92   H     H_    0.747753 0.967142 0.788731 0.167864
H93   H     H_    0.698961 0.854926 0.755831 0.263739
H94   H     H_    0.730303 0.871260 0.817051 0.195464
H95   H     H_    0.655224 0.938527 0.835506 0.265520
H96   H     H_    0.629825 0.869479 0.825403 0.278293
H97   H     H_    0.622877 0.920357 0.774415 0.254790
H98   H     H_    0.042229 0.692586 0.255517 0.130522
H99   H     H_    0.032566 0.751333 0.214889 0.150542
H100  H     H_    0.056843 0.755445 0.333564 0.221802
H101  H     H_    0.961117 0.836590 0.900780 0.178053
H102  H     H_    0.041227 0.813472 0.292378 0.207883
H103  H     H_    0.949090 0.773846 0.273252 0.271217
H104  H     H_    0.959754 0.783115 0.342127 0.275708
H105  H     H_    0.964386 0.715093 0.314541 0.259152
H106  H     H_    0.953992 0.311348 0.754722 0.124036
H107  H     H_    0.964666 0.261264 0.804163 0.162112
H108  H     H_    0.849912 0.304966 0.774536 0.255562
H109  H     H_    0.868248 0.266417 0.831712 0.193565
H110  H     H_    0.927705 0.344554 0.861351 0.266500
H111  H     H_    0.857334 0.364922 0.852506 0.276890
H112  H     H_    0.323206 0.551371 0.573536 0.119452
H113  H     H_    0.044836 0.167659 0.095825 0.118452
H114  H     H_    0.907590 0.383899 0.804316 0.257547
H115  H     H_    0.726704 0.052576 0.703089 0.136527
H116  H     H_    0.790328 0.038858 0.734760 0.159811
H117  H     H_    0.777255 0.106718 0.632883 0.226827
H118  H     H_    0.840692 0.086781 0.662890 0.199711
H119  H     H_    0.818248 0.987808 0.649585 0.297302
H120  H     H_    0.816114 0.025545 0.588971 0.263983
H121  H     H_    0.753132 0.006585 0.620890 0.259468
H122  H     H_    0.297751 0.927202 0.275609 0.137024
H123  H     H_    0.260950 0.944701 0.218395 0.120544
H124  H     H_    0.838529 0.037862 0.898912 0.183492
H125  H     H_    0.286628 0.823415 0.247086 0.256321
H126  H     H_    0.266445 0.850817 0.185118 0.172412
H127  H     H_    0.354542 0.903794 0.179593 0.256419
H128  H     H_    0.365128 0.830450 0.185796 0.272947
H129  H     H_    0.375466 0.874253 0.241405 0.267237
H130  H     H_    0.947647 0.710830 0.721161 0.128967
H131  H     H_    0.960845 0.778608 0.744924 0.156273
H132  H     H_    0.898042 0.751758 0.643269 0.234790
H133  H     H_    0.917071 0.819327 0.665251 0.201851
H134  H     H_    0.014625 0.797630 0.656561 0.302436
H135  H     H_    0.169220 0.951754 0.093261 0.130791
H136  H     H_    0.979741 0.782181 0.596670 0.263900
H137  H     H_    0.998942 0.726750 0.639965 0.260474
H138  H     H_    0.035466 0.280952 0.279814 0.147555
H139  H     H_    0.025486 0.241416 0.222835 0.123239
H140  H     H_    0.137048 0.293389 0.251036 0.253224
H141  H     H_    0.116400 0.265900 0.189384 0.190071
H142  H     H_    0.044674 0.340152 0.181951 0.267564
H143  H     H_    0.113605 0.366721 0.185833 0.280379
H144  H     H_    0.070026 0.369358 0.242166 0.256445
H145  H     H_    0.283782 0.949241 0.714507 0.130977
H146  H     H_    0.039488 0.164591 0.901546 0.179459
H147  H     H_    0.217576 0.962076 0.740851 0.152648
H148  H     H_    0.238235 0.894564 0.640718 0.235922
H149  H     H_    0.173285 0.917638 0.664751 0.199723
H150  H     H_    0.200551 0.014978 0.650757 0.305217
H151  H     H_    0.208421 0.976157 0.591706 0.268757
H152  H     H_    0.267931 0.993432 0.629824 0.262831
H153  H     H_    0.736531 0.034406 0.295271 0.135940
H154  H     H_    0.765791 0.033084 0.232191 0.124978
H155  H     H_    0.708322 0.134968 0.279623 0.192833
H156  H     H_    0.731767 0.128201 0.213738 0.192107
H157  H     H_    0.945670 0.821055 0.068391 0.124417
H158  H     H_    0.666369 0.049977 0.200133 0.267641
H159  H     H_    0.632284 0.112546 0.219262 0.271814
H160  H     H_    0.642063 0.057940 0.266268 0.265315
H161  H     H_    0.047880 0.293031 0.725095 0.128091
H162  H     H_    0.036810 0.223587 0.745965 0.165434
H163  H     H_    0.095662 0.259235 0.644433 0.233544
H164  H     H_    0.080765 0.189423 0.663706 0.202987
H165  H     H_    0.982047 0.206385 0.658467 0.295712
H166  H     H_    0.014079 0.227406 0.598555 0.260900
H167  H     H_    0.993516 0.278966 0.644836 0.262374
H168  H     H_    0.162660 0.038323 0.100805 0.157809
H169  H     H_    0.879629 0.633870 0.179568 0.148179
H170  H     H_    0.891357 0.681070 0.127396 0.112215
H171  H     H_    0.786389 0.609925 0.139626 0.228214
H172  H     H_    0.804564 0.651910 0.084402 0.200084
H173  H     H_    0.887141 0.593160 0.069343 0.269116
H174  H     H_    0.824463 0.553770 0.067733 0.276289
H175  H     H_    0.867939 0.550351 0.124412 0.261049
H176  H     H_    0.296830 0.367104 0.512641 0.337865
H177  H     H_    0.595671 0.524000 0.312358 0.334133
H178  H     H_    0.331512 0.752230 0.515148 0.331109
H179  H     H_    0.831020 0.952723 0.906264 0.151378
H180  H     H_    0.629686 0.225010 0.452304 0.354320
H181  H     H_    0.698118 0.638339 0.516593 0.328960
H182  H     H_    0.337476 0.412568 0.325222 0.326759
H183  H     H_    0.649493 0.321895 0.522435 0.346058
H184  H     H_    0.410534 0.687633 0.340950 0.316817
H185  H     H_    0.230726 0.638122 0.478678 0.335422
H186  H     H_    0.698898 0.405084 0.722681 0.346999
H187  H     H_    0.335491 0.246164 0.483479 0.329025
H188  H     H_    0.589462 0.732612 0.689981 0.350028
H189  H     H_    0.724684 0.410424 0.302491 0.333192
H190  H     H_    0.959131 0.164877 0.098713 0.149041
H191  H     H_    0.278585 0.590132 0.699853 0.353088
H192  H     H_    0.616452 0.754958 0.348498 0.347263
H193  H     H_    0.408212 0.250564 0.672631 0.350683
H194  H     H_    0.797327 0.865707 0.015068 0.325977
H195  H     H_    0.122717 0.026474 0.819987 0.322621
H196  H     H_    0.869803 0.210588 0.102875 0.314403
H197  H     H_    0.023585 0.877148 0.819622 0.322877
H198  H     H_    0.215512 0.118707 0.114373 0.314952
H199  H     H_    0.881103 0.975775 0.820455 0.324358
H200  H     H_    0.114820 0.780524 0.108073 0.321304
H201  H     H_    0.045937 0.831295 0.905715 0.147945
H202  H     H_    0.980631 0.123930 0.820587 0.322830
H203  H     H_    0.751895 0.083354 0.818405 0.344083
H204  H     H_    0.170083 0.973430 0.224013 0.330620
H205  H     H_    0.907327 0.743018 0.831600 0.347616
H206  H     H_    0.014955 0.148194 0.227019 0.334200
H207  H     H_    0.253699 0.911926 0.827699 0.348264
H208  H     H_    0.860040 0.019204 0.234592 0.342828
H209  H     H_    0.091451 0.259265 0.832862 0.346944
H210  H     H_    0.905346 0.760587 0.184803 0.338001
H211  H     H_    0.822249 0.944399 0.071761 0.131845
H212  H     H_    0.445585 0.322350 0.425457 0.131196
H213  H     H_    0.168779 0.047527 0.906188 0.148860
H214  H     H_    0.034308 0.838500 0.101390 0.158608
H215  H     H_    0.954687 0.168608 0.905267 0.149727
H216  H     H_    0.119612 0.346361 0.593418 0.128969
H217  H     H_    0.180841 0.381217 0.577275 0.164507
H218  H     H_    0.161067 0.323261 0.683372 0.259931
H219  H     H_    0.216296 0.369227 0.667404 0.198527
H220  H     H_    0.149205 0.446020 0.653611 0.259128
H221  H     H_    0.145919 0.417376 0.718523 0.277986
H222  H     H_    0.094007 0.399684 0.671536 0.259953
H223  H     H_    0.551842 0.677778 0.571475 0.118852
H224  H     H_    0.749590 0.524260 0.193007 0.128509
H225  H     H_    0.713884 0.511552 0.251619 0.174520
H226  H     H_    0.782225 0.617413 0.231845 0.250738
H227  H     H_    0.755805 0.593378 0.293075 0.202852
H228  H     H_    0.815560 0.509784 0.287950 0.267184
H229  H     H_    0.854318 0.573208 0.286248 0.275284
H230  H     H_    0.843355 0.535220 0.227015 0.259852
H231  H     H_    0.320684 0.877838 0.580305 0.148159
H232  H     H_    0.362591 0.820252 0.567409 0.128732
H233  H     H_    0.310968 0.840256 0.675414 0.254978
H234  H     H_    0.322687 0.553024 0.427521 0.141639
H235  H     H_    0.365374 0.793842 0.659811 0.192348
H236  H     H_    0.425180 0.874149 0.635603 0.262134
H237  H     H_    0.401507 0.877601 0.702032 0.276751
H238  H     H_    0.370437 0.920759 0.652946 0.257491
H239  H     H_    0.723966 0.133123 0.367590 0.144532
H240  H     H_    0.655240 0.161149 0.370937 0.075111
H241  H     H_    0.714584 0.096110 0.457596 0.213771
H242  H     H_    0.646455 0.123823 0.461357 0.179420
H243  H     H_    0.617931 0.065058 0.385734 0.265901
H244  H     H_    0.644170 0.024482 0.439239 0.272437
H245  H     H_    0.674322 0.451450 0.581006 0.104268
H246  H     H_    0.686323 0.036819 0.382802 0.269702
H247  H     H_    0.878426 0.668540 0.588607 0.130053
H248  H     H_    0.819545 0.629776 0.572837 0.166529
H249  H     H_    0.839297 0.680777 0.681554 0.260798
H250  H     H_    0.788494 0.630398 0.664641 0.199135
H251  H     H_    0.862587 0.562741 0.643586 0.260030
H252  H     H_    0.866042 0.586351 0.710008 0.276792
H253  H     H_    0.913433 0.613333 0.662535 0.261383
H254  H     H_    0.153111 0.397439 0.297751 0.142540
H255  H     H_    0.195559 0.406680 0.353373 0.121447
H256  H     H_    0.529869 0.656422 0.394295 0.142662
H257  H     H_    0.111176 0.311876 0.340916 0.237022
H258  H     H_    0.149466 0.328094 0.398671 0.213925
H259  H     H_    0.103414 0.420128 0.402955 0.266708
H260  H     H_    0.054900 0.363940 0.404128 0.280018
H261  H     H_    0.064450 0.403307 0.345100 0.268555
H262  H     H_    0.709343 0.136570 0.561107 0.123254
H263  H     H_    0.661037 0.189185 0.549678 0.161973
H264  H     H_    0.698405 0.156200 0.660752 0.256977
H265  H     H_    0.639299 0.195680 0.642863 0.202648
H266  H     H_    0.599561 0.112814 0.598247 0.265232
H267  H     H_    0.446685 0.321157 0.566668 0.134294
H268  H     H_    0.612981 0.100454 0.666453 0.276415
H269  H     H_    0.658617 0.072922 0.618163 0.262711
H270  H     H_    0.369469 0.873058 0.346999 0.116786
H271  H     H_    0.376042 0.822467 0.397159 0.114538
H272  H     H_    0.273950 0.894871 0.375561 0.245830
H273  H     H_    0.279953 0.845284 0.427628 0.208065
H274  H     H_    0.357975 0.897654 0.465497 0.263667
H275  H     H_    0.298013 0.940267 0.458863 0.281878
H276  H     H_    0.353451 0.947717 0.413099 0.264260
H277  H     H_    0.127016 0.626512 0.414921 0.139497
H278  H     H_    0.677366 0.555608 0.573654 0.133456
H279  H     H_    0.193915 0.606819 0.395582 0.118177
H280  H     H_    0.113630 0.678556 0.332486 0.228145
H281  H     H_    0.181384 0.660229 0.311291 0.210057
H282  H     H_    0.155433 0.560317 0.314859 0.267611
H283  H     H_    0.111315 0.599127 0.271946 0.284797
H284  H     H_    0.087231 0.579063 0.335631 0.260291
H285  H     H_    0.825528 0.408525 0.735699 0.150077
H286  H     H_    0.787149 0.421064 0.677880 0.107999
H287  H     H_    0.878217 0.332781 0.687688 0.233863
H288  H     H_    0.844079 0.354193 0.628971 0.198578
N1    N     N_R   0.592620 0.447430 0.448130 -0.062206
N2    N     N_R   0.407380 0.447430 0.448130 -0.048375
N3    N     N_R   0.447430 0.592620 0.551870 -0.057646
N4    N     N_R   0.552570 0.407380 0.448130 -0.060425
N5    N     N_R   0.407380 0.447430 0.551870 -0.047805
N6    N     N_R   0.592620 0.552570 0.448130 -0.052001
N7    N     N_R   0.552570 0.407380 0.551870 -0.052139
N8    N     N_R   0.447430 0.592620 0.448130 -0.055268
N9    N     N_R   0.092620 0.947430 0.948130 -0.059609
N10   N     N_R   0.907380 0.052570 0.051870 -0.056344
N11   N     N_R   0.947430 0.907380 0.948130 -0.061662
N12   N     N_R   0.407380 0.552570 0.551870 -0.061644
N13   N     N_R   0.052570 0.092620 0.051870 -0.054792
N14   N     N_R   0.907380 0.052570 0.948130 -0.059989
N15   N     N_R   0.092620 0.947430 0.051870 -0.055313
N16   N     N_R   0.052570 0.092620 0.948130 -0.060001
N17   N     N_R   0.947430 0.907380 0.051870 -0.056305
N18   N     N_R   0.092620 0.052570 0.051870 -0.049706
N19   N     N_R   0.907380 0.947430 0.948130 -0.051148
N20   N     N_R   0.947430 0.092620 0.051870 -0.051321
N21   N     N_R   0.052570 0.907380 0.948130 -0.048739
N22   N     N_R   0.907380 0.947430 0.051870 -0.043384
N23   N     N_R   0.447430 0.407380 0.448130 -0.057624
N24   N     N_R   0.092620 0.052570 0.948130 -0.049639
N25   N     N_R   0.052570 0.907380 0.051870 -0.047335
N26   N     N_R   0.947430 0.092620 0.948130 -0.049464
N27   N     N_R   0.552570 0.592620 0.551870 -0.060581
N28   N     N_R   0.407380 0.552570 0.448130 -0.055857
N29   N     N_R   0.592620 0.447430 0.551870 -0.055801
N30   N     N_R   0.552570 0.592620 0.448130 -0.064553
N31   N     N_R   0.447430 0.407380 0.551870 -0.063292
N32   N     N_R   0.592620 0.552570 0.551870 -0.045966
Ni1   Ni    Ni4+2 0.591800 0.500000 0.500000 0.208737
Ni2   Ni    Ni4+2 0.408200 0.500000 0.500000 0.224680
Ni3   Ni    Ni4+2 0.500000 0.408200 0.500000 0.225165
Ni4   Ni    Ni4+2 0.500000 0.591800 0.500000 0.222160
Ni5   Ni    Ni4+2 0.091800 0.000000 0.000000 0.220947
Ni6   Ni    Ni4+2 0.908200 0.000000 0.000000 0.218127
Ni7   Ni    Ni4+2 0.000000 0.908200 0.000000 0.216340
Ni8   Ni    Ni4+2 1.000000 0.091800 0.000000 0.221525
O1    O     O_3   0.185170 0.295037 0.586669 -0.635402
O2    O     O_3   0.775561 0.344364 0.715821 -0.661648
O3    O     O_3   0.284757 0.192135 0.414575 -0.650889
O4    O     O_3   0.662679 0.796362 0.685695 -0.665999
O5    O     O_3   0.761141 0.321452 0.278544 -0.644670
O6    O     O_3   0.210687 0.659506 0.693753 -0.666432
O7    O     O_3   0.631117 0.758132 0.256668 -0.661924
O8    O     O_3   0.330817 0.192425 0.666719 -0.665759
O9    O     O_3   0.685149 0.796422 0.089900 -0.630886
O10   O     O_3   0.219264 0.085386 0.724933 -0.654373
O11   O     O_3   0.857904 0.264173 0.232039 -0.592973
O12   O     O_3   0.685706 0.576655 0.204452 -0.632500
O13   O     O_3   0.081148 0.772306 0.730763 -0.656936
O14   O     O_3   0.253398 0.127868 0.249874 -0.625112
O15   O     O_3   0.779535 0.920815 0.726742 -0.656830
O16   O     O_3   0.111673 0.738569 0.245664 -0.636718
O17   O     O_3   0.922658 0.235719 0.736924 -0.659277
O18   O     O_3   0.762531 0.121104 0.733952 -0.665410
O19   O     O_3   0.218161 0.901476 0.276570 -0.666186
O20   O     O_3   0.878739 0.751151 0.744180 -0.666372
O21   O     O_3   0.076917 0.208134 0.280537 -0.645987
O22   O     O_3   0.245764 0.879864 0.741559 -0.665640
O23   O     O_3   0.279456 0.804659 0.583384 -0.652209
O24   O     O_3   0.804615 0.082927 0.288180 -0.647913
O25   O     O_3   0.118291 0.253106 0.745005 -0.668382
O26   O     O_3   0.828371 0.700201 0.180409 -0.659775
O27   O     O_3   0.264364 0.359651 0.534570 -0.759524
O28   O     O_3   0.626738 0.531694 0.288759 -0.721634
O29   O     O_3   0.351722 0.724374 0.535910 -0.756845
O30   O     O_3   0.624749 0.264268 0.442972 -0.744233
O31   O     O_3   0.731166 0.646708 0.537429 -0.748724
O32   O     O_3   0.298590 0.401228 0.325655 -0.729519
O33   O     O_3   0.660849 0.286529 0.538383 -0.711194
O34   O     O_3   0.715569 0.196858 0.419530 -0.621862
O35   O     O_3   0.395986 0.724351 0.350045 -0.736112
O36   O     O_3   0.266528 0.629396 0.462779 -0.766692
O37   O     O_3   0.678165 0.403087 0.689617 -0.734282
O38   O     O_3   0.354864 0.274526 0.462530 -0.774643
O39   O     O_3   0.594203 0.705385 0.661822 -0.748544
O40   O     O_3   0.692368 0.402839 0.324615 -0.739499
O41   O     O_3   0.303860 0.594727 0.670093 -0.748896
O42   O     O_3   0.606315 0.716643 0.357820 -0.756601
O43   O     O_3   0.403768 0.281142 0.647343 -0.756922
O44   O     O_3   0.764714 0.859155 0.037065 -0.748007
O45   O     O_3   0.808486 0.714251 0.587868 -0.636926
O46   O     O_3   0.158652 0.038418 0.806157 -0.757943
O47   O     O_3   0.882067 0.226146 0.136488 -0.722101
O48   O     O_3   0.034741 0.840490 0.806662 -0.764685
O49   O     O_3   0.224808 0.105480 0.149819 -0.717698
O50   O     O_3   0.844974 0.965542 0.805889 -0.753591
O51   O     O_3   0.100706 0.770162 0.142903 -0.736075
O52   O     O_3   0.969496 0.161076 0.808449 -0.768757
O53   O     O_3   0.787777 0.084204 0.836250 -0.758122
O54   O     O_3   0.161780 0.954281 0.190948 -0.759646
O55   O     O_3   0.906348 0.779899 0.847816 -0.759411
O56   O     O_3   0.209677 0.336348 0.307006 -0.634508
O57   O     O_3   0.035390 0.144268 0.193958 -0.753353
O58   O     O_3   0.217210 0.910557 0.844255 -0.758467
O59   O     O_3   0.862877 0.037730 0.200224 -0.746398
O60   O     O_3   0.093445 0.222191 0.848975 -0.759068
O61   O     O_3   0.902028 0.788049 0.156367 -0.759052
O62   O     O_3   0.736903 0.212847 0.581356 -0.625647
O63   O     O_3   0.320625 0.805581 0.336006 -0.632810
O64   O     O_3   0.180592 0.691513 0.412725 -0.640365

loop_
_geom_bond_atom_site_label_1
_geom_bond_atom_site_label_2
_ccdc_geom_bond_type
C75   H230  S    
C62   C234  A    
C97   H281  S    
C200  C218  S    
C111  H28   S    
C141  H94   S    
C198  C216  S    
C133  H76   S    
C170  H161  S    
C160  O21   S    
C145  H103  S    
C1    N1    A    
H208  O59   S    
C231  C245  S    
C105  H12   S    
C168  C249  A    
C15   C185  A    
C121  H47   S    
C165  H151  S    
C159  H134  S    
C79   H79   S    
C35   N5    A    
C66   O59   S    
C78   H237  S    
C76   O23   S    
C103  O3    S    
C106  C107  S    
C213  N29   A    
C143  C144  S    
C147  H106  S    
C80   O34   S    
N1    N4    A    
C31   C195  A    
C33   O26   S    
C99   H286  S    
C60   O52   S    
C110  C111  S    
C120  H44   S    
C177  H190  S    
H207  O58   S    
C11   C47   A    
C167  H155  S    
C148  H108  S    
C172  H167  S    
C139  H88   S    
H202  O52   S    
C203  C210  T    
C160  H138  S    
C147  O17   S    
C25   C60   A    
C169  H160  S    
H204  O54   S    
H199  O50   S    
C33   C69   A    
C158  H133  S    
C151  H118  S    
C29   C64   A    
C133  O13   S    
N2    N23   A    
C156  O20   S    
H180  O30   S    
C46   C243  A    
H183  O33   S    
C72   H221  S    
C17   C52   A    
H182  O32   S    
C104  C105  S    
C82   H243  S    
C109  H22   S    
H196  O47   S    
C135  C251  A    
C36   C255  A    
C58   O50   S    
C166  H154  S    
C92   H268  S    
C140  C141  S    
C154  H126  S    
C178  H201  S    
C21   C197  A    
C110  H25   S    
C34   C219  A    
C162  H142  S    
C24   H24   S    
C180  C239  A    
H203  O53   S    
C181  C252  A    
C139  H87   S    
C112  H112  S    
C146  N16   A    
C185  C255  A    
C57   C242  A    
C40   O32   S    
C130  H69   S    
N22   Ni6   S    
C179  N22   A    
C90   C247  A    
C79   N9    A    
C94   H273  S    
C59   C234  A    
C28   O20   S    
C45   C225  A    
C148  C149  S    
C154  C155  S    
C80   H239  S    
C75   H228  S    
C48   O40   S    
C101  N11   A    
C112  C238  A    
C23   O16   S    
C158  C159  S    
C225  C239  S    
C111  H26   S    
C7    C192  A    
C152  H120  S    
C9    O2    S    
C119  H42   S    
C106  O4    S    
C136  H81   S    
N21   Ni7   S    
C79   C245  A    
C120  H45   S    
C126  H58   S    
C131  H70   S    
C71   H219  S    
C110  H23   S    
C81   H241  S    
C47   C223  A    
C41   C226  A    
C69   O61   S    
C107  H16   S    
C175  H175  S    
C93   H270  S    
C236  C250  S    
C144  C145  S    
C93   O63   S    
C182  N25   A    
C171  H163  S    
C22   C58   A    
C181  H213  S    
C16   C184  A    
C139  H89   S    
C127  O10   S    
C209  C217  T    
N32   Ni1   S    
C4    C188  A    
C156  C158  S    
C130  C131  S    
C37   C221  A    
C6    O62   S    
C56   O49   S    
C37   O29   S    
C46   H46   S    
N11   N19   A    
C132  H73   S    
C48   C222  A    
C137  H83   S    
C116  H34   S    
C102  H4    S    
C173  O26   S    
C99   O2    S    
C107  H17   S    
C164  H149  S    
C123  C125  S    
C161  H140  S    
C5    C189  A    
C28   C63   A    
C142  H95   S    
C67   C229  A    
C68   H68   S    
N17   Ni7   S    
C98   H283  S    
C138  H86   S    
C104  H8    S    
C16   O8    S    
C86   H255  S    
C101  C248  A    
C140  H92   S    
C63   O55   S    
N10   N20   A    
N6    N30   A    
C49   O41   S    
C57   N7    A    
C18   C194  A    
C147  C148  S    
C16   C51   A    
C58   C233  A    
C94   H272  S    
C128  C129  S    
C76   H231  S    
C77   H233  S    
C97   C98   S    
N4    Ni3   S    
C176  C248  A    
C177  C247  A    
C219  C244  S    
C23   C59   A    
N27   N32   A    
C118  H40   S    
C152  H121  S    
N18   Ni5   S    
C8    C192  A    
C191  N27   A    
C2    C239  A    
C226  C242  S    
C170  C171  S    
C115  C116  S    
H184  O35   S    
C204  C214  T    
N10   Ni6   S    
C113  C249  A    
H178  O29   S    
C136  H80   S    
C170  O25   S    
C174  C175  S    
N15   Ni5   S    
C124  C250  A    
C9    C190  A    
H206  O57   S    
C35   H35   S    
C135  N15   A    
C107  C108  S    
C184  C254  A    
C89   C91   S    
H186  O37   S    
C26   C200  A    
C126  H56   S    
C73   H224  S    
C70   H216  S    
C37   C256  A    
C106  H15   S    
H200  O51   S    
C172  H166  S    
N5    Ni2   S    
N13   Ni8   S    
C109  O5    S    
H189  O40   S    
C187  C205  S    
C175  H173  S    
H210  O61   S    
C68   N8    A    
C55   O48   S    
C52   O44   S    
C59   O51   S    
C155  H129  S    
C220  C243  S    
C30   C196  A    
C134  H78   S    
C10   C189  A    
C124  N14   A    
C88   H260  S    
C11   C188  A    
C27   C199  A    
C104  H9    S    
C85   H252  S    
C113  N13   A    
C115  H31   S    
C91   C92   S    
C182  H214  S    
C45   O38   S    
C114  H30   S    
C51   C219  A    
C91   H265  S    
C12   C187  A    
C155  H127  S    
C116  H36   S    
C123  H52   S    
C146  H146  S    
C129  H65   S    
C27   C62   A    
C13   H13   S    
N27   Ni4   S    
N15   N25   A    
C196  C214  S    
C83   C84   S    
N6    Ni1   S    
C68   C241  A    
C156  H131  S    
C20   O13   S    
C87   H257  S    
C70   O1    S    
C150  H116  S    
C36   O28   S    
C22   O15   S    
C64   O57   S    
C27   O19   S    
C100  H287  S    
C32   C67   A    
C19   C54   A    
C149  H111  S    
C174  H172  S    
C128  H62   S    
H192  O42   S    
C69   C228  A    
C179  H211  S    
C77   H235  S    
C128  H63   S    
C120  C121  S    
C166  O24   S    
C191  C240  A    
N16   N24   A    
C65   O58   S    
C144  H100  S    
C184  C201  S    
C49   C221  A    
C111  H27   S    
C141  H93   S    
C202  H234  S    
C83   H248  S    
C133  H75   S    
C109  H21   S    
C224  C243  A    
C114  C115  S    
C89   H263  S    
C26   O18   S    
C222  C237  S    
C25   O17   S    
C165  H150  S    
C34   C254  A    
C173  H170  S    
C83   O45   S    
C183  C250  A    
C195  C212  S    
C78   H238  S    
C117  C118  S    
C153  H123  S    
C193  C210  S    
C122  H51   S    
C47   O39   S    
C88   H261  S    
C99   H285  S    
C183  H215  S    
C30   C65   A    
C33   C193  A    
C228  C253  S    
C179  C253  A    
C129  H64   S    
C132  H72   S    
C74   H226  S    
N24   Ni5   S    
C163  H145  S    
C10   C45   A    
C122  H50   S    
C150  C151  S    
C232  C249  S    
C169  H159  S    
C3    C187  A    
C164  H148  S    
C176  N19   A    
C75   H229  S    
C24   C237  A    
C131  H71   S    
C151  H117  S    
C240  C246  A    
C87   C88   S    
C74   H227  S    
C73   C74   S    
C57   H57   S    
C199  C217  S    
C8    C43   A    
C12   C48   A    
C72   H222  S    
C161  C162  S    
C82   H244  S    
H188  O39   S    
C77   C78   S    
H177  O28   S    
H198  O49   S    
C188  C206  S    
C24   N4    A    
H194  O44   S    
C233  C248  S    
N8    N28   A    
C123  O9    S    
C164  C165  S    
C26   C61   A    
C13   N3    A    
C108  H18   S    
C19   O11   S    
C162  H143  S    
C153  O19   S    
C159  H137  S    
C31   O24   S    
C191  H223  S    
H185  O36   S    
C32   O25   S    
C224  H256  S    
C246  H278  S    
C38   O30   S    
C18   C53   A    
C84   H249  S    
N12   Ni2   S    
C52   C228  A    
C15   O7    S    
C67   O60   S    
C134  H77   S    
C60   C236  A    
C151  C152  S    
C180  N23   A    
C135  H135  S    
C70   C71   S    
C137  O14   S    
C73   O12   S    
C202  N28   A    
C80   H240  S    
N28   Ni2   S    
C54   O47   S    
C73   H225  S    
C39   C223  A    
C246  N32   A    
C119  H41   S    
C136  H82   S    
C256  O23   S    
C126  H59   S    
N5    N31   A    
C145  H104  S    
C1    H1    S    
C208  C218  T    
N7    N29   A    
C121  H48   S    
C65   C231  A    
C165  H152  S    
C55   C231  A    
N7    Ni3   S    
C84   C85   S    
C78   H236  S    
C181  N24   A    
C119  H43   S    
C64   C232  A    
C53   O46   S    
C46   N6    A    
C205  C212  T    
C42   C227  A    
C230  C247  S    
C28   C198  A    
C146  C252  A    
C234  C251  S    
C7    C42   A    
C96   C97   S    
C7    O63   S    
N20   Ni8   S    
C178  C245  A    
C10   O3    S    
N23   Ni3   S    
C167  H156  S    
C201  C211  T    
C207  C215  T    
C102  H5    S    
C123  H53   S    
N25   Ni7   S    
C39   O31   S    
C121  C122  S    
C112  N12   A    
C95   H274  S    
C158  H132  S    
C96   H277  S    
C142  H96   S    
C97   H280  S    
C117  H38   S    
C156  H130  S    
C125  C126  S    
C98   H284  S    
C4    O45   S    
C163  O22   S    
C105  H11   S    
C127  C128  S    
C120  O8    S    
N9    Ni5   S    
C130  H67   S    
C137  C138  S    
C224  N30   A    
C180  H212  S    
C213  C242  A    
N11   Ni7   S    
C89   O62   S    
C166  H153  S    
C86   C87   S    
C22   C198  A    
C176  H179  S    
C143  O16   S    
C108  H20   S    
C154  H125  S    
C76   H232  S    
C21   C56   A    
C13   C238  A    
C140  O15   S    
N30   Ni4   S    
C221  C238  S    
C223  C240  S    
C38   C222  A    
C25   C200  A    
C109  C110  S    
C127  H61   S    
N13   N18   A    
C189  C207  S    
C50   C220  A    
C103  H6    S    
C113  H113  S    
C14   O6    S    
C94   C95   S    
C235  C244  A    
N14   Ni6   S    
C138  C139  S    
C143  H98   S    
C14   C49   A    
N29   Ni1   S    
C71   C72   S    
C192  C209  S    
N8    Ni4   S    
C5    C40   A    
C117  H37   S    
C103  C104  S    
H176  O27   S    
C152  H119  S    
C61   O53   S    
C117  O7    S    
C125  H54   S    
C148  H109  S    
C53   C229  A    
C149  H114  S    
C81   H242  S    
C31   C66   A    
C171  C172  S    
C19   C195  A    
C93   C94   S    
C8    O64   S    
H197  O48   S    
C17   C193  A    
C163  C164  S    
C93   H271  S    
C162  H144  S    
C171  H164  S    
C36   C220  A    
C81   C82   S    
N1    Ni1   S    
C173  C174  S    
C213  H245  S    
C130  O11   S    
C41   O33   S    
H181  O31   S    
C5    O56   S    
C85   H251  S    
C11   O4    S    
C122  H49   S    
C14   C186  A    
H195  O46   S    
C178  N21   A    
C137  H84   S    
N17   N22   A    
H191  O41   S    
C23   C199  A    
C116  H33   S    
C102  H3    S    
C56   C232  A    
C160  H139  S    
C1    C237  A    
C15   C50   A    
C40   C225  A    
C118  C119  S    
H209  O60   S    
C157  H157  S    
C161  H141  S    
C194  C211  S    
C96   H279  S    
C132  H74   S    
C114  O6    S    
C3    C38   A    
C6    C41   A    
C101  H101  S    
C98   H282  S    
C138  H85   S    
N19   Ni6   S    
C86   H254  S    
C42   O35   S    
C115  H32   S    
C140  H91   S    
C197  C215  S    
C177  N20   A    
C44   O37   S    
C2    N2    A    
C127  H60   S    
C150  O18   S    
C35   C244  A    
C12   O5    S    
C92   H269  S    
C167  C169  S    
N16   Ni8   S    
C20   C55   A    
C43   C227  A    
C3    O34   S    
N31   Ni3   S    
C74   C75   S    
C86   O56   S    
C70   H217  S    
C118  H39   S    
H187  O38   S    
C76   C77   S    
C32   C194  A    
C83   H247  S    
C62   O54   S    
C82   H246  S    
C134  C136  S    
C89   H262  S    
C105  H10   S    
C202  C241  A    
C51   O43   S    
C91   H264  S    
C147  H107  S    
C159  H136  S    
C50   O42   S    
C173  H169  S    
C182  C251  A    
C170  H162  S    
C186  C256  A    
C157  C253  A    
C63   C233  A    
C153  H122  S    
C99   C100  S    
H205  O55   S    
C4    C39   A    
N2    Ni2   S    
C6    C190  A    
C100  C102  S    
C34   O27   S    
C186  C204  S    
C124  H124  S    
N3    N12   A    
H193  O43   S    
N9    N21   A    
C71   H218  S    
C168  N18   A    
C190  C208  S    
C2    H2    S    
C106  H14   S    
C29   C197  A    
C172  H165  S    
C166  C167  S    
C90   H90   S    
C175  H174  S    
C125  H55   S    
C169  H158  S    
C185  C203  S    
C95   H275  S    
C183  N26   A    
C206  C216  T    
C100  H288  S    
C21   O14   S    
C9    C44   A    
C88   H259  S    
C85   H253  S    
C80   C81   S    
C227  C241  S    
C114  H29   S    
C145  H105  S    
C155  H128  S    
C66   C230  A    
C92   H266  S    
C160  C161  S    
C90   N10   A    
C129  H66   S    
C108  H19   S    
C30   O22   S    
C157  N17   A    
C141  C142  S    
C29   O21   S    
C96   O64   S    
N26   Ni8   S    
C133  C134  S    
C44   C226  A    
N3    Ni4   S    
C87   H258  S    
C144  H102  S    
C150  H115  S    
C18   O10   S    
C54   C230  A    
C149  H110  S    
C17   O9    S    
C43   O36   S    
C254  O1    S    
C235  H267  S    
C72   H220  S    
C229  C252  S    
C168  H168  S    
C95   H276  S    
C84   H250  S    
C255  O12   S    
C174  H171  S    
C142  H97   S    
C235  N31   A    
C61   C236  A    
C103  H7    S    
C163  H147  S    
C153  C154  S    
C20   C196  A    
N14   N26   A    
C131  C132  S    
C143  H99   S    
