data_mof_unit_34752.cif
_audit_creation_date              2012-12-10T17:14:42-0500
_audit_creation_method            fapswitch 2.2
_symmetry_space_group_name_H-M    P1
_symmetry_Int_Tables_number       1
_space_group_crystal_system       triclinic
_cell_length_a                    10.627331
_cell_length_b                    13.001554
_cell_length_c                    11.676169
_cell_angle_alpha                 99.770844
_cell_angle_beta                  93.441908
_cell_angle_gamma                 90.299381
_cell_volume                      1586.8525813

loop_
_atom_site_label
_atom_site_type_symbol
_atom_type_description
_atom_site_fract_x
_atom_site_fract_y
_atom_site_fract_z
_atom_type_partial_charge
C1    C     C_R   0.498079 0.299096 0.478698 0.805104
C2    C     C_R   0.501921 0.700904 0.521302 0.805106
C3    C     C_R   0.505340 0.139261 0.566279 -0.267273
C4    C     C_R   0.494662 0.860738 0.433721 -0.267274
C5    C     C_R   0.504695 0.031236 0.555910 0.174406
C6    C     C_R   0.495307 0.968764 0.444090 0.174405
C7    C     C_R   0.381051 0.399842 0.022267 0.161940
C8    C     C_R   0.618930 0.600174 0.977734 0.161921
C9    C     C_R   0.394064 0.410280 0.145343 0.043170
C10   C     C_R   0.605927 0.589728 0.854659 0.043166
C11   C     C_R   0.549648 0.543052 0.157022 0.005505
C12   C     C_R   0.450352 0.456949 0.842978 0.005491
C13   C     C_R   0.542998 0.536139 0.034013 -0.050372
C14   C     C_R   0.456996 0.463867 0.965988 -0.050408
C15   C     C_R   0.259199 0.499935 0.500636 0.787522
C16   C     C_R   0.740801 0.500065 0.499364 0.787522
C17   C     C_3   0.047159 0.505983 0.610440 -0.137572
C18   C     C_3   0.952841 0.494017 0.389560 -0.137576
C19   C     C_3   0.959920 0.417393 0.543794 -0.164754
C20   C     C_3   0.040080 0.582607 0.456206 -0.164755
C21   C     C_3   0.877574 0.499971 0.498378 0.021844
C22   C     C_3   0.122426 0.500029 0.501622 0.021843
C23   C     C_3   0.962519 0.588561 0.564962 -0.170617
C24   C     C_3   0.037482 0.411439 0.435037 -0.170623
C25   C     C_R   0.503155 0.814296 0.533608 -0.055037
C26   C     C_R   0.496846 0.185704 0.466392 -0.055036
C27   C     C_R   0.486630 0.015263 0.344384 -0.215067
C28   C     C_R   0.513372 0.984737 0.655616 -0.215064
C29   C     C_R   0.487338 0.123364 0.355464 -0.201226
C30   C     C_R   0.512664 0.876636 0.644536 -0.201224
Cu1   Cu    Cu3+1 0.509400 0.507730 0.615930 0.930804
Cu2   Cu    Cu3+1 0.490600 0.492270 0.384070 0.930804
H1    H     H_    0.923880 0.349764 0.579417 0.131211
H2    H     H_    0.076120 0.650235 0.420582 0.131212
H3    H     H_    0.088430 0.510812 0.700869 0.134056
H4    H     H_    0.911570 0.489187 0.299130 0.134054
H5    H     H_    0.928562 0.661006 0.617948 0.125705
H6    H     H_    0.071438 0.338994 0.382052 0.125705
H7    H     H_    0.487452 0.813071 0.347762 0.158542
H8    H     H_    0.512550 0.186929 0.652238 0.158537
H9    H     H_    0.519514 0.841992 0.722715 0.155666
H10   H     H_    0.480488 0.158008 0.277285 0.155670
H11   H     H_    0.479341 0.968176 0.258182 0.140133
H12   H     H_    0.520662 0.031824 0.741818 0.140131
H13   H     H_    0.387110 0.401462 0.788186 0.144017
H14   H     H_    0.612895 0.598535 0.211811 0.144033
H15   H     H_    0.662728 0.636599 0.808926 0.138224
H16   H     H_    0.337264 0.363413 0.191080 0.138225
N1    N     N_R   0.523540 0.519360 0.790140 -0.203477
N2    N     N_R   0.476460 0.480640 0.209860 -0.203487
O1    O     O_R   0.506670 0.354460 0.582000 -0.587447
O2    O     O_R   0.493330 0.645540 0.418000 -0.587445
O3    O     O_R   0.490800 0.341410 0.386200 -0.592821
O4    O     O_R   0.509200 0.658590 0.613800 -0.592820
O5    O     O_R   0.324790 0.506500 0.597880 -0.588923
O6    O     O_R   0.675210 0.493500 0.402120 -0.588924
O7    O     O_R   0.308910 0.493440 0.402080 -0.586087
O8    O     O_R   0.691090 0.506560 0.597920 -0.586084
N3    N     N_2   0.291853 0.327740 0.954550 -0.441586
H17   H     H_    0.229737 0.360472 0.900223 0.243924
C31   C     C_3   0.237390 0.245187 0.005671 -0.721770
H18   H     H_    0.185535 0.189076 0.936362 0.234152
H19   H     H_    0.169754 0.277953 0.070734 0.217362
H20   H     H_    0.312651 0.202089 0.046853 0.230779
N4    N     N_2   0.708101 0.672297 0.045454 -0.441602
H21   H     H_    0.770275 0.639573 0.099741 0.243925
C32   C     C_3   0.762444 0.754924 0.994369 -0.721754
H22   H     H_    0.814242 0.811056 0.063694 0.234154
H23   H     H_    0.687117 0.797975 0.953211 0.230783
H24   H     H_    0.830108 0.722246 0.929295 0.217354

loop_
_geom_bond_atom_site_label_1
_geom_bond_atom_site_label_2
_ccdc_geom_bond_type
C31   H20   S    
C24   H6    S    
C4    H7    S    
C30   H9    S    
C8    C13   A    
C17   C22   S    
C27   H11   S    
C29   H10   S    
C27   C29   A    
C5    C28   A    
C1    O1    A    
Cu1   O5    S    
C3    C26   A    
Cu1   Cu2   S    
C17   C23   S    
C20   C23   S    
C3    C5    A    
C32   H24   S    
C20   H2    S    
C7    C9    A    
C31   H18   S    
C28   C30   A    
C19   C24   S    
C8    N4    S    
C11   N2    A    
C16   O8    A    
C13   C14   A    
C15   O7    A    
Cu2   N2    S    
C16   C21   S    
N3    H17   S    
C2    O2    A    
C16   O6    A    
Cu1   N1    S    
C18   C24   S    
C5    C6    A    
Cu2   O7    S    
Cu1   O8    S    
C7    N3    S    
Cu1   O1    S    
C19   C21   S    
C12   C14   A    
C3    H8    S    
C12   N1    A    
C2    C25   S    
C18   C20   S    
C7    C14   A    
Cu1   O4    S    
C19   H1    S    
C1    C26   S    
C22   C24   S    
N3    C31   S    
C4    C6    A    
C10   N1    A    
C32   H22   S    
C18   C21   S    
C4    C25   A    
Cu2   O3    S    
C11   C13   A    
C9    H16   S    
C8    C10   A    
N4    H21   S    
C2    O4    A    
C15   O5    A    
C32   H23   S    
C25   C30   A    
C31   H19   S    
C1    O3    A    
C26   C29   A    
Cu2   O2    S    
C11   H14   S    
C17   H3    S    
C17   C19   S    
C23   H5    S    
C10   H15   S    
C18   H4    S    
C21   C23   S    
Cu2   O6    S    
C15   C22   S    
C9    N2    A    
C6    C27   A    
C20   C22   S    
C12   H13   S    
N4    C32   S    
C28   H12   S    
