data_mof_unit_66271.cif
_audit_creation_date              2012-12-10T19:35:29-0500
_audit_creation_method            fapswitch 2.2
_symmetry_space_group_name_H-M    P1
_symmetry_Int_Tables_number       1
_space_group_crystal_system       triclinic
_cell_length_a                    30.729192
_cell_length_b                    31.845102
_cell_length_c                    21.636892
_cell_angle_alpha                 89.378947
_cell_angle_beta                  135.240667
_cell_angle_gamma                 90.868339
_cell_volume                      14907.0557709

loop_
_atom_site_label
_atom_site_type_symbol
_atom_type_description
_atom_site_fract_x
_atom_site_fract_y
_atom_site_fract_z
_atom_type_partial_charge
C1    C     C_R   0.499841 0.999820 0.379847 0.881864
C2    C     C_3   0.999872 0.791136 0.501862 0.186867
C3    C     C_3   0.783816 0.943718 0.195657 -0.481646
C4    C     C_R   0.717158 0.468402 0.687998 0.108040
C5    C     C_R   0.217167 0.968483 0.687820 0.107981
C6    C     C_R   0.685868 0.499513 0.687986 -0.082330
C7    C     C_R   0.185873 0.999507 0.687991 -0.082470
C8    C     C_R   0.718516 0.526934 0.759669 -0.213147
C9    C     C_R   0.218526 0.026827 0.759830 -0.213125
C10   C     C_3   0.533954 0.764624 0.487409 -0.140899
C11   C     C_3   0.535425 0.236912 0.490203 -0.141641
C12   C     C_3   0.034457 0.264624 0.488304 -0.140985
C13   C     C_3   0.520931 0.763884 0.575110 -0.234666
C14   C     C_3   0.037569 0.736919 0.494027 -0.141751
C15   C     C_R   0.282853 0.026859 0.824067 -0.222078
C16   C     C_R   0.782844 0.526963 0.823912 -0.221465
C17   C     C_R   0.313837 0.998629 0.817250 -0.094049
C18   C     C_R   0.813831 0.498633 0.817261 -0.094352
C19   C     C_R   0.280632 0.967723 0.752547 0.146802
C20   C     C_R   0.780623 0.467644 0.752730 0.146965
C21   C     C_3   0.284066 0.955438 0.689681 -0.504291
C22   C     C_3   0.784052 0.455179 0.689935 -0.504051
C23   C     C_3   0.713909 0.456166 0.618383 -0.472139
C24   C     C_3   0.523789 0.235476 0.579481 -0.232208
C25   C     C_3   0.213922 0.956428 0.618135 -0.471825
C26   C     C_1   0.499071 0.874205 0.498926 -0.186959
C27   C     C_1   0.500907 0.125792 0.501211 -0.189890
C28   C     C_1   0.999071 0.374205 0.498922 -0.186976
C29   C     C_1   0.000904 0.625792 0.501196 -0.189936
C30   C     C_1   0.499545 0.625806 0.498670 -0.153714
C31   C     C_1   0.500005 0.374190 0.500989 -0.157440
C32   C     C_1   0.999542 0.125806 0.498666 -0.153750
C33   C     C_1   0.999993 0.874189 0.500970 -0.157522
C34   C     C_3   0.440055 0.763803 0.431713 -0.233760
C35   C     C_3   0.020321 0.263877 0.574733 -0.234655
C36   C     C_3   0.442082 0.235234 0.436364 -0.236750
C37   C     C_3   0.940132 0.263810 0.431140 -0.233705
C38   C     C_3   0.942430 0.735260 0.433930 -0.236717
C39   C     C_3   0.498355 0.791191 0.498108 0.195640
C40   C     C_3   0.500729 0.208793 0.502024 0.196659
C41   C     C_3   0.998348 0.291191 0.498092 0.195644
C42   C     C_3   0.000699 0.708792 0.501960 0.196652
C43   C     C_2   0.423085 0.720844 0.520519 0.370423
C44   C     C_2   0.426173 0.275848 0.526867 0.370863
C45   C     C_2   0.921991 0.220843 0.518569 0.370447
C46   C     C_3   0.021179 0.735441 0.577851 -0.232209
C47   C     C_2   0.921521 0.775835 0.518533 0.370617
C48   C     C_3   0.556465 0.736458 0.564257 -0.181741
C49   C     C_3   0.558420 0.264471 0.567503 -0.179780
C50   C     C_3   0.056366 0.236451 0.564790 -0.181733
C51   C     C_3   0.057990 0.764444 0.569763 -0.179725
C52   C     C_1   0.498657 0.836666 0.498424 -0.065528
C53   C     C_R   0.999838 0.499842 0.379862 0.881722
C54   C     C_1   0.501024 0.163327 0.501741 -0.066818
C55   C     C_1   0.998654 0.336666 0.498415 -0.065540
C56   C     C_1   0.001012 0.663327 0.501707 -0.066877
C57   C     C_1   0.499035 0.663336 0.498152 -0.005131
C58   C     C_1   0.500012 0.336652 0.501515 -0.006198
C59   C     C_1   0.999028 0.163336 0.498141 -0.005122
C60   C     C_1   0.999985 0.836651 0.501463 -0.006175
C61   C     C_R   0.458777 0.022405 0.238890 0.133679
C62   C     C_R   0.959995 0.523374 0.240170 0.132603
C63   C     C_R   0.499756 0.998504 0.314262 -0.100511
C64   C     C_3   0.463162 0.735786 0.508568 0.049338
C65   C     C_R   0.999719 0.498525 0.314277 -0.098638
C66   C     C_R   0.542270 0.973406 0.325379 -0.210812
C67   C     C_R   0.040935 0.472447 0.324139 -0.211516
C68   C     C_R   0.542027 0.973157 0.260390 -0.217134
C69   C     C_R   0.040679 0.472191 0.259134 -0.216352
C70   C     C_R   0.499723 0.918728 0.499699 0.903882
C71   C     C_R   0.500312 0.081271 0.500269 0.907446
C72   C     C_R   0.999723 0.418728 0.499698 0.903720
C73   C     C_R   0.000312 0.581271 0.500267 0.907285
C74   C     C_R   0.500616 0.999014 0.186095 -0.096646
C75   C     C_3   0.465652 0.262651 0.513637 0.048743
C76   C     C_R   0.000612 0.499008 0.186145 -0.098383
C77   C     C_R   0.460066 0.023305 0.178295 0.131526
C78   C     C_R   0.961338 0.524251 0.179631 0.132497
C79   C     C_3   0.409401 0.054396 0.121858 -0.500147
C80   C     C_3   0.912356 0.556570 0.124908 -0.496820
C81   C     C_3   0.408350 0.053732 0.192036 -0.480621
C82   C     C_3   0.911274 0.555914 0.195054 -0.483580
C83   C     C_R   0.471306 0.031758 0.688455 0.107468
C84   C     C_R   0.971136 0.531685 0.688293 0.107574
C85   C     C_R   0.502193 0.000460 0.688078 -0.083310
C86   C     C_3   0.962645 0.235786 0.507647 0.049357
C87   C     C_R   0.002195 0.500467 0.688084 -0.083472
C88   C     C_R   0.540986 0.972862 0.759485 -0.214304
C89   C     C_R   0.041124 0.472959 0.759630 -0.214221
C90   C     C_R   0.540976 0.972859 0.823793 -0.221495
C91   C     C_R   0.041105 0.472951 0.823929 -0.221620
C92   C     C_R   0.503650 0.001380 0.817449 -0.094202
C93   C     C_R   0.003632 0.501382 0.817436 -0.094005
C94   C     C_R   0.472634 0.032525 0.753237 0.147258
C95   C     C_R   0.972456 0.532452 0.753068 0.147117
C96   C     C_R   0.500335 0.999610 0.620430 0.875872
C97   C     C_3   0.963453 0.762643 0.509694 0.048919
C98   C     C_R   0.000335 0.499610 0.620432 0.875849
C99   C     C_3   0.406566 0.045351 0.690648 -0.503308
C100  C     C_3   0.906314 0.545102 0.690405 -0.503628
C101  C     C_3   0.405088 0.044351 0.619022 -0.472544
C102  C     C_3   0.904845 0.544103 0.618791 -0.472201
C103  C     C_R   0.380016 0.500158 0.379843 0.888012
C104  C     C_R   0.880018 0.000167 0.379847 0.888444
C105  C     C_R   0.499968 0.581292 0.499665 0.898516
C106  C     C_R   0.499948 0.418708 0.500243 0.902323
C107  C     C_R   0.999968 0.081292 0.499665 0.898618
C108  C     C_3   0.498332 0.708834 0.498000 0.185784
C109  C     C_R   0.999947 0.918708 0.500241 0.902698
C110  C     C_R   0.620040 0.500380 0.620324 0.870157
C111  C     C_R   0.120042 0.000381 0.620326 0.870099
C112  C     C_R   0.620126 0.000234 0.120191 0.888156
C113  C     C_R   0.120125 0.500233 0.120182 0.888305
C114  C     C_R   0.499987 0.999763 0.120063 0.887808
C115  C     C_R   0.000021 0.499763 0.120115 0.887873
C116  C     C_R   0.379678 0.999740 0.879538 0.879047
C117  C     C_R   0.879676 0.499741 0.879537 0.879217
C118  C     C_R   0.500037 0.000263 0.879655 0.879058
C119  C     C_3   0.499924 0.291137 0.501964 0.186888
C120  C     C_R   0.000033 0.500263 0.879653 0.879092
C121  C     C_R   0.280182 0.476600 0.240220 0.135166
C122  C     C_R   0.780193 0.976457 0.240452 0.135103
C123  C     C_3   0.475762 0.736359 0.421158 -0.180724
C124  C     C_3   0.476880 0.264216 0.424690 -0.184397
C125  C     C_3   0.976349 0.236366 0.421496 -0.180753
C126  C     C_3   0.979400 0.764250 0.426146 -0.184467
C127  C     C_R   0.314561 0.501472 0.314283 -0.100438
C128  C     C_R   0.814568 0.001483 0.314295 -0.100124
C129  C     C_R   0.283217 0.527567 0.324137 -0.200819
C130  C     C_3   0.998319 0.208834 0.497977 0.185805
C131  C     C_R   0.783224 0.027728 0.323939 -0.200869
C132  C     C_R   0.718479 0.027973 0.258956 -0.214400
C133  C     C_R   0.218475 0.527816 0.259160 -0.214507
C134  C     C_R   0.685559 0.000985 0.186224 -0.100015
C135  C     C_R   0.185554 0.500981 0.186208 -0.099792
C136  C     C_R   0.718321 0.975580 0.179945 0.133658
C137  C     C_R   0.218306 0.475720 0.179707 0.133534
C138  C     C_3   0.712591 0.943060 0.125531 -0.495887
C139  C     C_3   0.212561 0.443387 0.125007 -0.496503
C140  C     C_3   0.283787 0.444044 0.195133 -0.481627
H1    H     H_    0.563168 0.777294 0.478685 0.135632
H2    H     H_    0.068693 0.450215 0.763135 0.154793
H3    H     H_    0.568474 0.950106 0.876609 0.156357
H4    H     H_    0.068718 0.450263 0.876861 0.156231
H5    H     H_    0.401661 0.077467 0.704584 0.209961
H6    H     H_    0.376663 0.020916 0.682673 0.191597
H7    H     H_    0.901224 0.577201 0.704163 0.209973
H8    H     H_    0.876555 0.520585 0.682576 0.191618
H9    H     H_    0.399245 0.075889 0.591531 0.200691
H10   H     H_    0.374361 0.019260 0.569508 0.217289
H11   H     H_    0.898824 0.575625 0.591124 0.200709
H12   H     H_    0.564222 0.225531 0.480540 0.135168
H13   H     H_    0.874265 0.518931 0.569422 0.217268
H14   H     H_    0.308511 0.547736 0.380987 0.172766
H15   H     H_    0.808516 0.048015 0.380623 0.172744
H16   H     H_    0.694410 0.048358 0.266181 0.162851
H17   H     H_    0.194408 0.548087 0.266554 0.162641
H18   H     H_    0.690881 0.955509 0.060723 0.197488
H19   H     H_    0.692579 0.913114 0.123572 0.214268
H20   H     H_    0.190847 0.455995 0.060296 0.197560
H21   H     H_    0.192549 0.413374 0.122795 0.214031
H22   H     H_    0.303289 0.456742 0.170814 0.211422
H23   H     H_    0.064092 0.277294 0.480330 0.135582
H24   H     H_    0.304860 0.414504 0.233777 0.204709
H25   H     H_    0.803325 0.956254 0.171252 0.211323
H26   H     H_    0.804899 0.914248 0.234558 0.205403
H27   H     H_    0.694467 0.549605 0.763332 0.155672
H28   H     H_    0.194480 0.049424 0.763627 0.155800
H29   H     H_    0.457342 0.724463 0.358125 0.143186
H30   H     H_    0.457713 0.276603 0.361285 0.140838
H31   H     H_    0.958419 0.224478 0.358756 0.143188
H32   H     H_    0.962356 0.776676 0.364028 0.140913
H33   H     H_    0.308179 0.049408 0.877234 0.156245
H34   H     H_    0.068153 0.725541 0.487561 0.135254
H35   H     H_    0.808166 0.549585 0.876950 0.156176
H36   H     H_    0.302927 0.923375 0.703060 0.209942
H37   H     H_    0.305956 0.980119 0.682075 0.191701
H38   H     H_    0.802913 0.423099 0.703500 0.209950
H39   H     H_    0.805940 0.479780 0.682182 0.191686
H40   H     H_    0.692279 0.424658 0.590566 0.200647
H41   H     H_    0.695083 0.481417 0.569133 0.217304
H42   H     H_    0.192293 0.924939 0.590131 0.200627
H43   H     H_    0.195100 0.981761 0.569035 0.217260
H44   H     H_    0.604187 0.724643 0.618483 0.140502
H45   H     H_    0.365217 0.039977 0.168437 0.212955
H46   H     H_    0.606103 0.277072 0.621165 0.141272
H47   H     H_    0.104017 0.224630 0.619471 0.140498
H48   H     H_    0.105354 0.777032 0.625344 0.141340
H49   H     H_    0.539195 0.775761 0.638069 0.138864
H50   H     H_    0.542790 0.223086 0.642799 0.140367
H51   H     H_    0.038095 0.275747 0.637397 0.138852
H52   H     H_    0.038055 0.723015 0.639870 0.140234
H53   H     H_    0.392303 0.775615 0.377632 0.141637
H54   H     H_    0.394362 0.222646 0.382834 0.139820
H55   H     H_    0.892449 0.275628 0.376602 0.141694
H56   H     H_    0.424330 0.083680 0.229044 0.199679
H57   H     H_    0.895021 0.722687 0.378470 0.139815
H58   H     H_    0.574875 0.953994 0.383233 0.163069
H59   H     H_    0.072523 0.452295 0.381016 0.161980
H60   H     H_    0.574509 0.953661 0.268767 0.160220
H61   H     H_    0.072154 0.451934 0.266538 0.161036
H62   H     H_    0.367088 0.040734 0.057877 0.198949
H63   H     H_    0.425594 0.084806 0.117983 0.211994
H64   H     H_    0.869363 0.543951 0.060219 0.198544
H65   H     H_    0.930129 0.586587 0.122655 0.211936
H66   H     H_    0.400804 0.743585 0.527346 0.056383
H67   H     H_    0.867466 0.543204 0.170759 0.213205
H68   H     H_    0.404459 0.252140 0.534318 0.055197
H69   H     H_    0.899388 0.243584 0.524824 0.056424
H70   H     H_    0.898452 0.752125 0.523563 0.055304
H71   H     H_    0.928821 0.585461 0.233663 0.199706
H72   H     H_    0.568436 0.950051 0.762869 0.154678
O1    O     O_R   0.448310 1.000000 0.356640 -0.621828
O2    O     O_R   0.091580 0.000000 0.643270 -0.623138
O3    O     O_R   0.591630 0.965220 0.091680 -0.624362
O4    O     O_R   0.591630 0.034780 0.091680 -0.621933
O5    O     O_R   0.091630 0.465220 0.091680 -0.624424
O6    O     O_R   0.091630 0.534780 0.091680 -0.621922
O7    O     O_R   0.500040 0.965230 0.091630 -0.622076
O8    O     O_R   0.500040 0.034770 0.091630 -0.625017
O9    O     O_R   0.000040 0.465230 0.091630 -0.622329
O10   O     O_R   0.000040 0.534770 0.091630 -0.625125
O11   O     O_R   0.408450 0.965250 0.908360 -0.618893
O12   O     O_R   0.948310 0.500000 0.356640 -0.621672
O13   O     O_R   0.408450 0.034750 0.908360 -0.625689
O14   O     O_R   0.908450 0.465250 0.908360 -0.618794
O15   O     O_R   0.908450 0.534750 0.908360 -0.625757
O16   O     O_R   0.500040 0.965230 0.908410 -0.625822
O17   O     O_R   0.500040 0.034770 0.908410 -0.618744
O18   O     O_R   0.000040 0.465230 0.908410 -0.625798
O19   O     O_R   0.000040 0.534770 0.908410 -0.618744
O20   O     O_R   0.551720 0.000000 0.460130 -0.622944
O21   O     O_R   0.051720 0.500000 0.460130 -0.622654
O22   O     O_R   0.448310 0.938390 0.448250 -0.616204
O23   O     O_R   0.500000 0.561620 0.551710 -0.604813
O24   O     O_R   0.448310 0.061610 0.448250 -0.620278
O25   O     O_R   0.948310 0.438390 0.448250 -0.616141
O26   O     O_R   0.948310 0.561610 0.448250 -0.620269
O27   O     O_R   0.551720 0.938410 0.551740 -0.619850
O28   O     O_R   0.551720 0.061590 0.551740 -0.612902
O29   O     O_R   0.051720 0.438410 0.551740 -0.619865
O30   O     O_R   0.051720 0.561590 0.551740 -0.612961
O31   O     O_R   0.448310 1.000000 0.539870 -0.625036
O32   O     O_R   0.948310 0.500000 0.539870 -0.625049
O33   O     O_R   0.551720 1.000000 0.643360 -0.622057
O34   O     O_R   0.500000 0.438380 0.551710 -0.597804
O35   O     O_R   0.051720 0.500000 0.643360 -0.622081
O36   O     O_R   0.408300 0.500000 0.356580 -0.623573
O37   O     O_R   0.908300 0.000000 0.356580 -0.623558
O38   O     O_R   0.408400 0.500000 0.460120 -0.615614
O39   O     O_R   0.908400 1.000000 0.460120 -0.615485
O40   O     O_R   0.499900 0.561630 0.448170 -0.623296
O41   O     O_R   0.499900 0.438370 0.448170 -0.627503
O42   O     O_R   0.999900 0.061630 0.448170 -0.623253
O43   O     O_R   0.999900 0.938370 0.448170 -0.627303
O44   O     O_2   0.415249 0.683392 0.522641 -0.558913
O45   O     O_R   1.000000 0.061620 0.551710 -0.605003
O46   O     O_2   0.418198 0.312958 0.529341 -0.555584
O47   O     O_2   0.914042 0.183391 0.520489 -0.559052
O48   O     O_2   0.913056 0.812943 0.520124 -0.556090
O49   O     O_R   0.000000 0.938380 0.551710 -0.598515
O50   O     O_R   0.591480 0.500000 0.539730 -0.625894
O51   O     O_R   0.091480 0.000000 0.539730 -0.625879
O52   O     O_R   0.591580 0.500000 0.643270 -0.622932
Zn1   Zn    Zn3+2 0.430960 0.000000 0.430900 0.951922
Zn2   Zn    Zn3+2 0.500030 0.046430 0.000010 0.953158
Zn3   Zn    Zn3+2 0.000030 0.453570 0.000010 0.952815
Zn4   Zn    Zn3+2 0.000030 0.546430 0.000010 0.952881
Zn5   Zn    Zn3+2 0.930960 0.500000 0.430900 0.952231
Zn6   Zn    Zn3+2 0.569060 1.000000 0.569100 0.962053
Zn7   Zn    Zn3+2 0.069060 0.500000 0.569100 0.962229
Zn8   Zn    Zn3+2 0.499870 0.500000 0.430790 0.950361
Zn9   Zn    Zn3+2 0.999870 0.000000 0.430790 0.950458
Zn10  Zn    Zn3+2 0.500010 0.500000 0.569060 0.992500
Zn11  Zn    Zn3+2 0.000010 0.000000 0.569060 0.991710
Zn12  Zn    Zn3+2 0.500030 0.953570 0.000010 0.953061

loop_
_geom_bond_atom_site_label_1
_geom_bond_atom_site_label_2
_ccdc_geom_bond_type
C43   O44   D    
C66   C68   A    
C88   H72   S    
C138  H19   S    
C59   C130  S    
C69   H61   S    
C34   C123  S    
O26   Zn5   S    
C84   C102  S    
O49   Zn11  S    
C88   C90   A    
C115  O10   A    
C11   C124  S    
C84   C87   A    
C82   H71   S    
C114  O7    A    
C22   H38   S    
O8    Zn2   S    
C27   C54   T    
C45   C86   S    
C48   C108  S    
C119  C124  S    
C25   H42   S    
C53   O12   A    
C137  C139  S    
C84   C95   A    
C3    H25   S    
C102  H13   S    
O43   Zn9   S    
O9    Zn3   S    
C37   H55   S    
C31   C58   T    
C19   C21   S    
C76   C78   A    
C34   C64   S    
C121  C127  A    
C67   H59   S    
O7    Zn12  S    
C70   O22   A    
C129  H14   S    
C85   C96   S    
C2    C60   S    
O15   Zn4   S    
C29   C73   S    
C15   C17   A    
C100  H7    S    
C68   C74   A    
C89   H2    S    
C74   C114  S    
C30   C57   T    
O1    Zn1   S    
C101  H10   S    
C44   H68   S    
C76   C115  S    
C13   H49   S    
C69   C76   A    
C135  C137  A    
C42   C46   S    
C112  O3    A    
O28   Zn6   S    
C61   C63   A    
C92   C118  S    
C41   C55   S    
C51   H48   S    
C50   C130  S    
C17   C19   A    
O12   Zn5   S    
C125  C130  S    
O42   Zn9   S    
O11   Zn12  S    
C2    C97   S    
C61   C77   A    
C12   C50   S    
C65   C67   A    
C74   C77   A    
C104  C128  S    
O6    Zn4   S    
C118  O17   A    
C111  O2    A    
C64   C108  S    
C93   C120  S    
C89   C91   A    
C53   C65   S    
C110  O52   A    
C90   H3    S    
O27   Zn6   S    
C3    C122  S    
C16   C18   A    
C102  H11   S    
C14   C42   S    
C87   C98   S    
C42   C56   S    
C21   H36   S    
C21   H37   S    
C39   C52   S    
C99   H5    S    
C63   C66   A    
C8    C16   A    
C104  O39   A    
C24   C40   S    
O19   Zn4   S    
C43   H66   S    
C122  C128  A    
C105  O23   A    
C106  O41   A    
C28   C72   S    
C49   H46   S    
C38   C97   S    
C125  H31   S    
C50   H47   S    
C1    C63   S    
C120  O19   A    
C113  O5    A    
C82   H67   S    
C38   C126  S    
C28   C55   T    
C115  O9    A    
C43   C64   S    
C45   O47   D    
C37   C125  S    
O18   Zn3   S    
C77   C79   S    
C117  O14   A    
O45   Zn11  S    
C110  O50   A    
O3    Zn12  S    
C73   O30   A    
C34   C39   S    
C37   C86   S    
C139  H21   S    
C75   C119  S    
C103  C127  S    
C4    C6    A    
C10   C123  S    
C2    C51   S    
C46   H52   S    
C48   H44   S    
C4    C23   S    
C15   H33   S    
C95   C100  S    
C86   C130  S    
O22   Zn1   S    
C6    C8    A    
C12   C125  S    
O5    Zn3   S    
C83   C94   A    
C121  C137  A    
C46   C51   S    
C109  O43   A    
C45   H69   S    
O32   Zn5   S    
C107  O42   A    
C10   C39   S    
C67   C69   A    
C10   H1    S    
C6    C110  S    
C44   C75   S    
C127  C129  A    
C96   O31   A    
O21   Zn7   S    
C12   C41   S    
C11   C49   S    
C36   C75   S    
C26   C52   T    
C91   C93   A    
O35   Zn7   S    
C138  H18   S    
C140  H22   S    
C90   C92   A    
C14   C51   S    
O36   Zn8   S    
C36   C40   S    
C47   O48   D    
C139  C140  S    
C79   H62   S    
C111  O51   A    
O2    Zn11  S    
C35   C50   S    
C100  C102  S    
C38   H57   S    
C124  H30   S    
C3    C138  S    
C123  H29   S    
C71   O24   A    
C106  O34   A    
C78   C80   S    
C18   C117  S    
O4    Zn2   S    
C23   H40   S    
C66   H58   S    
C25   H43   S    
C101  H9    S    
C129  C133  A    
C2    C126  S    
C34   H53   S    
C132  C134  A    
C83   C85   A    
C46   C97   S    
C20   C22   S    
C139  H20   S    
C33   C60   T    
C40   C54   S    
C87   C89   A    
C30   C105  S    
C10   C48   S    
O24   Zn1   S    
C26   C70   S    
C31   C106  S    
O37   Zn9   S    
O25   Zn5   S    
O51   Zn9   S    
C70   O27   A    
C122  C136  A    
C108  C123  S    
C120  O18   A    
C131  C132  A    
C62   C82   S    
C128  C131  A    
C53   O21   A    
C113  O6    A    
C8    H27   S    
C27   C71   S    
C16   H35   S    
C121  C140  S    
C136  C138  S    
C79   C81   S    
C91   H4    S    
C85   C88   A    
C24   C49   S    
C7    C9    A    
C21   C25   S    
C117  O15   A    
O20   Zn6   S    
C35   H51   S    
C104  O37   A    
C83   C101  S    
C62   C65   A    
C36   C124  S    
C22   C23   S    
C103  O38   A    
C98   O32   A    
C72   O29   A    
C62   C78   A    
C9    H28   S    
O40   Zn8   S    
O31   Zn1   S    
C105  O40   A    
O39   Zn11  S    
C22   H39   S    
O38   Zn10  S    
C47   C97   S    
C5    C25   S    
C13   C48   S    
C134  C136  A    
O17   Zn2   S    
C24   C75   S    
C23   H41   S    
C18   C20   A    
C5    C19   A    
C29   C56   T    
C140  H24   S    
C44   O46   D    
O14   Zn3   S    
O16   Zn12  S    
C79   H63   S    
C103  O36   A    
C14   C126  S    
C107  O45   A    
C116  O13   A    
C68   H60   S    
C71   O28   A    
C118  O16   A    
C114  O8    A    
C116  O11   A    
C131  H15   S    
C96   O33   A    
C9    C15   A    
C5    C7    A    
C73   O26   A    
C14   H34   S    
C61   C81   S    
O30   Zn7   S    
C81   H56   S    
C1    O1    A    
C32   C107  S    
C1    O20   A    
C92   C94   A    
C49   C119  S    
C13   C64   S    
C94   C99   S    
C100  H8    S    
O34   Zn10  S    
C112  C134  S    
C58   C119  S    
C132  H16   S    
C80   C82   S    
C7    C111  S    
O33   Zn6   S    
C133  H17   S    
C112  O4    A    
C37   C41   S    
C11   C40   S    
C35   C41   S    
C36   H54   S    
O13   Zn2   S    
C13   C39   S    
C126  H32   S    
O10   Zn4   S    
O50   Zn8   S    
C4    C20   A    
C38   C42   S    
O29   Zn7   S    
C11   H12   S    
C98   O35   A    
C57   C108  S    
C33   C109  S    
C3    H26   S    
C93   C95   A    
C113  C135  S    
C47   H70   S    
C133  C135  A    
O23   Zn10  S    
C72   O25   A    
C80   H65   S    
C24   H50   S    
O41   Zn8   S    
C32   C59   T    
C99   H6    S    
C80   H64   S    
C109  O49   A    
C35   C86   S    
C99   C101  S    
O52   Zn10  S    
C17   C116  S    
C81   H45   S    
C12   H23   S    
