data_mof_unit_11659.cif
_audit_creation_date              2012-12-10T18:07:11-0500
_audit_creation_method            fapswitch 2.2
_symmetry_space_group_name_H-M    P1
_symmetry_Int_Tables_number       1
_space_group_crystal_system       triclinic
_cell_length_a                    18.363059
_cell_length_b                    18.374051
_cell_length_c                    42.92494
_cell_angle_alpha                 90.005174
_cell_angle_beta                  90.012302
_cell_angle_gamma                 90.240226
_cell_volume                      14482.9094304

loop_
_atom_site_label
_atom_site_type_symbol
_atom_type_description
_atom_site_fract_x
_atom_site_fract_y
_atom_site_fract_z
_atom_type_partial_charge
C1    C     C_R   0.434091 0.002381 0.114949 -0.192909
C2    C     C_R   0.065839 0.495346 0.385046 -0.193289
C3    C     C_R   0.287284 0.767286 0.722188 0.350236
C4    C     C_R   0.264800 0.318686 0.262962 0.314573
C5    C     C_R   0.736365 0.683987 0.734639 0.327048
C6    C     C_R   0.290837 0.761519 0.277109 0.326235
C7    C     C_R   0.712705 0.232686 0.722187 0.350275
C8    C     C_R   0.195975 0.695755 0.249943 -0.374451
C9    C     C_R   0.803361 0.303404 0.750001 -0.390402
C10   C     C_R   0.303294 0.196291 0.250055 -0.386336
C11   C     C_R   0.696046 0.803944 0.750013 -0.366252
C12   C     C_R   0.803532 0.304696 0.249904 -0.356216
C13   C     C_R   0.496417 0.934126 0.614955 -0.196712
C14   C     C_R   0.196629 0.696605 0.750001 -0.390391
C15   C     C_R   0.695293 0.802358 0.249317 -0.388915
C16   C     C_R   0.303951 0.196051 0.750007 -0.366235
C17   C     C_R   0.196500 0.303502 0.749997 -0.384589
C18   C     C_R   0.803349 0.695520 0.249678 -0.372598
C19   C     C_R   0.304142 0.804159 0.750000 -0.375834
C20   C     C_R   0.695905 0.197184 0.250012 -0.368262
C21   C     C_R   0.803493 0.696494 0.749999 -0.384617
C22   C     C_R   0.195942 0.303832 0.249979 -0.369075
C23   C     C_R   0.695872 0.195828 0.750000 -0.375845
C24   C     C_R   0.498292 0.065933 0.385041 -0.192137
C25   C     C_R   0.303627 0.803172 0.249901 -0.389173
C26   C     C_R   0.500057 0.999655 0.065947 0.084300
C27   C     C_R   0.500056 0.999781 0.934066 0.084500
C28   C     C_R   0.999736 0.500010 0.065939 0.084454
C29   C     C_R   0.999825 0.500012 0.934056 0.083921
C30   C     C_R   0.999929 0.498034 0.565945 0.083866
C31   C     C_R   0.999911 0.497341 0.434063 0.083295
C32   C     C_R   0.499873 0.999990 0.565938 0.084515
C33   C     C_R   0.499804 0.999995 0.434055 0.083776
C34   C     C_3   0.229441 0.889999 0.193616 0.185126
C35   C     C_R   0.065884 0.496128 0.614970 -0.192907
C36   C     C_3   0.160611 0.873831 0.174638 -0.355662
C37   C     C_3   0.117622 0.943157 0.168294 -0.998817
C38   C     C_3   0.652200 0.211291 0.818781 0.128558
C39   C     C_3   0.673047 0.276454 0.839247 -0.329144
C40   C     C_3   0.607423 0.304912 0.857249 -0.984226
C41   C     C_3   0.070463 0.184461 0.247618 0.139382
C42   C     C_3   0.995314 0.167461 0.234016 -0.305331
C43   C     C_3   0.944982 0.133550 0.258346 -1.015886
C44   C     C_3   0.874318 0.756539 0.812569 0.167462
C45   C     C_3   0.849887 0.820046 0.833167 -0.347976
C46   C     C_R   0.934094 0.502182 0.385059 -0.202418
C47   C     C_3   0.858340 0.801858 0.867668 -0.996088
C48   C     C_3   0.783966 0.120102 0.191959 0.164152
C49   C     C_3   0.772933 0.078739 0.161481 -0.323560
C50   C     C_3   0.837492 0.029169 0.154684 -0.994239
C51   C     C_3   0.347858 0.788749 0.818784 0.128566
C52   C     C_3   0.327023 0.723615 0.839260 -0.329159
C53   C     C_3   0.392659 0.695174 0.857268 -0.984141
C54   C     C_3   0.925319 0.818632 0.245267 0.137821
C55   C     C_3   0.000992 0.834342 0.232060 -0.312740
C56   C     C_3   0.048560 0.874812 0.255576 -1.011347
C57   C     C_R   0.503476 0.065857 0.614958 -0.196696
C58   C     C_3   0.125742 0.243475 0.812565 0.167462
C59   C     C_3   0.150188 0.179972 0.833161 -0.347996
C60   C     C_3   0.141782 0.198173 0.867663 -0.996027
C61   C     C_3   0.180969 0.072708 0.750459 0.135777
C62   C     C_3   0.162728 0.997005 0.762987 -0.318040
C63   C     C_3   0.122755 0.950997 0.738783 -1.011983
C64   C     C_3   0.742295 0.860432 0.183632 0.157147
C65   C     C_3   0.798986 0.826597 0.161846 -0.346548
C66   C     C_3   0.771386 0.824076 0.128325 -0.985299
C67   C     C_3   0.107234 0.774174 0.804616 0.186518
C68   C     C_R   0.501475 0.934065 0.385036 -0.192907
C69   C     C_3   0.123051 0.844460 0.822629 -0.353652
C70   C     C_3   0.053684 0.888234 0.827882 -1.001588
C71   C     C_3   0.790386 0.347182 0.180914 0.136372
C72   C     C_3   0.724528 0.327084 0.160687 -0.333898
C73   C     C_3   0.696466 0.393035 0.142810 -0.984052
C74   C     C_3   0.819032 0.927289 0.750471 0.135753
C75   C     C_3   0.837282 0.002995 0.763003 -0.318044
C76   C     C_3   0.877246 0.048993 0.738804 -1.011972
C77   C     C_3   0.245544 0.125947 0.187081 0.169219
C78   C     C_3   0.182819 0.149025 0.165769 -0.348619
C79   C     C_R   0.434108 0.002266 0.082493 -0.166670
C80   C     C_3   0.203479 0.141268 0.131491 -0.995615
C81   C     C_3   0.892805 0.225867 0.804625 0.186537
C82   C     C_3   0.877004 0.155594 0.822640 -0.353682
C83   C     C_3   0.946375 0.111825 0.827899 -1.001609
C84   C     C_3   0.213552 0.649127 0.181668 0.126477
C85   C     C_3   0.279633 0.668706 0.161506 -0.328028
C86   C     C_3   0.308418 0.602182 0.144238 -0.985170
C87   C     C_3   0.725755 0.392692 0.695371 0.186569
C88   C     C_3   0.655451 0.376877 0.677341 -0.353555
C89   C     C_3   0.611602 0.446183 0.672109 -1.001686
C90   C     C_R   0.565977 0.002992 0.917509 -0.168893
C91   C     C_3   0.149587 0.714059 0.318154 0.127858
C92   C     C_3   0.169378 0.780663 0.337954 -0.327794
C93   C     C_3   0.102635 0.810878 0.354619 -0.986320
C94   C     C_3   0.572590 0.681078 0.749605 0.135806
C95   C     C_3   0.496823 0.662804 0.737098 -0.318160
C96   C     C_3   0.450873 0.622822 0.761311 -1.012035
C97   C     C_3   0.372726 0.254480 0.313201 0.167145
C98   C     C_3   0.347387 0.317148 0.334066 -0.348440
C99   C     C_3   0.355102 0.297876 0.368490 -0.996006
C100  C     C_3   0.274207 0.607272 0.695380 0.186676
C101  C     C_R   0.996421 0.434127 0.082496 -0.168601
C102  C     C_3   0.344489 0.623069 0.677346 -0.353572
C103  C     C_3   0.388325 0.553755 0.672114 -1.001631
C104  C     C_3   0.839286 0.285320 0.320228 0.132341
C105  C     C_3   0.858603 0.324923 0.350422 -0.321155
C106  C     C_3   0.924016 0.290504 0.366533 -0.972643
C107  C     C_3   0.427405 0.318912 0.749591 0.135850
C108  C     C_3   0.503148 0.337201 0.737077 -0.318139
C109  C     C_3   0.549134 0.377180 0.761290 -1.012031
C110  C     C_3   0.626943 0.745155 0.313211 0.168510
C111  C     C_3   0.650107 0.681825 0.334164 -0.348264
C112  C     C_R   0.565953 0.003103 0.885050 -0.196668
C113  C     C_R   0.998533 0.565951 0.917498 -0.166786
C114  C     C_3   0.642018 0.701237 0.368557 -0.997251
C115  C     C_3   0.682052 0.572002 0.251809 0.136551
C116  C     C_3   0.664334 0.496559 0.264742 -0.317023
C117  C     C_3   0.626079 0.449140 0.240518 -1.009422
C118  C     C_3   0.256627 0.374294 0.687456 0.167314
C119  C     C_3   0.320179 0.349930 0.666857 -0.347745
C120  C     C_3   0.301957 0.358380 0.632357 -0.996501
C121  C     C_3   0.606597 0.272986 0.305139 0.192637
C122  C     C_3   0.621255 0.342758 0.323685 -0.357532
C123  C     C_3   0.551209 0.385283 0.329163 -1.000831
C124  C     C_R   0.565987 0.997086 0.082518 -0.166266
C125  C     C_3   0.288641 0.847787 0.681221 0.128576
C126  C     C_3   0.223444 0.826921 0.660755 -0.329089
C127  C     C_3   0.194890 0.892507 0.642773 -0.984236
C128  C     C_3   0.319178 0.426918 0.251809 0.136627
C129  C     C_3   0.337014 0.502344 0.264763 -0.317634
C130  C     C_3   0.378040 0.548729 0.241022 -1.012211
C131  C     C_3   0.743271 0.625663 0.687464 0.167312
C132  C     C_3   0.679676 0.650004 0.666874 -0.347739
C133  C     C_3   0.697837 0.641543 0.632371 -0.996464
C134  C     C_3   0.391337 0.727663 0.305472 0.185826
C135  C     C_R   0.434119 0.996655 0.917504 -0.168852
C136  C     C_3   0.375130 0.657923 0.323795 -0.353650
C137  C     C_3   0.444402 0.614305 0.329530 -1.000621
C138  C     C_3   0.711329 0.152156 0.681223 0.128549
C139  C     C_3   0.776517 0.173014 0.660765 -0.329069
C140  C     C_3   0.805066 0.107419 0.642786 -0.984250
C141  C     C_R   0.003107 0.565889 0.082502 -0.169188
C142  C     C_R   0.001185 0.434071 0.917496 -0.166793
C143  C     C_R   0.934025 0.501441 0.582495 -0.166682
C144  C     C_R   0.065815 0.494406 0.417502 -0.169564
C145  C     C_R   0.496393 0.934117 0.582497 -0.168889
C146  C     C_R   0.498259 0.065930 0.417499 -0.166441
C147  C     C_R   0.065859 0.495383 0.582514 -0.166744
C148  C     C_R   0.996479 0.434130 0.114954 -0.197050
C149  C     C_R   0.934040 0.501127 0.417506 -0.169621
C150  C     C_R   0.503405 0.065864 0.582500 -0.168889
C151  C     C_R   0.501390 0.934061 0.417494 -0.166656
C152  C     C_R   0.500019 0.999841 0.131463 0.004606
C153  C     C_R   0.500025 0.999943 0.868544 -0.003984
C154  C     C_R   0.999899 0.500000 0.131462 -0.003984
C155  C     C_R   0.999954 0.500008 0.868537 0.002473
C156  C     C_R   0.999978 0.499485 0.631461 0.002761
C157  C     C_R   0.999980 0.499216 0.368546 0.001975
C158  C     C_R   0.499969 0.999992 0.631461 -0.003772
C159  C     C_R   0.998572 0.565948 0.885041 -0.192797
C160  C     C_R   0.499923 0.000001 0.368536 0.002658
C161  C     C_R   0.999895 0.496972 0.468401 0.288695
C162  C     C_R   0.999907 0.497420 0.531606 0.289137
C163  C     C_R   0.499788 0.999993 0.468395 0.289115
C164  C     C_R   0.499829 0.999990 0.531599 0.288664
C165  C     C_R   0.500065 0.999709 0.968405 0.288721
C166  C     C_R   0.500066 0.999636 0.031609 0.288841
C167  C     C_R   0.999766 0.500013 0.968395 0.289083
C168  C     C_R   0.999714 0.500012 0.031600 0.288720
C169  C     C_R   0.499986 0.000002 0.334284 0.788563
C170  C     C_R   0.565965 0.997137 0.114974 -0.195770
C171  C     C_R   0.499998 0.999997 0.665715 0.761018
C172  C     C_R   1.000000 0.499900 0.334292 0.766780
C173  C     C_R   0.999993 0.499951 0.665711 0.788503
C174  C     C_R   0.999995 0.500003 0.834284 0.788216
C175  C     C_R   0.999983 0.499998 0.165715 0.761511
C176  C     C_R   0.500008 0.999994 0.834290 0.761394
C177  C     C_R   0.500001 0.999967 0.165711 0.786119
C178  C     C_R   0.359687 0.140160 0.250027 0.901738
C179  C     C_R   0.640072 0.859928 0.750007 0.889580
C180  C     C_R   0.860009 0.360080 0.250016 0.878335
C181  C     C_R   0.434113 0.996704 0.885046 -0.196724
C182  C     C_R   0.140243 0.640232 0.749999 0.928662
C183  C     C_R   0.639827 0.859382 0.249771 0.895450
C184  C     C_R   0.359930 0.140069 0.750004 0.889402
C185  C     C_R   0.139972 0.639915 0.249987 0.872217
C186  C     C_R   0.859750 0.359772 0.749999 0.928729
C187  C     C_R   0.360057 0.860066 0.750001 0.870279
C188  C     C_R   0.640175 0.140249 0.250049 0.931637
C189  C     C_R   0.859758 0.640232 0.749997 0.902581
C190  C     C_R   0.140082 0.359936 0.249981 0.887342
C191  C     C_R   0.639952 0.139928 0.750001 0.870358
C192  C     C_R   0.003209 0.565876 0.114960 -0.195776
C193  C     C_R   0.359836 0.859700 0.249958 0.931148
C194  C     C_R   0.140237 0.359768 0.749997 0.902419
C195  C     C_R   0.859828 0.639996 0.249956 0.887220
C196  C     C_R   0.262157 0.790162 0.222652 0.325952
C197  C     C_R   0.732736 0.212715 0.777813 0.350197
C198  C     C_R   0.180951 0.235019 0.236936 0.314441
C199  C     C_R   0.816045 0.763563 0.765375 0.327190
C200  C     C_R   0.737962 0.209241 0.222964 0.302517
C201  C     C_R   0.267292 0.787296 0.777812 0.350234
C202  C     C_R   0.816981 0.763369 0.235575 0.312165
C203  C     C_R   0.001275 0.434070 0.885039 -0.192760
C204  C     C_R   0.183966 0.236439 0.765371 0.327197
C205  C     C_R   0.234698 0.180749 0.762479 0.313585
C206  C     C_R   0.760459 0.812851 0.232288 0.333095
C207  C     C_R   0.208485 0.739254 0.777010 0.327097
C208  C     C_R   0.786895 0.267525 0.222156 0.333123
C209  C     C_R   0.765309 0.819251 0.762485 0.313566
C210  C     C_R   0.236590 0.184181 0.234262 0.331185
C211  C     C_R   0.791533 0.260768 0.777012 0.327111
C212  C     C_R   0.213902 0.731471 0.221976 0.352098
C213  C     C_R   0.760711 0.291513 0.722989 0.327000
C214  C     C_R   0.934050 0.502138 0.614951 -0.192712
C215  C     C_R   0.231927 0.713594 0.277862 0.349958
C216  C     C_R   0.680677 0.734726 0.737542 0.313725
C217  C     C_R   0.315417 0.262926 0.265824 0.327209
C218  C     C_R   0.239266 0.708470 0.722991 0.327008
C219  C     C_R   0.765848 0.288766 0.277592 0.322450
C220  C     C_R   0.319302 0.265262 0.737533 0.313723
C221  C     C_R   0.683978 0.736501 0.265768 0.328774
C222  C     C_R   0.734821 0.680822 0.263061 0.316010
C223  C     C_R   0.263609 0.315998 0.734632 0.327074
C224  C     C_R   0.707769 0.239834 0.277011 0.325862
H1    H     H_    0.382414 0.004568 0.127078 0.152196
H2    H     H_    0.117474 0.492969 0.372906 0.166988
H3    H     H_    0.721007 0.790571 0.126848 0.267685
H4    H     H_    0.813519 0.799407 0.113125 0.276882
H5    H     H_    0.759681 0.879846 0.119750 0.264062
H6    H     H_    0.063095 0.744247 0.816889 0.166737
H7    H     H_    0.085684 0.787311 0.780953 0.121995
H8    H     H_    0.147865 0.831116 0.845536 0.244621
H9    H     H_    0.161780 0.878684 0.809259 0.252217
H10   H     H_    0.027002 0.900799 0.805285 0.280346
H11   H     H_    0.067311 0.940245 0.839747 0.275063
H12   H     H_    0.015323 0.857117 0.842819 0.272041
H13   H     H_    0.493528 0.882517 0.627093 0.167354
H14   H     H_    0.832542 0.372713 0.165845 0.163489
H15   H     H_    0.774917 0.389179 0.198431 0.088762
H16   H     H_    0.740197 0.283950 0.143840 0.243896
H17   H     H_    0.679962 0.305799 0.175675 0.233128
H18   H     H_    0.679819 0.436598 0.159246 0.260628
H19   H     H_    0.648477 0.376928 0.128618 0.275547
H20   H     H_    0.739355 0.414448 0.126986 0.269965
H21   H     H_    0.783810 0.933228 0.729461 0.106140
H22   H     H_    0.870750 0.899793 0.743816 0.156886
H23   H     H_    0.786145 0.031012 0.769739 0.253246
H24   H     H_    0.496975 0.117606 0.372906 0.153255
H25   H     H_    0.872098 0.997645 0.784061 0.229957
H26   H     H_    0.930014 0.023441 0.732625 0.270215
H27   H     H_    0.888074 0.104027 0.748431 0.265578
H28   H     H_    0.843573 0.054799 0.717490 0.261179
H29   H     H_    0.264336 0.071221 0.179676 0.160143
H30   H     H_    0.293016 0.163458 0.183894 0.104784
H31   H     H_    0.133984 0.114959 0.170650 0.246421
H32   H     H_    0.169076 0.206858 0.170245 0.251351
H33   H     H_    0.251370 0.176135 0.126033 0.269550
H34   H     H_    0.157104 0.158531 0.116666 0.279126
H35   H     H_    0.117547 0.493914 0.627116 0.153164
H36   H     H_    0.216647 0.083762 0.125946 0.260885
H37   H     H_    0.936955 0.255803 0.816897 0.166734
H38   H     H_    0.914337 0.212712 0.780963 0.122001
H39   H     H_    0.852207 0.168955 0.845546 0.244615
H40   H     H_    0.838267 0.121358 0.809271 0.252231
H41   H     H_    0.973039 0.099241 0.805304 0.280349
H42   H     H_    0.932759 0.059824 0.839768 0.275066
H43   H     H_    0.984750 0.142955 0.842835 0.272036
H44   H     H_    0.172168 0.621828 0.166764 0.163485
H45   H     H_    0.229211 0.608739 0.199840 0.090341
H46   H     H_    0.882479 0.505444 0.372942 0.160476
H47   H     H_    0.263992 0.710966 0.144253 0.245307
H48   H     H_    0.323759 0.690976 0.176485 0.232109
H49   H     H_    0.324778 0.559288 0.161037 0.260070
H50   H     H_    0.356716 0.617932 0.130176 0.275632
H51   H     H_    0.266028 0.580016 0.128347 0.269883
H52   H     H_    0.755702 0.436819 0.683107 0.166803
H53   H     H_    0.712583 0.414216 0.719032 0.121867
H54   H     H_    0.668839 0.352147 0.654425 0.244563
H55   H     H_    0.621230 0.338106 0.690688 0.252204
H56   H     H_    0.598990 0.472779 0.694715 0.280292
H57   H     H_    0.506396 0.117467 0.627097 0.167364
H58   H     H_    0.559580 0.432557 0.660227 0.275108
H59   H     H_    0.642721 0.484587 0.657196 0.272065
H60   H     H_    0.122298 0.673196 0.333305 0.163407
H61   H     H_    0.109073 0.729242 0.299947 0.090058
H62   H     H_    0.210973 0.765218 0.355545 0.245049
H63   H     H_    0.192588 0.823944 0.322807 0.231972
H64   H     H_    0.060589 0.827333 0.337428 0.260138
H65   H     H_    0.118576 0.859350 0.368524 0.275474
H66   H     H_    0.079278 0.769314 0.370580 0.269783
H67   H     H_    0.566675 0.716305 0.770606 0.106075
H68   H     H_    0.502828 0.882393 0.372897 0.152946
H69   H     H_    0.600123 0.629405 0.756269 0.156939
H70   H     H_    0.468746 0.713898 0.730375 0.253191
H71   H     H_    0.502153 0.628024 0.716038 0.230051
H72   H     H_    0.476461 0.570076 0.767463 0.270280
H73   H     H_    0.395778 0.612015 0.751708 0.265531
H74   H     H_    0.445126 0.656438 0.782636 0.261232
H75   H     H_    0.427535 0.236990 0.321090 0.158807
H76   H     H_    0.336100 0.206306 0.316278 0.105796
H77   H     H_    0.380076 0.366800 0.329010 0.248181
H78   H     H_    0.289216 0.329025 0.329302 0.248531
H79   H     H_    0.382384 0.004360 0.070417 0.150860
H80   H     H_    0.321762 0.249022 0.374102 0.269588
H81   H     H_    0.335921 0.344065 0.382965 0.278594
H82   H     H_    0.412957 0.286915 0.374328 0.261806
H83   H     H_    0.244247 0.563130 0.683122 0.166873
H84   H     H_    0.287409 0.585773 0.719043 0.121826
H85   H     H_    0.331074 0.647783 0.654429 0.244587
H86   H     H_    0.378730 0.661846 0.690688 0.252200
H87   H     H_    0.400968 0.527176 0.694721 0.280288
H88   H     H_    0.440331 0.567368 0.660228 0.275104
H89   H     H_    0.357182 0.515341 0.657207 0.272072
H90   H     H_    0.617707 0.005545 0.929578 0.152012
H91   H     H_    0.888817 0.283116 0.305267 0.105851
H92   H     H_    0.821355 0.228853 0.325972 0.151139
H93   H     H_    0.871538 0.382648 0.345094 0.244447
H94   H     H_    0.811016 0.323583 0.366419 0.220528
H95   H     H_    0.912203 0.232754 0.372363 0.267071
H96   H     H_    0.936153 0.320533 0.388395 0.280007
H97   H     H_    0.972687 0.293316 0.351202 0.257361
H98   H     H_    0.433360 0.283685 0.770588 0.106088
H99   H     H_    0.399874 0.370581 0.756263 0.156890
H100  H     H_    0.531221 0.286113 0.730343 0.253191
H101  H     H_    0.993686 0.382439 0.070427 0.152203
H102  H     H_    0.497778 0.371988 0.716022 0.230047
H103  H     H_    0.523536 0.429909 0.767462 0.270269
H104  H     H_    0.604203 0.388021 0.751678 0.265547
H105  H     H_    0.554942 0.343545 0.782605 0.261229
H106  H     H_    0.572514 0.764210 0.320918 0.160243
H107  H     H_    0.664885 0.792281 0.316386 0.103421
H108  H     H_    0.616248 0.633051 0.328933 0.247187
H109  H     H_    0.708049 0.668433 0.329664 0.249550
H110  H     H_    0.676416 0.749244 0.374349 0.269819
H111  H     H_    0.659673 0.654558 0.383103 0.278248
H112  H     H_    0.617601 0.005769 0.872913 0.167337
H113  H     H_    0.997392 0.617686 0.929565 0.150890
H114  H     H_    0.584310 0.713618 0.374120 0.261767
H115  H     H_    0.717476 0.565635 0.230888 0.107190
H116  H     H_    0.630144 0.598795 0.244884 0.154663
H117  H     H_    0.715549 0.469522 0.272078 0.257519
H118  H     H_    0.628550 0.502194 0.285482 0.227672
H119  H     H_    0.573206 0.473687 0.233764 0.269418
H120  H     H_    0.615655 0.394296 0.250391 0.265173
H121  H     H_    0.660723 0.443078 0.219503 0.260387
H122  H     H_    0.238998 0.429130 0.679716 0.158521
H123  H     H_    0.208781 0.337448 0.683903 0.105792
H124  H     H_    0.617724 0.994909 0.070464 0.149851
H125  H     H_    0.369471 0.382791 0.672372 0.247704
H126  H     H_    0.332299 0.291757 0.671409 0.249626
H127  H     H_    0.253547 0.324799 0.626286 0.269586
H128  H     H_    0.348806 0.339980 0.618074 0.279035
H129  H     H_    0.290676 0.416248 0.626729 0.261581
H130  H     H_    0.562939 0.241852 0.317188 0.167199
H131  H     H_    0.584771 0.286747 0.281589 0.120472
H132  H     H_    0.646132 0.328878 0.346522 0.243708
H133  H     H_    0.659526 0.378114 0.310629 0.253785
H134  H     H_    0.524624 0.398533 0.306617 0.280783
H135  H     H_    0.382399 0.994044 0.929569 0.152072
H136  H     H_    0.563964 0.436912 0.341498 0.274360
H137  H     H_    0.513113 0.352934 0.343746 0.271762
H138  H     H_    0.330419 0.874683 0.666394 0.163771
H139  H     H_    0.272076 0.888861 0.698959 0.090301
H140  H     H_    0.239996 0.784041 0.643945 0.245381
H141  H     H_    0.178904 0.804996 0.675593 0.232087
H142  H     H_    0.177584 0.935972 0.659120 0.260302
H143  H     H_    0.147253 0.875833 0.628483 0.275742
H144  H     H_    0.237744 0.914306 0.627027 0.269764
H145  H     H_    0.284760 0.433361 0.230583 0.106347
H146  H     H_    0.005785 0.617580 0.070438 0.152000
H147  H     H_    0.371119 0.399539 0.245391 0.157016
H148  H     H_    0.285652 0.530315 0.271213 0.253366
H149  H     H_    0.370943 0.496559 0.286064 0.229549
H150  H     H_    0.431015 0.523203 0.235149 0.270336
H151  H     H_    0.388570 0.603554 0.250911 0.265835
H152  H     H_    0.345251 0.555019 0.219484 0.261409
H153  H     H_    0.760894 0.570825 0.679724 0.158524
H154  H     H_    0.791105 0.662514 0.683903 0.105783
H155  H     H_    0.630401 0.617137 0.672397 0.247700
H156  H     H_    0.667554 0.708178 0.671427 0.249658
H157  H     H_    0.002279 0.382338 0.929561 0.150892
H158  H     H_    0.746223 0.675137 0.626292 0.269582
H159  H     H_    0.650954 0.659919 0.618096 0.279007
H160  H     H_    0.709126 0.583676 0.626742 0.261590
H161  H     H_    0.435136 0.758042 0.317794 0.167233
H162  H     H_    0.413562 0.713800 0.282005 0.122443
H163  H     H_    0.349910 0.671969 0.346539 0.244980
H164  H     H_    0.336605 0.623319 0.310472 0.252149
H165  H     H_    0.482703 0.645997 0.344294 0.271654
H166  H     H_    0.471275 0.600754 0.307084 0.279984
H167  H     H_    0.430588 0.562817 0.341760 0.274854
H168  H     H_    0.882299 0.503590 0.570423 0.150841
H169  H     H_    0.669546 0.125251 0.666392 0.163767
H170  H     H_    0.727901 0.111093 0.698964 0.090301
H171  H     H_    0.759958 0.215885 0.643953 0.245379
H172  H     H_    0.821062 0.194947 0.675607 0.232086
H173  H     H_    0.822379 0.063962 0.659137 0.260300
H174  H     H_    0.852697 0.124088 0.628502 0.275752
H175  H     H_    0.762207 0.085612 0.627036 0.269754
H176  H     H_    0.117506 0.491459 0.429566 0.152163
H177  H     H_    0.493535 0.882434 0.570429 0.152066
H178  H     H_    0.496927 0.117657 0.429568 0.150886
H179  H     H_    0.117567 0.492724 0.570457 0.150924
H180  H     H_    0.993733 0.382513 0.127090 0.167422
H181  H     H_    0.882325 0.503495 0.429567 0.151934
H182  H     H_    0.506229 0.117546 0.570435 0.152063
H183  H     H_    0.502682 0.882332 0.429557 0.150865
H184  H     H_    0.260645 0.933506 0.181498 0.167309
H185  H     H_    0.214452 0.912565 0.216891 0.122516
H186  H     H_    0.175781 0.848233 0.152105 0.243928
H187  H     H_    0.125059 0.835711 0.187700 0.254015
H188  H     H_    0.102806 0.970257 0.190539 0.279217
H189  H     H_    0.066832 0.929411 0.155502 0.274735
H190  H     H_    0.150367 0.981180 0.153836 0.271139
H191  H     H_    0.997455 0.617625 0.872904 0.153576
H192  H     H_    0.625320 0.169515 0.833607 0.163842
H193  H     H_    0.611084 0.227827 0.801044 0.090302
H194  H     H_    0.715996 0.259942 0.856045 0.245375
H195  H     H_    0.694917 0.320999 0.824408 0.232071
H196  H     H_    0.563881 0.322165 0.840915 0.260284
H197  H     H_    0.624082 0.352533 0.871535 0.275754
H198  H     H_    0.585688 0.262054 0.873000 0.269761
H199  H     H_    0.063632 0.220988 0.268153 0.108287
H200  H     H_    0.095986 0.132494 0.255264 0.150811
H201  H     H_    0.970304 0.218424 0.225217 0.263464
H202  H     H_    0.617621 0.994924 0.127114 0.146605
H203  H     H_    0.001177 0.129220 0.214106 0.216413
H204  H     H_    0.967773 0.081225 0.266782 0.270039
H205  H     H_    0.890735 0.122902 0.247852 0.256087
H206  H     H_    0.937916 0.171129 0.278367 0.254345
H207  H     H_    0.929175 0.738928 0.820331 0.158553
H208  H     H_    0.837454 0.708713 0.816097 0.105881
H209  H     H_    0.882733 0.869329 0.827661 0.247816
H210  H     H_    0.791671 0.832114 0.828604 0.249539
H211  H     H_    0.824773 0.753454 0.873729 0.269659
H212  H     H_    0.839885 0.848672 0.881948 0.278923
H213  H     H_    0.382454 0.994090 0.872906 0.167364
H214  H     H_    0.916249 0.790633 0.873308 0.261630
H215  H     H_    0.785678 0.080183 0.211492 0.144299
H216  H     H_    0.837296 0.149056 0.190728 0.167643
H217  H     H_    0.722320 0.045589 0.163015 0.226481
H218  H     H_    0.766808 0.118128 0.142007 0.226551
H219  H     H_    0.846349 0.990981 0.174354 0.284740
H220  H     H_    0.887691 0.062084 0.151137 0.270644
H221  H     H_    0.826681 0.997315 0.133195 0.269427
H222  H     H_    0.374757 0.830541 0.833604 0.163857
H223  H     H_    0.388955 0.772186 0.801050 0.090309
H224  H     H_    0.006000 0.617492 0.127100 0.167671
H225  H     H_    0.284090 0.740153 0.856055 0.245382
H226  H     H_    0.305135 0.679053 0.824428 0.232071
H227  H     H_    0.436186 0.677896 0.840938 0.260267
H228  H     H_    0.376009 0.647573 0.871561 0.275755
H229  H     H_    0.414412 0.738050 0.873013 0.269790
H230  H     H_    0.931497 0.785856 0.266981 0.105872
H231  H     H_    0.898676 0.871385 0.250977 0.151928
H232  H     H_    0.027718 0.782225 0.225794 0.256977
H233  H     H_    0.995770 0.867819 0.210612 0.228533
H234  H     H_    0.024358 0.928520 0.261232 0.270690
H235  H     H_    0.002433 0.382392 0.872901 0.153581
H236  H     H_    0.103582 0.883731 0.245609 0.265612
H237  H     H_    0.054228 0.842447 0.277265 0.260023
H238  H     H_    0.070894 0.261092 0.820328 0.158558
H239  H     H_    0.162613 0.291299 0.816095 0.105869
H240  H     H_    0.117327 0.130691 0.827656 0.247811
H241  H     H_    0.208396 0.167892 0.828596 0.249557
H242  H     H_    0.175368 0.246571 0.873724 0.269655
H243  H     H_    0.160243 0.151360 0.881942 0.278937
H244  H     H_    0.083883 0.209413 0.873306 0.261625
H245  H     H_    0.216178 0.066763 0.729451 0.106148
H246  H     H_    0.882403 0.504824 0.627081 0.153169
H247  H     H_    0.129246 0.100201 0.743800 0.156868
H248  H     H_    0.213870 0.968992 0.769727 0.253259
H249  H     H_    0.127922 0.002360 0.784041 0.229956
H250  H     H_    0.069985 0.976546 0.732598 0.270212
H251  H     H_    0.111932 0.895967 0.748408 0.265574
H252  H     H_    0.156420 0.945184 0.717473 0.261180
H253  H     H_    0.725615 0.913821 0.173942 0.173361
H254  H     H_    0.691962 0.826076 0.184014 0.104082
H255  H     H_    0.850276 0.858818 0.162733 0.247347
H256  H     H_    0.810960 0.770147 0.169461 0.241699
N1    N     N_R   0.563658 0.999918 0.015503 -0.178985
N2    N     N_R   0.936392 0.500067 0.484506 -0.179290
N3    N     N_R   0.500759 0.063540 0.515490 -0.178836
N4    N     N_R   0.498874 0.936442 0.484504 -0.178739
N5    N     N_R   0.936397 0.500278 0.515486 -0.178946
N6    N     N_R   0.063401 0.494009 0.484521 -0.178724
N7    N     N_R   0.498872 0.936442 0.515484 -0.178835
N8    N     N_R   0.500717 0.063541 0.484509 -0.178713
N9    N     N_R   0.436475 0.999393 0.984511 -0.178789
N10   N     N_R   0.000701 0.563561 0.015491 -0.178864
N11   N     N_R   0.998790 0.436464 0.984505 -0.178735
N12   N     N_R   0.436475 0.999383 0.015491 -0.178684
N13   N     N_R   0.563657 0.999978 0.984522 -0.178922
N14   N     N_R   0.998745 0.436463 0.015485 -0.178816
N15   N     N_R   0.000706 0.563562 0.984510 -0.178756
N16   N     N_R   0.063407 0.494222 0.515501 -0.178764
O1    O     O_3   0.500000 0.000000 0.250000 -0.490795
O2    O     O_R   0.500000 0.939250 0.680570 -0.644266
O3    O     O_R   0.939250 0.500000 0.319430 -0.650161
O4    O     O_R   0.060750 0.500000 0.680570 -0.656622
O5    O     O_R   0.000000 0.439250 0.819430 -0.656691
O6    O     O_R   1.000000 0.560750 0.180570 -0.643581
O7    O     O_R   0.560750 0.000000 0.819430 -0.644305
O8    O     O_R   0.439250 0.000000 0.180570 -0.657971
O9    O     O_R   0.000000 0.560750 0.819430 -0.656710
O10   O     O_R   0.000000 0.439250 0.180570 -0.644881
O11   O     O_R   0.439250 0.000000 0.819430 -0.644241
O12   O     O_3   0.500000 0.000000 0.750000 -0.504762
O13   O     O_R   0.560750 0.000000 0.180570 -0.657505
O14   O     O_R   0.414500 0.146140 0.268270 -0.632591
O15   O     O_R   0.585500 0.853860 0.731730 -0.607484
O16   O     O_R   0.853860 0.414500 0.268270 -0.620012
O17   O     O_R   0.146140 0.585500 0.731730 -0.636322
O18   O     O_R   0.585500 0.853860 0.268270 -0.633367
O19   O     O_R   0.414500 0.146140 0.731730 -0.607484
O20   O     O_R   0.146140 0.585500 0.268270 -0.625375
O21   O     O_R   0.853860 0.414500 0.731730 -0.636372
O22   O     O_R   0.414500 0.853860 0.731730 -0.624368
O23   O     O_3   1.000000 0.500000 0.250000 -0.503919
O24   O     O_R   0.585500 0.146140 0.268270 -0.642270
O25   O     O_R   0.853860 0.585500 0.731730 -0.633572
O26   O     O_R   0.146140 0.414500 0.268270 -0.607179
O27   O     O_R   0.585500 0.146140 0.731730 -0.624327
O28   O     O_R   0.414500 0.853860 0.268270 -0.637223
O29   O     O_R   0.146140 0.414500 0.731730 -0.633555
O30   O     O_R   0.853860 0.585500 0.268270 -0.608438
O31   O     O_R   0.914500 0.646140 0.768270 -0.633395
O32   O     O_R   0.085500 0.353860 0.231730 -0.608841
O33   O     O_R   0.353860 0.914500 0.768270 -0.624453
O34   O     O_3   0.000000 0.500000 0.750000 -0.489470
O35   O     O_R   0.646140 0.085500 0.231730 -0.617108
O36   O     O_R   0.085500 0.353860 0.768270 -0.633393
O37   O     O_R   0.914500 0.646140 0.231730 -0.608242
O38   O     O_R   0.646140 0.085500 0.768270 -0.624501
O39   O     O_R   0.353860 0.914500 0.231730 -0.638523
O40   O     O_R   0.914500 0.353860 0.231730 -0.626888
O41   O     O_R   0.085500 0.646140 0.768270 -0.636249
O42   O     O_R   0.353860 0.085500 0.231730 -0.634353
O43   O     O_R   0.646140 0.914500 0.768270 -0.607681
O44   O     O_R   0.085500 0.646140 0.231730 -0.626614
O45   O     O_R   0.500000 0.939250 0.319430 -0.657182
O46   O     O_R   0.914500 0.353860 0.768270 -0.636222
O47   O     O_R   0.646140 0.914500 0.231730 -0.626233
O48   O     O_R   0.353860 0.085500 0.768270 -0.607637
O49   O     O_3   0.275267 0.828124 0.195293 -0.620807
O50   O     O_3   0.715012 0.178933 0.805689 -0.616317
O51   O     O_3   0.113258 0.218678 0.224507 -0.603217
O52   O     O_3   0.880596 0.778187 0.780945 -0.613503
O53   O     O_3   0.725660 0.169180 0.196134 -0.612421
O54   O     O_3   0.285036 0.821098 0.805688 -0.616291
O55   O     O_3   0.884235 0.780014 0.222838 -0.596609
O56   O     O_R   0.500000 0.060750 0.680570 -0.644235
O57   O     O_3   0.119430 0.221819 0.780941 -0.613478
O58   O     O_3   0.217665 0.112354 0.773904 -0.602352
O59   O     O_3   0.771898 0.873422 0.213683 -0.607328
O60   O     O_3   0.168919 0.727910 0.804093 -0.619540
O61   O     O_3   0.821643 0.284228 0.194362 -0.616255
O62   O     O_3   0.782350 0.887649 0.773913 -0.602375
O63   O     O_3   0.222143 0.119882 0.218488 -0.611657
O64   O     O_3   0.831120 0.272131 0.804096 -0.619535
O65   O     O_3   0.181029 0.712641 0.194024 -0.617560
O66   O     O_3   0.772053 0.331050 0.695902 -0.619468
O67   O     O_R   0.060750 0.500000 0.319430 -0.643155
O68   O     O_3   0.212989 0.681097 0.305874 -0.615720
O69   O     O_3   0.612205 0.717717 0.726143 -0.602296
O70   O     O_3   0.379590 0.277202 0.281741 -0.613325
O71   O     O_3   0.227907 0.668912 0.695905 -0.619450
O72   O     O_3   0.782972 0.323772 0.305182 -0.614481
O73   O     O_3   0.387758 0.282267 0.726129 -0.602261
O74   O     O_3   0.619892 0.722427 0.281764 -0.612337
O75   O     O_3   0.718171 0.612868 0.275050 -0.602484
O76   O     O_3   0.278291 0.380516 0.719084 -0.613464
O77   O     O_3   0.669065 0.227781 0.304275 -0.614763
O78   O     O_R   0.939250 0.500000 0.680570 -0.656688
O79   O     O_3   0.321062 0.785027 0.694310 -0.616237
O80   O     O_3   0.281604 0.386746 0.274829 -0.602209
O81   O     O_3   0.721666 0.619457 0.719096 -0.613507
O82   O     O_3   0.329575 0.773781 0.304350 -0.619489
O83   O     O_3   0.678910 0.214923 0.694308 -0.616225
O84   O     O_R   0.500000 0.060750 0.319430 -0.657109
Zn1   Zn    Zn3+2 0.413200 0.000000 0.224130 0.952955
Zn2   Zn    Zn3+2 0.086800 0.500000 0.275870 0.964535
Zn3   Zn    Zn3+2 0.500000 0.913200 0.724130 0.963325
Zn4   Zn    Zn3+2 0.500000 0.086800 0.275870 0.953876
Zn5   Zn    Zn3+2 0.086800 0.500000 0.724130 0.954879
Zn6   Zn    Zn3+2 0.913200 0.500000 0.275870 0.962572
Zn7   Zn    Zn3+2 0.500000 0.086800 0.724130 0.963320
Zn8   Zn    Zn3+2 0.500000 0.913200 0.275870 0.953697
Zn9   Zn    Zn3+2 0.586800 1.000000 0.775870 0.963271
Zn10  Zn    Zn3+2 0.000000 0.413200 0.224130 0.962587
Zn11  Zn    Zn3+2 0.000000 0.586800 0.775870 0.954875
Zn12  Zn    Zn3+2 0.586800 0.000000 0.224130 0.964813
Zn13  Zn    Zn3+2 0.413200 1.000000 0.775870 0.963257
Zn14  Zn    Zn3+2 0.000000 0.586800 0.224130 0.961562
Zn15  Zn    Zn3+2 0.000000 0.413200 0.775870 0.954859
Zn16  Zn    Zn3+2 0.913200 0.500000 0.724130 0.954896

loop_
_geom_bond_atom_site_label_1
_geom_bond_atom_site_label_2
_ccdc_geom_bond_type
C207  O60   S    
C31   C161  S    
C101  C148  A    
C126  C127  S    
C42   H201  S    
C108  H100  S    
C185  O20   A    
C121  H131  S    
C134  O82   S    
C55   C56   S    
C76   H26   S    
C198  O51   S    
O23   Zn2   S    
C64   H254  S    
C190  O26   A    
C39   H194  S    
C97   H76   S    
C112  H112  S    
C40   H197  S    
C47   H212  S    
C133  H160  S    
C53   H227  S    
C6    C25   A    
C1    H1    S    
C163  N4    A    
O11   Zn13  S    
C162  N16   A    
C108  C109  S    
C27   C90   A    
C161  N2    A    
O46   Zn15  S    
C45   H210  S    
C110  C111  S    
C29   C113  A    
C143  H168  S    
C57   H57   S    
C189  O31   A    
C119  H126  S    
C147  H179  S    
C6    C215  A    
C131  H153  S    
O34   Zn11  S    
C66   H3    S    
C145  H177  S    
C3    C19   A    
C178  O14   A    
C22   C190  S    
C165  N13   A    
C106  H96   S    
C11   C216  A    
C217  O70   S    
N3    N8    A    
C67   H7    S    
C59   C60   S    
C200  C208  A    
C173  O4    A    
C172  O67   A    
C202  O55   S    
C14   C182  S    
C120  H127  S    
C45   C47   S    
O22   Zn3   S    
C60   H243  S    
C156  C173  S    
C56   H237  S    
C68   C160  A    
C51   C52   S    
C83   H41   S    
C49   H217  S    
C114  H111  S    
C132  H156  S    
C42   H203  S    
C69   H8    S    
C74   H21   S    
C110  H107  S    
C13   H13   S    
C32   C145  A    
C9    C213  A    
C195  O30   A    
O44   Zn14  S    
C89   H56   S    
C30   C143  A    
C174  O5    A    
C199  C209  A    
C118  H122  S    
C75   C76   S    
C86   H49   S    
C197  C211  A    
C152  C170  A    
C180  O40   A    
O34   Zn15  S    
C180  O16   A    
C35   C156  A    
C27   C165  S    
C164  N7    A    
C169  O45   A    
O29   Zn5   S    
C9    C186  S    
O2    Zn3   S    
O28   Zn8   S    
C108  H102  S    
C104  H92   S    
C43   H206  S    
C91   H61   S    
C11   C179  S    
C30   C162  S    
C76   H28   S    
C41   H200  S    
C91   C92   S    
O18   Zn8   S    
C2    H2    S    
C130  H152  S    
C120  H129  S    
C38   H193  S    
C72   C73   S    
C93   H64   S    
C139  C140  S    
C16   C184  S    
N2    N5    A    
O13   Zn12  S    
C45   H209  S    
O6    Zn14  S    
C122  H132  S    
C86   H51   S    
C107  H99   S    
O17   Zn5   S    
C68   C151  A    
C221  O74   S    
C44   H208  S    
C102  H85   S    
C189  O25   A    
C2    C157  A    
C103  H87   S    
C50   H219  S    
C99   H81   S    
C96   H73   S    
C41   O51   S    
C121  O77   S    
O35   Zn12  S    
C98   H78   S    
C88   H55   S    
C15   C206  A    
C28   C168  S    
O25   Zn16  S    
C7    O83   S    
C196  C212  A    
C6    O82   S    
C52   H226  S    
C88   C89   S    
C98   C99   S    
C186  O46   A    
C100  O71   S    
C220  O73   S    
C14   C218  A    
C80   H33   S    
C123  H137  S    
C224  O77   S    
C136  H164  S    
C191  O38   A    
C81   H37   S    
C138  H169  S    
C2    C144  A    
O39   Zn1   S    
N6    N16   A    
C55   H232  S    
C13   C145  A    
O40   Zn10  S    
C128  C129  S    
C109  H105  S    
C97   C98   S    
C113  H113  S    
C127  H144  S    
O16   Zn6   S    
C85   C86   S    
C89   H58   S    
C131  O81   S    
C93   H66   S    
C78   H31   S    
C187  O33   A    
C94   H69   S    
C36   C37   S    
C33   C163  S    
C169  O84   A    
C38   C39   S    
C67   O60   S    
C78   C80   S    
C34   H185  S    
C20   C188  S    
C39   H195  S    
C115  C116  S    
C102  H86   S    
C65   H255  S    
C1    C152  A    
C168  N10   A    
C69   H9    S    
C92   C93   S    
C109  H104  S    
C61   O58   S    
C219  C224  A    
C126  H141  S    
C10   C210  A    
O31   Zn11  S    
C73   H18   S    
C213  O66   S    
C70   H12   S    
C48   H215  S    
C43   H204  S    
C181  H213  S    
C210  O63   S    
O19   Zn7   S    
C188  O24   A    
C187  O22   A    
C70   H11   S    
C218  O71   S    
C130  H150  S    
C46   H46   S    
C211  O64   S    
C17   C194  S    
C69   C70   S    
C141  C192  A    
C191  O27   A    
C58   H239  S    
C21   C199  A    
C92   H63   S    
C155  C203  A    
C74   O62   S    
C212  O65   S    
C155  C159  A    
C161  N6    A    
C184  O19   A    
C95   H70   S    
O5    Zn15  S    
C77   H29   S    
C197  O50   S    
C16   C205  A    
C33   C151  A    
C39   C40   S    
C205  O58   S    
C60   H242  S    
C146  H178  S    
C111  H108  S    
C59   H240  S    
C193  O39   A    
C165  N9    A    
C221  C222  A    
C17   C223  A    
C94   O69   S    
C195  O37   A    
C4    C22   A    
C21   C189  S    
C141  H146  S    
C44   H207  S    
C160  C169  S    
C176  O11   A    
O4    Zn5   S    
C32   C150  A    
C77   O63   S    
C135  H135  S    
C196  O49   S    
C113  C159  A    
C25   C196  A    
O23   Zn10  S    
C155  C174  S    
C12   C180  S    
C82   C83   S    
C82   H40   S    
C84   O65   S    
C56   H234  S    
O12   Zn13  S    
C135  C181  A    
C38   O50   S    
C25   C193  S    
C52   C53   S    
C63   H250  S    
C127  H142  S    
C129  C130  S    
O42   Zn1   S    
C154  C192  A    
C54   C55   S    
C51   O54   S    
C47   H211  S    
O41   Zn11  S    
C94   H67   S    
C175  O6    A    
C121  H130  S    
C172  O3    A    
C201  O54   S    
C128  O80   S    
C117  H120  S    
C124  H124  S    
C115  O75   S    
C40   H198  S    
C103  H89   S    
C54   O55   S    
C27   C135  A    
C133  H159  S    
O3    Zn6   S    
C129  H149  S    
C73   H20   S    
C115  H116  S    
C47   H214  S    
C7    C23   A    
C32   C164  S    
C144  H176  S    
O1    Zn4   S    
C16   C220  A    
C176  O7    A    
C34   C36   S    
N10   N15   A    
C102  C103  S    
C198  C210  A    
C33   C146  A    
C38   H192  S    
C119  H125  S    
C46   C149  A    
C140  H173  S    
C125  O79   S    
C49   C50   S    
C66   H4    S    
O9    Zn11  S    
C34   H184  S    
C28   C141  A    
C170  H202  S    
C8    C212  A    
C88   H54   S    
C105  H94   S    
N4    N7    A    
C99   H80   S    
C10   C217  A    
C37   H190  S    
C63   H252  S    
C57   C158  A    
C148  H180  S    
C149  H181  S    
N1    N13   A    
C41   C42   S    
C107  O73   S    
O20   Zn2   S    
O8    Zn1   S    
O47   Zn12  S    
C120  H128  S    
O45   Zn8   S    
C77   C78   S    
O48   Zn13  S    
C60   H244  S    
C66   H5    S    
C51   H222  S    
C148  C154  A    
C134  H161  S    
C74   H22   S    
O14   Zn4   S    
C81   O64   S    
C84   H44   S    
O1    Zn8   S    
C152  C177  S    
O10   Zn10  S    
C104  C105  S    
C90   H90   S    
C19   C187  S    
C100  H83   S    
C62   H248  S    
C28   C101  A    
C190  O32   A    
C15   C183  S    
C223  O76   S    
O34   Zn16  S    
C139  H172  S    
C56   H236  S    
C90   C112  A    
O23   Zn6   S    
C177  O13   A    
C194  O36   A    
C54   H230  S    
C53   H229  S    
C183  O18   A    
C219  O72   S    
C137  H166  S    
C43   H205  S    
C216  O69   S    
C204  O57   S    
C26   C124  A    
C41   H199  S    
C4    C217  A    
C64   H253  S    
C131  H154  S    
C107  H98   S    
O24   Zn4   S    
C30   C147  A    
C84   C85   S    
C92   H62   S    
C12   C208  A    
C53   H228  S    
C151  H183  S    
C136  C137  S    
O43   Zn9   S    
C58   C59   S    
C36   H187  S    
O38   Zn9   S    
C5    C21   A    
C95   H71   S    
C117  H121  S    
C62   C63   S    
C122  H133  S    
C200  O53   S    
C140  H175  S    
O84   Zn4   S    
C50   H220  S    
C182  O41   A    
C201  C207  A    
C183  O47   A    
C18   C202  A    
C96   H74   S    
C87   O66   S    
C167  N11   A    
O12   Zn3   S    
C179  O43   A    
C121  C122  S    
C104  O72   S    
C105  H93   S    
C106  H95   S    
C84   H45   S    
C5    O81   S    
C48   C49   S    
C153  C181  A    
C208  O61   S    
C106  H97   S    
C68   H68   S    
C125  C126  S    
N11   N14   A    
C80   H34   S    
C42   C43   S    
C131  C132  S    
C79   H79   S    
C75   H23   S    
C44   C45   S    
C85   H48   S    
C63   H251  S    
C50   H221  S    
C4    O80   S    
C138  H170  S    
C18   C195  S    
C22   C198  A    
C83   H42   S    
C159  H191  S    
C49   H218  S    
C114  H110  S    
C132  H155  S    
C137  H165  S    
C119  C120  S    
C150  H182  S    
C127  H143  S    
C125  H138  S    
C105  C106  S    
C26   C79   A    
O56   Zn7   S    
C93   H65   S    
C78   H32   S    
C64   C65   S    
C29   C167  S    
C118  H123  S    
C157  C172  S    
C24   C146  A    
C142  C203  A    
C61   H245  S    
C83   H43   S    
C206  O59   S    
C125  H139  S    
C111  C114  S    
O33   Zn13  S    
C166  N12   A    
C94   C95   S    
C18   C222  A    
C109  H103  S    
C138  C139  S    
O12   Zn7   S    
C71   C72   S    
C87   C88   S    
C163  N8    A    
C48   H216  S    
C104  H91   S    
O1    Zn1   S    
C175  O10   A    
C75   H25   S    
C76   H27   S    
C123  H136  S    
C71   H15   S    
C130  H151  S    
C111  H109  S    
C95   C96   S    
C97   H75   S    
C19   C201  A    
C110  H106  S    
C8    C215  A    
C114  H114  S    
C64   O59   S    
C23   C191  S    
C81   C82   S    
C194  O29   A    
C128  H145  S    
C153  C176  S    
C154  C175  S    
C31   C149  A    
O30   Zn6   S    
C116  H118  S    
C192  H224  S    
C3    C218  A    
C171  O2    A    
C87   H53   S    
C158  C171  S    
C103  H88   S    
C58   O57   S    
C51   H223  S    
C116  C117  S    
C14   C207  A    
C99   H82   S    
C70   H10   S    
C31   C144  A    
C98   H77   S    
C182  O17   A    
C118  O76   S    
C118  C119  S    
C203  H235  S    
C44   O52   S    
C193  O28   A    
C20   C200  A    
C52   H225  S    
C71   O61   S    
C67   H6    S    
C132  C133  S    
O15   Zn3   S    
C72   H16   S    
C174  O9    A    
C80   H36   S    
C188  O35   A    
C12   C219  A    
O32   Zn10  S    
C209  O62   S    
C136  H163  S    
C81   H38   S    
C61   C62   S    
C142  H157  S    
C178  O42   A    
C166  N1    A    
C137  H167  S    
C164  N3    A    
C20   C224  A    
C185  O44   A    
C101  H101  S    
C89   H59   S    
C162  N5    A    
C74   C75   S    
C10   C178  S    
O1    Zn12  S    
C35   H35   S    
C85   H47   S    
C222  O75   S    
C117  H119  S    
O21   Zn16  S    
C110  O74   S    
C134  C136  S    
C61   H247  S    
C46   C157  A    
C65   H256  S    
C48   O53   S    
C59   H241  S    
C116  H117  S    
C67   C69   S    
C133  H158  S    
C15   C221  A    
C17   C204  A    
C96   H72   S    
C129  H148  S    
O12   Zn9   S    
C126  H140  S    
C73   H19   S    
C115  H115  S    
C107  C108  S    
C57   C150  A    
O23   Zn14  S    
C100  C102  S    
C36   H186  S    
C91   H60   S    
C35   C147  A    
C171  O56   A    
C204  C205  A    
C7    C213  A    
C123  H134  S    
C143  C214  A    
O67   Zn2   S    
C140  H174  S    
C40   H196  S    
O34   Zn5   S    
C112  C153  A    
C156  C214  A    
C5    C216  A    
C24   H24   S    
C177  O8    A    
C87   H52   S    
C58   H238  S    
C55   H233  S    
O26   Zn2   S    
C13   C158  A    
C37   H189  S    
C128  H147  S    
O78   Zn16  S    
C26   C166  S    
C71   H14   S    
C215  O68   S    
C72   H17   S    
C214  H246  S    
C77   H30   S    
C24   C160  A    
O7    Zn9   S    
C3    O79   S    
C8    C185  S    
C23   C197  A    
C134  H162  S    
C34   O49   S    
C179  O15   A    
C91   O68   S    
C167  N15   A    
C97   O70   S    
C184  O48   A    
O27   Zn7   S    
C138  O83   S    
C11   C209  A    
C37   H188  S    
C9    C211  A    
C1    C79   A    
C29   C142  A    
C220  C223  A    
C186  O21   A    
N9    N12   A    
C199  O52   S    
C100  H84   S    
C62   H249  S    
C173  O78   A    
C124  C170  A    
O37   Zn14  S    
C65   C66   S    
C202  C206  A    
O36   Zn15  S    
C82   H39   S    
C86   H50   S    
C139  H171  S    
C168  N14   A    
C122  C123  S    
C54   H231  S    
