data_mof_unit_45615.cif
_audit_creation_date              2012-12-10T17:11:27-0500
_audit_creation_method            fapswitch 2.2
_symmetry_space_group_name_H-M    P1
_symmetry_Int_Tables_number       1
_space_group_crystal_system       triclinic
_cell_length_a                    14.986619
_cell_length_b                    13.078363
_cell_length_c                    11.766737
_cell_angle_alpha                 100.732209
_cell_angle_beta                  90.726048
_cell_angle_gamma                 91.791208
_cell_volume                      2264.43594031

loop_
_atom_site_label
_atom_site_type_symbol
_atom_type_description
_atom_site_fract_x
_atom_site_fract_y
_atom_site_fract_z
_atom_type_partial_charge
C1    C     C_R   0.506827 0.299749 0.477208 0.839219
C2    C     C_R   0.498450 0.701798 0.522782 0.812320
C3    C     C_R   0.039753 0.335253 0.572303 -0.261605
C4    C     C_R   0.959934 0.659252 0.419204 -0.259524
C5    C     C_R   0.491910 0.817791 0.538895 -0.253946
C6    C     C_R   0.512680 0.185580 0.462577 -0.189975
C7    C     C_R   0.455247 0.020668 0.354995 0.299085
C8    C     C_R   0.501136 0.992920 0.657449 0.301671
C9    C     C_R   0.491973 0.120567 0.354509 0.018304
C10   C     C_R   0.506678 0.884063 0.650482 0.039780
C11   C     C_R   0.527546 0.140683 0.561159 0.219312
C12   C     C_R   0.468246 0.863611 0.441741 0.193093
C13   C     C_R   0.502846 0.034970 0.556230 -0.109011
C14   C     C_R   0.473382 0.972705 0.451067 -0.033758
C15   C     C_R   0.400991 0.418992 0.032724 0.062286
C16   C     C_R   0.605415 0.573021 0.965280 0.063327
C17   C     C_R   0.410103 0.432692 0.153594 0.002098
C18   C     C_R   0.590871 0.566304 0.845296 0.003539
C19   C     C_R   0.552746 0.514017 0.148619 0.396301
C20   C     C_R   0.450671 0.480092 0.852292 0.374470
C21   C     C_R   0.541836 0.521316 0.029103 -0.122040
C22   C     C_R   0.463628 0.473240 0.970814 -0.078933
C23   C     C_R   0.329288 0.498675 0.502506 0.854846
C24   C     C_R   0.670659 0.500748 0.497359 0.860622
C25   C     C_R   0.814841 0.580381 0.453629 0.210633
C26   C     C_R   0.184889 0.416581 0.542535 0.205818
C27   C     C_R   0.766836 0.500344 0.492161 -0.095069
C28   C     C_R   0.232967 0.498120 0.506857 -0.093919
C29   C     C_R   0.809624 0.420628 0.531607 -0.328540
C30   C     C_R   0.190071 0.577256 0.466442 -0.325653
C31   C     C_R   0.902612 0.416706 0.532337 0.099042
C32   C     C_R   0.097034 0.578817 0.461243 0.101682
C33   C     C_R   0.952825 0.497789 0.494970 -0.006671
C34   C     C_R   0.046833 0.497770 0.498659 -0.006826
C35   C     C_R   0.908984 0.579552 0.455021 0.024985
C36   C     C_R   0.090698 0.416261 0.539024 0.027320
C37   C     C_R   0.946567 0.334351 0.570199 0.168933
C38   C     C_R   0.053047 0.659313 0.419798 0.169242
Cu1   Cu    Cu3+1 0.506660 0.507730 0.615930 0.915941
Cu2   Cu    Cu3+1 0.493340 0.492270 0.384070 0.934034
H1    H     H_    0.768435 0.361835 0.561224 0.169952
H2    H     H_    0.231259 0.637393 0.439361 0.155121
H3    H     H_    0.071894 0.270641 0.599222 0.150376
H4    H     H_    0.927902 0.722661 0.389684 0.148621
H5    H     H_    0.637894 0.600975 0.794235 0.171606
H6    H     H_    0.360916 0.400018 0.203648 0.169963
N1    N     N_R   0.516670 0.519360 0.790130 -0.230887
N2    N     N_R   0.483330 0.480640 0.209870 -0.212548
O1    O     O_R   0.504720 0.354460 0.582000 -0.564172
O2    O     O_R   0.495280 0.645540 0.418000 -0.562878
O3    O     O_R   0.493480 0.341410 0.386200 -0.608244
O4    O     O_R   0.506520 0.658590 0.613800 -0.608072
O5    O     O_R   0.375880 0.506510 0.597910 -0.565464
O6    O     O_R   0.624120 0.493490 0.402090 -0.533350
O7    O     O_R   0.364640 0.493450 0.402110 -0.608270
O8    O     O_R   0.635360 0.506550 0.597890 -0.613970
N3    N     N_2   0.767176 0.661355 0.416324 -0.441805
H7    H     H_    0.789501 0.683255 0.341649 0.235832
C39   C     C_3   0.747170 0.747986 0.507058 -0.714110
H8    H     H_    0.809755 0.790439 0.542622 0.224446
H9    H     H_    0.710749 0.720225 0.577791 0.227894
H10   H     H_    0.704053 0.802405 0.471376 0.223041
N4    N     N_2   0.232490 0.335909 0.580453 -0.449589
H11   H     H_    0.209577 0.313705 0.654728 0.242673
C40   C     C_3   0.254292 0.249845 0.490033 -0.722624
H12   H     H_    0.192417 0.207038 0.452433 0.224614
H13   H     H_    0.296918 0.195538 0.526677 0.225088
H14   H     H_    0.291934 0.278252 0.420647 0.236719
C41   C     C_3   0.327558 0.343208 0.972046 -0.372690
C42   C     C_3   0.291375 0.261847 0.039676 -0.923725
H15   H     H_    0.346938 0.220207 0.071808 0.251868
H16   H     H_    0.249944 0.298461 0.112733 0.253150
H17   H     H_    0.247611 0.203939 0.981788 0.246981
H18   H     H_    0.269840 0.387341 0.950134 0.232114
H19   H     H_    0.354890 0.297928 0.891445 0.216586
C43   C     C_3   0.685390 0.639671 0.023189 -0.417264
C44   C     C_3   0.741394 0.699961 0.947767 -0.895306
H20   H     H_    0.776084 0.645368 0.880177 0.253475
H21   H     H_    0.699677 0.751925 0.906873 0.252871
H22   H     H_    0.793220 0.749052 0.002612 0.249166
H23   H     H_    0.660427 0.698287 0.095293 0.200022
H24   H     H_    0.733515 0.589633 0.056465 0.229970
C45   C     C_3   0.897035 0.243879 0.608827 -0.410172
C46   C     C_3   0.859101 0.165377 0.505543 -0.835509
H25   H     H_    0.811809 0.202066 0.453291 0.252723
H26   H     H_    0.914172 0.132303 0.449420 0.250900
H27   H     H_    0.822958 0.100898 0.536922 0.234524
H28   H     H_    0.942565 0.201820 0.658116 0.193391
H29   H     H_    0.843427 0.272190 0.669848 0.196155
C47   C     C_3   0.102394 0.745612 0.373213 -0.414170
C48   C     C_3   0.135343 0.706173 0.250989 -0.830910
H30   H     H_    0.183039 0.642787 0.249603 0.254167
H31   H     H_    0.077922 0.676583 0.192126 0.252137
H32   H     H_    0.169543 0.770908 0.218094 0.236627
H33   H     H_    0.057796 0.811275 0.369189 0.195367
H34   H     H_    0.158530 0.779822 0.431939 0.187691
N5    N     N_2   0.444730 0.801306 0.331814 -0.374319
H35   H     H_    0.397174 0.742341 0.330163 0.264988
C49   C     C_3   0.516290 0.781766 0.249568 -0.602872
H36   H     H_    0.489561 0.736063 0.166422 0.209869
H37   H     H_    0.570026 0.738541 0.283011 0.219699
H38   H     H_    0.546276 0.855882 0.232942 0.217844
N6    N     N_2   0.593872 0.188705 0.644908 -0.426692
H39   H     H_    0.645572 0.141359 0.657185 0.236717
C50   C     C_3   0.566954 0.255599 0.750560 -0.583157
H40   H     H_    0.591652 0.226207 0.827360 0.175307
H41   H     H_    0.493234 0.261852 0.754659 0.240396
H42   H     H_    0.598918 0.333904 0.755582 0.242282
C51   C     C_3   0.529321 0.837198 0.757969 -0.315613
C52   C     C_3   0.557105 0.907877 0.872292 -0.921109
H43   H     H_    0.611845 0.963567 0.859425 0.251877
H44   H     H_    0.498906 0.947172 0.915724 0.266904
H45   H     H_    0.582251 0.859551 0.933064 0.245265
H46   H     H_    0.471255 0.788449 0.776781 0.222242
H47   H     H_    0.588186 0.788141 0.736545 0.212075
C53   C     C_3   0.518030 0.150989 0.239628 -0.363874
C54   C     C_3   0.578634 0.071917 0.168656 -0.904308
H48   H     H_    0.636944 0.057641 0.222145 0.259110
H49   H     H_    0.542694 0.997023 0.135130 0.253319
H50   H     H_    0.603556 0.103123 0.092924 0.244661
H51   H     H_    0.457605 0.161657 0.188382 0.193981
H52   H     H_    0.558930 0.224068 0.252494 0.234671
N7    N     N_2   0.394538 0.972714 0.264355 -0.392098
H53   H     H_    0.399699 0.997824 0.186844 0.255987
C55   C     C_3   0.302380 0.969204 0.299167 -0.706145
H54   H     H_    0.260425 0.928188 0.225241 0.222570
H55   H     H_    0.278272 0.049469 0.325443 0.215806
H56   H     H_    0.294777 0.926666 0.372028 0.237121
N8    N     N_2   0.469051 0.057897 0.758141 -0.412356
H57   H     H_    0.511705 0.079827 0.827818 0.261813
C56   C     C_3   0.376057 0.041402 0.783157 -0.716638
H58   H     H_    0.357423 0.099293 0.859609 0.229556
H59   H     H_    0.363938 0.962113 0.802054 0.233022
H60   H     H_    0.333351 0.051394 0.708370 0.230803
N9    N     N_2   0.365195 0.454682 0.801670 -0.442148
H61   H     H_    0.360807 0.398559 0.727905 0.292694
C57   C     C_3   0.301776 0.537424 0.821555 -0.658108
H62   H     H_    0.236195 0.508488 0.781450 0.218713
H63   H     H_    0.325834 0.605305 0.784734 0.243148
H64   H     H_    0.292440 0.563946 0.915823 0.209317
N10   N     N_2   0.638668 0.523311 0.200473 -0.389698
H65   H     H_    0.667542 0.596116 0.227529 0.234504
C58   C     C_3   0.694984 0.434766 0.168705 -0.668324
H66   H     H_    0.760239 0.450576 0.215402 0.222274
H67   H     H_    0.706615 0.418798 0.074140 0.202876
H68   H     H_    0.662735 0.364499 0.193017 0.233510

loop_
_geom_bond_atom_site_label_1
_geom_bond_atom_site_label_2
_ccdc_geom_bond_type
C58   H68   S    
N4    C40   S    
C16   C21   A    
C45   H28   S    
C27   C29   A    
C54   H48   S    
C46   H27   S    
C56   H60   S    
C18   N1    A    
C6    C9    A    
N5    H35   S    
C47   C48   S    
N7    H53   S    
C44   H20   S    
C50   H41   S    
C3    H3    S    
C8    C13   A    
C53   H52   S    
C19   C21   A    
C46   H26   S    
N10   C58   S    
N3    C39   S    
C24   O6    A    
C58   H66   S    
C58   H67   S    
C53   C54   S    
C10   C51   S    
Cu2   N2    S    
C52   H43   S    
C2    O2    A    
N5    C49   S    
C15   C22   A    
C45   C46   S    
C40   H13   S    
C55   H56   S    
C24   C27   S    
C42   H15   S    
C32   C38   A    
C7    C14   A    
N6    H39   S    
C17   N2    A    
Cu2   O7    S    
N9    H61   S    
Cu1   O4    S    
C4    C35   A    
C39   H8    S    
C19   N10   S    
C21   C22   A    
C25   N3    S    
C15   C41   S    
C15   C17   A    
C50   H42   S    
C23   O5    A    
C43   C44   S    
C44   H21   S    
C45   H29   S    
C57   H64   S    
C39   H9    S    
C53   H51   S    
C1    C6    S    
C47   H33   S    
C17   H6    S    
C5    C12   A    
C54   H50   S    
C43   H24   S    
C6    C11   A    
C19   N2    A    
C4    H4    S    
C31   C37   A    
C32   C34   A    
C26   N4    S    
C48   H31   S    
C57   H63   S    
C49   H36   S    
C40   H14   S    
C42   H17   S    
C31   C33   A    
C33   C34   A    
C41   H18   S    
N6    C50   S    
Cu1   O8    S    
C23   C28   S    
C46   H25   S    
C23   O7    A    
C1    O3    A    
C52   H45   S    
C12   N5    S    
C2    O4    A    
C51   H46   S    
C25   C35   A    
C26   C36   A    
C49   H37   S    
C20   C22   A    
Cu2   O6    S    
C55   H54   S    
C2    C5    S    
C24   O8    A    
C56   H58   S    
C18   H5    S    
C48   H30   S    
Cu1   N1    S    
N8    H57   S    
C57   H62   S    
C44   H22   S    
N9    C57   S    
C39   H10   S    
C29   H1    S    
C16   C43   S    
C9    C53   S    
C16   C18   A    
C37   C45   S    
C12   C14   A    
C56   H59   S    
C43   H23   S    
C42   H16   S    
Cu1   O1    S    
C47   H34   S    
C25   C27   A    
Cu2   O3    S    
C50   H40   S    
C38   C47   S    
C26   C28   A    
C54   H49   S    
C5    C10   A    
C29   C31   A    
N10   H65   S    
C48   H32   S    
C30   C32   A    
C11   C13   A    
N3    H7    S    
Cu1   O5    S    
C3    C36   A    
Cu2   O2    S    
C28   C30   A    
C33   C35   A    
C41   H19   S    
C34   C36   A    
C20   N9    S    
C41   C42   S    
C52   H44   S    
C20   N1    A    
N7    C55   S    
C51   H47   S    
N4    H11   S    
Cu1   Cu2   S    
C7    C9    A    
C49   H38   S    
C3    C37   A    
C8    C10   A    
C40   H12   S    
C51   C52   S    
C8    N8    S    
C55   H55   S    
C30   H2    S    
C4    C38   A    
C11   N6    S    
C13   C14   A    
C1    O1    A    
C7    N7    S    
N8    C56   S    
