data_mof_unit_46282.cif
_audit_creation_date              2012-12-10T18:46:19-0500
_audit_creation_method            fapswitch 2.2
_symmetry_space_group_name_H-M    P1
_symmetry_Int_Tables_number       1
_space_group_crystal_system       triclinic
_cell_length_a                    9.846177
_cell_length_b                    10.700634
_cell_length_c                    13.078408
_cell_angle_alpha                 89.98423
_cell_angle_beta                  71.78559
_cell_angle_gamma                 90.031837
_cell_volume                      1308.90105019

loop_
_atom_site_label
_atom_site_type_symbol
_atom_type_description
_atom_site_fract_x
_atom_site_fract_y
_atom_site_fract_z
_atom_type_partial_charge
C1    C     C_R   0.499946 0.739662 0.500658 0.875068
C2    C     C_R   0.384121 0.571040 0.812074 -0.171980
C3    C     C_R   0.615748 0.935635 0.428099 -0.056355
C4    C     C_R   0.424151 0.519808 0.701732 0.906273
C5    C     C_R   0.612994 0.064778 0.424871 -0.056315
C6    C     C_R   0.499811 0.128071 0.499653 -0.145655
C7    C     C_R   0.387465 0.065078 0.575697 -0.063307
C8    C     C_R   0.386473 0.935766 0.575156 -0.047897
C9    C     C_R   0.500552 0.872364 0.501272 -0.132045
C10   C     C_R   0.939137 0.394655 0.473477 -0.054886
C11   C     C_R   0.082881 0.394725 0.473386 -0.059538
C12   C     C_R   0.448336 0.609905 0.975332 0.003776
C13   C     C_R   0.060987 0.605412 0.526200 -0.063543
C14   C     C_R   0.917472 0.605477 0.525895 -0.077403
C15   C     C_R   0.500069 0.260507 0.499533 0.909305
C16   C     C_R   0.577612 0.505363 0.296440 0.889106
C17   C     C_R   0.795687 0.509087 0.005564 -0.163940
C18   C     C_R   0.622466 0.529101 0.181360 -0.129957
C19   C     C_R   0.239866 0.590027 0.869367 -0.317086
C20   C     C_R   0.199541 0.629221 0.977010 0.518992
C21   C     C_R   0.300578 0.623941 0.031888 -0.233647
C22   C     C_1   0.723558 0.131719 0.342806 0.166659
C23   C     C_R   0.489323 0.600957 0.862012 0.083540
C24   C     C_1   0.275784 0.132715 0.656242 0.192177
C25   C     C_1   0.271103 0.868746 0.652799 0.168300
C26   C     C_1   0.434853 0.688433 0.203565 0.166305
C27   C     C_3   0.013318 0.757367 0.974248 0.087483
C28   C     C_3   0.885959 0.827678 0.049204 -0.303737
C29   C     C_3   0.813610 0.910095 0.986291 -0.939269
C30   C     C_1   0.737223 0.868259 0.357478 0.182697
C31   C     C_R   0.556972 0.593398 0.025567 0.063574
C32   C     C_R   0.697891 0.562238 0.960325 0.135956
C33   C     C_R   0.738987 0.586391 0.850683 -0.257526
C34   C     C_R   0.635587 0.615538 0.803500 -0.160589
C35   C     C_R   0.531250 0.596487 0.137255 -0.076276
C36   C     C_R   0.754901 0.486096 0.115393 -0.164890
H1    H     H_    0.827863 0.438044 0.149122 0.186699
H2    H     H_    0.671838 0.643727 0.720194 0.171860
H3    H     H_    0.979448 0.712691 0.909505 0.152274
H4    H     H_    0.098738 0.827516 0.937713 0.151112
H5    H     H_    0.806273 0.760331 0.098405 0.250665
H6    H     H_    0.924180 0.887838 0.103732 0.235299
H7    H     H_    0.891038 0.978776 0.936493 0.273948
H8    H     H_    0.723751 0.961707 0.043382 0.271174
H9    H     H_    0.770303 0.851997 0.933271 0.271093
H10   H     H_    0.894058 0.310284 0.452088 0.146434
H11   H     H_    0.145824 0.310434 0.451798 0.141427
H12   H     H_    0.106211 0.689921 0.547100 0.152598
H13   H     H_    0.855158 0.690202 0.546366 0.132332
H14   H     H_    0.849980 0.580082 0.801210 0.146324
H15   H     H_    0.901239 0.480996 0.955458 0.158846
H16   H     H_    0.158944 0.575327 0.830486 0.165439
H17   H     H_    0.259111 0.631139 0.117992 0.178719
N1    N     N_R   0.142790 0.500030 0.500030 -0.083061
N2    N     N_R   0.857180 0.499940 0.500010 -0.080959
N3    N     N_1   0.811367 0.184849 0.277370 -0.219115
N4    N     N_1   0.187015 0.186494 0.720284 -0.200714
N5    N     N_1   0.178830 0.815639 0.714308 -0.263074
N6    N     N_1   0.358847 0.762081 0.256747 -0.189849
N7    N     N_1   0.834251 0.813566 0.303023 -0.192839
O1    O     O_R   0.385370 0.683250 0.500010 -0.616042
O2    O     O_R   0.614700 0.683220 0.500010 -0.637397
O3    O     O_R   0.328400 0.499990 0.653620 -0.603754
O4    O     O_R   0.557730 0.499960 0.653620 -0.622612
O5    O     O_R   0.385300 0.316780 0.499990 -0.621013
O6    O     O_R   0.614630 0.316750 0.499990 -0.617646
O7    O     O_R   0.442270 0.500040 0.346380 -0.604280
O8    O     O_R   0.671600 0.500010 0.346380 -0.599026
O9    O     O_3   0.060484 0.664634 0.032942 -0.642826
Zn1   Zn    Zn3+2 0.346870 0.500020 0.500000 0.971435
Zn2   Zn    Zn3+2 0.653130 0.499980 0.500000 0.963159

loop_
_geom_bond_atom_site_label_1
_geom_bond_atom_site_label_2
_ccdc_geom_bond_type
O1    Zn1   S    
C10   H10   S    
C13   H12   S    
C2    C4    S    
N2    Zn2   S    
C6    C7    A    
C16   O8    A    
C17   C36   A    
C7    C24   S    
C3    C30   S    
C26   N6    T    
C4    O4    A    
C11   H11   S    
O6    Zn2   S    
N1    Zn1   S    
O3    Zn1   S    
C27   H4    S    
C23   C34   A    
C32   C33   A    
C17   H15   S    
C19   C20   A    
C14   N2    A    
C6    C15   S    
C7    C8    A    
C12   C31   A    
C16   O7    A    
C13   C14   A    
C29   H7    S    
C21   H17   S    
C8    C25   S    
C12   C23   A    
C25   N5    T    
C11   N1    A    
O8    Zn2   S    
C3    C9    A    
C12   C21   A    
C28   H6    S    
C36   H1    S    
C24   N4    T    
O2    Zn2   S    
C33   C34   A    
C29   H8    S    
C10   N2    A    
C5    C6    A    
C31   C35   A    
C20   O9    S    
C14   H13   S    
C10   C11   A    
C5    C22   S    
C1    O1    A    
O5    Zn1   S    
C15   O5    A    
C26   C35   S    
C2    C23   A    
C1    C9    S    
C20   C21   A    
C30   N7    T    
C1    O2    A    
C16   C18   S    
C13   N1    A    
C18   C35   A    
O4    Zn2   S    
C29   H9    S    
C27   C28   S    
C17   C32   A    
C28   C29   S    
C22   N3    T    
O7    Zn1   S    
C33   H14   S    
C34   H2    S    
C15   O6    A    
C18   C36   A    
C19   H16   S    
C4    O3    A    
C28   H5    S    
C31   C32   A    
C2    C19   A    
C27   H3    S    
C8    C9    A    
C3    C5    A    
C27   O9    S    
