data_mof_unit_61497.cif
_audit_creation_date              2013-03-05T16:16:25-0500
_audit_creation_method            fapswitch 2.2
_symmetry_space_group_name_H-M    P1
_symmetry_Int_Tables_number       1
_space_group_crystal_system       triclinic
_cell_length_a                    44.524778
_cell_length_b                    39.02914
_cell_length_c                    21.404518
_cell_angle_alpha                 90.046691
_cell_angle_beta                  61.096792
_cell_angle_gamma                 90.02572
_cell_volume                      32562.7579864

loop_
_atom_site_label
_atom_site_type_symbol
_atom_site_description
_atom_site_fract_x
_atom_site_fract_y
_atom_site_fract_z
_atom_type_partial_charge
O1    O     O_R   0.049900 0.528880 0.450120 -0.580744
O2    O     O_R   0.950100 0.528880 0.549880 -0.580848
O3    O     O_R   0.549900 0.028880 0.450120 -0.589131
O4    O     O_R   0.450100 0.028880 0.549880 -0.579883
O5    O     O_R   0.049890 0.471100 0.450130 -0.557639
O6    O     O_R   0.950110 0.471100 0.549870 -0.557603
O7    O     O_R   0.549890 0.971100 0.450130 -0.542461
O8    O     O_R   0.450110 0.971100 0.549870 -0.556542
C1    C     C_R   0.066112 0.499988 0.433263 0.865948
C2    C     C_R   0.933888 0.499987 0.566737 0.865947
C3    C     C_R   0.566205 0.999985 0.432483 0.844960
C4    C     C_R   0.433888 0.999986 0.566743 0.866842
O9    O     O_R   0.999990 0.528880 0.591580 -0.581987
O10   O     O_R   0.000010 0.528880 0.408420 -0.581919
O11   O     O_R   0.499990 0.028880 0.591580 -0.580805
O12   O     O_R   0.500010 0.028880 0.408420 -0.581379
O13   O     O_R   0.999970 0.471100 0.591590 -0.574844
O14   O     O_R   0.000030 0.471100 0.408410 -0.574745
O15   O     O_R   0.499970 0.971100 0.591590 -0.573970
O16   O     O_R   0.500030 0.971100 0.408410 -0.571312
C5    C     C_R   0.000019 0.499984 0.620426 0.834320
C6    C     C_R   0.999977 0.499961 0.379577 0.834246
C7    C     C_R   0.500011 0.999984 0.620434 0.836007
C8    C     C_R   0.500099 0.999958 0.379456 0.807373
Cu1   Cu    Cu3+1 1.000000 0.534200 0.500000 1.040072
Cu2   Cu    Cu3+1 0.500000 0.034200 0.500000 1.037242
Cu3   Cu    Cu3+1 0.000000 0.465780 0.500000 1.064380
Cu4   Cu    Cu3+1 0.500000 0.965780 0.500000 1.077731
C9    C     C_3   0.031045 0.510219 0.697496 -0.202134
C10   C     C_3   0.969028 0.510389 0.302463 -0.202154
C11   C     C_3   0.530988 0.010344 0.697553 -0.204394
C12   C     C_3   0.469096 0.010371 0.302463 -0.192325
C13   C     C_3   0.024255 0.478560 0.746312 -0.189294
C14   C     C_3   0.975580 0.478686 0.253782 -0.189003
C15   C     C_3   0.524331 0.978657 0.746235 -0.190823
C16   C     C_3   0.475628 0.978669 0.253786 -0.184132
H1    H     H_    0.044085 0.460774 0.744622 0.167657
H2    H     H_    0.955615 0.461050 0.255548 0.167941
H3    H     H_    0.544236 0.960953 0.744466 0.166879
H4    H     H_    0.455656 0.961030 0.255600 0.167765
H5    H     H_    0.056359 0.518492 0.653648 0.162224
H6    H     H_    0.943777 0.518846 0.346275 0.162352
H7    H     H_    0.556267 0.018725 0.653754 0.159281
H8    H     H_    0.443854 0.018821 0.346320 0.160901
C17   C     C_3   0.000090 0.500470 0.810941 -0.071500
C18   C     C_3   0.999909 0.500423 0.189062 -0.071635
C19   C     C_3   0.500081 0.000469 0.810952 -0.070826
C20   C     C_3   0.499923 0.000416 0.189050 -0.062818
C21   C     C_3   0.006726 0.531720 0.762927 0.010682
C22   C     C_3   0.993508 0.531715 0.236943 0.010605
C23   C     C_3   0.506584 0.031746 0.763072 0.011357
C24   C     C_3   0.493542 0.031705 0.236926 0.020643
C25   C     C_3   0.975734 0.521897 0.753129 -0.162027
C26   C     C_3   0.024424 0.521659 0.246782 -0.161393
C27   C     C_3   0.475631 0.021796 0.753238 -0.161206
C28   C     C_3   0.524488 0.021659 0.246670 -0.183871
C29   C     C_3   0.969088 0.490247 0.801731 -0.137699
C30   C     C_3   0.030833 0.489965 0.198315 -0.137729
C31   C     C_3   0.469118 0.990120 0.801710 -0.138865
C32   C     C_3   0.530877 0.989967 0.198208 -0.157041
C33   C     C_3   0.993276 0.468318 0.736300 -0.097452
C34   C     C_3   0.006481 0.468210 0.263842 -0.098035
C35   C     C_3   0.493393 0.968289 0.736186 -0.097629
C36   C     C_3   0.506559 0.968203 0.263753 -0.105521
C37   C     C_3   0.999988 0.499981 0.688785 0.004198
C38   C     C_3   0.000007 0.499917 0.311220 0.004154
C39   C     C_3   0.499973 0.999979 0.688802 0.005461
C40   C     C_3   0.500106 0.999909 0.311124 0.002839
H9    H     H_    0.955938 0.539704 0.754709 0.170639
H10   H     H_    0.044355 0.539316 0.245126 0.170734
H11   H     H_    0.455761 0.039522 0.754895 0.170577
H12   H     H_    0.544421 0.039332 0.244957 0.163145
H13   H     H_    0.943692 0.481982 0.845256 0.181538
H14   H     H_    0.056165 0.481516 0.154821 0.181450
H15   H     H_    0.443757 0.981752 0.845206 0.180510
H16   H     H_    0.556195 0.981526 0.154652 0.175224
H17   H     H_    0.987675 0.442163 0.724245 0.178552
H18   H     H_    0.011883 0.442013 0.276013 0.178346
H19   H     H_    0.487897 0.942111 0.724027 0.177646
H20   H     H_    0.511978 0.942006 0.275896 0.179377
C41   C     C_R   0.377602 0.486623 0.072403 -0.153274
C42   C     C_R   0.622395 0.486632 0.927572 -0.153168
C43   C     C_R   0.877525 0.006497 0.068124 -0.108274
C44   C     C_R   0.122387 0.986462 0.927543 -0.156975
H21   H     H_    0.390883 0.475811 0.019200 0.154166
H22   H     H_    0.609113 0.475832 0.980754 0.154258
H23   H     H_    0.890738 0.011851 0.011425 0.174655
H24   H     H_    0.109097 0.975641 0.980706 0.153435
C45   C     C_R   0.341771 0.486193 0.109473 -0.146166
C46   C     C_R   0.658227 0.486200 0.890501 -0.146033
C47   C     C_R   0.841715 0.006716 0.104745 -0.155024
C48   C     C_R   0.158219 0.986032 0.890488 -0.145392
H25   H     H_    0.327947 0.475314 0.084189 0.144550
H26   H     H_    0.672048 0.475331 0.915766 0.144654
H27   H     H_    0.828016 0.011865 0.075515 0.142491
H28   H     H_    0.172035 0.975141 0.915743 0.144348
C49   C     C_R   0.323912 0.500097 0.178401 0.093096
C50   C     C_R   0.676089 0.500089 0.821599 0.093070
C51   C     C_R   0.823768 0.999823 0.178236 0.097926
C52   C     C_R   0.176088 0.999961 0.821623 0.093019
C53   C     C_R   0.342301 0.514216 0.210014 -0.139487
C54   C     C_R   0.657702 0.514196 0.790013 -0.139358
C55   C     C_R   0.842185 0.992900 0.214598 -0.137942
C56   C     C_R   0.157708 0.014096 0.790049 -0.140235
H29   H     H_    0.328911 0.524945 0.263292 0.153377
H30   H     H_    0.671094 0.524913 0.736755 0.153406
H31   H     H_    0.828874 0.987832 0.271422 0.147396
H32   H     H_    0.171105 0.024845 0.736819 0.153344
C57   C     C_R   0.378113 0.513949 0.173633 -0.140755
C58   C     C_R   0.621890 0.513932 0.826394 -0.140675
C59   C     C_R   0.877960 0.993023 0.178190 -0.171734
C60   C     C_R   0.121898 0.013828 0.826408 -0.132102
H33   H     H_    0.391782 0.524769 0.199298 0.161148
H34   H     H_    0.608223 0.524742 0.800748 0.161188
H35   H     H_    0.891489 0.987690 0.207686 0.162816
H36   H     H_    0.108237 0.024674 0.800783 0.161816
C61   C     C_R   0.396051 0.500236 0.104461 -0.011695
C62   C     C_R   0.603949 0.500234 0.895540 -0.011799
C63   C     C_R   0.895977 0.999742 0.104577 -0.025858
C64   C     C_R   0.103949 0.000100 0.895526 -0.008817
C65   C     C_R   0.267717 0.530108 0.245464 -0.153126
C66   C     C_R   0.732289 0.530091 0.754559 -0.153104
C67   C     C_R   0.767858 0.973398 0.265044 -0.166043
C68   C     C_R   0.232269 0.030006 0.754707 -0.152341
H37   H     H_    0.281088 0.554255 0.237514 0.154496
H38   H     H_    0.718922 0.554236 0.762529 0.154429
H39   H     H_    0.781458 0.952412 0.273305 0.142684
H40   H     H_    0.218888 0.054145 0.762744 0.155248
C69   C     C_R   0.231904 0.529694 0.282451 -0.074167
C70   C     C_R   0.768101 0.529676 0.717571 -0.074202
C71   C     C_R   0.732071 0.973515 0.301952 -0.124926
C72   C     C_R   0.268082 0.029613 0.717722 -0.074597
H41   H     H_    0.218187 0.553628 0.301849 0.157331
H42   H     H_    0.781823 0.553605 0.698190 0.157260
H43   H     H_    0.718519 0.952818 0.338530 0.152108
H44   H     H_    0.281789 0.053555 0.698411 0.157425
C73   C     C_R   0.213956 0.498657 0.294012 0.150782
C74   C     C_R   0.786044 0.498642 0.705985 0.150714
C75   C     C_R   0.713889 0.000361 0.292110 0.156356
C76   C     C_R   0.286044 0.998587 0.706044 0.150714
C77   C     C_R   0.232501 0.468203 0.266006 -0.139558
C78   C     C_R   0.767495 0.468195 0.733969 -0.139287
C79   C     C_R   0.731793 0.026799 0.244083 -0.086196
C80   C     C_R   0.267513 0.968121 0.733939 -0.139188
H45   H     H_    0.219265 0.443970 0.274066 0.153655
H46   H     H_    0.780727 0.443965 0.725889 0.153815
H47   H     H_    0.718015 0.047531 0.235547 0.150438
H48   H     H_    0.280761 0.943896 0.725789 0.153730
C81   C     C_R   0.268292 0.468742 0.227686 -0.162867
C82   C     C_R   0.731705 0.468736 0.772288 -0.162596
C83   C     C_R   0.767580 0.026537 0.206652 -0.150260
C84   C     C_R   0.231722 0.968638 0.772256 -0.163269
H49   H     H_    0.282120 0.444973 0.206786 0.147391
H50   H     H_    0.717873 0.444971 0.793169 0.147553
H51   H     H_    0.780967 0.047346 0.170285 0.153101
H52   H     H_    0.217905 0.944859 0.793063 0.147296
C85   C     C_R   0.286121 0.499656 0.217621 0.078064
C86   C     C_R   0.713880 0.499645 0.782378 0.078046
C87   C     C_R   0.785903 0.999899 0.217057 0.084813
C88   C     C_R   0.213879 0.999541 0.782431 0.078094
C89   C     C_R   0.158869 0.480869 0.301124 -0.265068
C90   C     C_R   0.841129 0.480888 0.698862 -0.264944
C91   C     C_R   0.659085 0.973725 0.316492 -0.268656
C92   C     C_R   0.341141 0.980835 0.698858 -0.264900
H53   H     H_    0.173724 0.467753 0.250692 0.191727
H54   H     H_    0.826273 0.467796 0.749286 0.191775
H55   H     H_    0.673953 0.953731 0.279091 0.194522
H56   H     H_    0.326295 0.967713 0.749250 0.191405
C93   C     C_R   0.123029 0.481441 0.332012 0.350824
C94   C     C_R   0.876969 0.481467 0.667976 0.350903
C95   C     C_R   0.623311 0.973573 0.346668 0.351092
C96   C     C_R   0.376981 0.981427 0.667961 0.351418
C97   C     C_R   0.103772 0.499976 0.395908 -0.191538
C98   C     C_R   0.896228 0.499971 0.604089 -0.191504
C99   C     C_R   0.604045 0.000109 0.394280 -0.204966
C100  C     C_R   0.396227 0.999967 0.604118 -0.192299
C101  C     C_R   0.120597 0.517341 0.427398 -0.289901
C102  C     C_R   0.879404 0.517300 0.572608 -0.289898
C103  C     C_R   0.621184 0.026764 0.408192 -0.286227
C104  C     C_R   0.379390 0.017321 0.572695 -0.288844
H57   H     H_    0.105539 0.530671 0.477522 0.190654
H58   H     H_    0.894463 0.530606 0.522491 0.190565
H59   H     H_    0.606443 0.046859 0.445391 0.208919
H60   H     H_    0.394440 0.030655 0.522609 0.190998
C105  C     C_R   0.156393 0.516030 0.397530 0.366548
C106  C     C_R   0.843608 0.515984 0.602475 0.366615
C107  C     C_R   0.657029 0.027157 0.377298 0.360904
C108  C     C_R   0.343594 0.015992 0.602572 0.366536
C109  C     C_R   0.175899 0.498181 0.332511 -0.083701
C110  C     C_R   0.824101 0.498165 0.667484 -0.083699
C111  C     C_R   0.676116 0.000302 0.330621 -0.093105
C112  C     C_R   0.324101 0.998133 0.667534 -0.083541
O17   O     O_R   0.971100 0.450110 0.028870 -0.587651
O18   O     O_R   0.028900 0.450110 0.971130 -0.587821
O19   O     O_R   0.471100 0.950110 0.028870 -0.588749
O20   O     O_R   0.528900 0.950110 0.971130 -0.589982
C113  C     C_R   0.999999 0.433763 0.000003 0.819713
C114  C     C_R   0.499999 0.933729 0.000002 0.822229
O21   O     O_R   0.971110 0.500030 0.937300 -0.593616
O22   O     O_R   0.028890 0.500030 0.062700 -0.593444
O23   O     O_R   0.471110 0.000030 0.937300 -0.592750
O24   O     O_R   0.528890 0.000030 0.062700 -0.593152
O25   O     O_R   0.028880 0.500040 0.879560 -0.567249
O26   O     O_R   0.971120 0.500040 0.120440 -0.567462
O27   O     O_R   0.528880 0.000040 0.879560 -0.569089
O28   O     O_R   0.471120 0.000040 0.120440 -0.568073
C115  C     C_R   0.000032 0.500129 0.879450 0.850819
C116  C     C_R   0.999967 0.500109 0.120550 0.851111
C117  C     C_R   0.500031 0.000129 0.879453 0.851668
C118  C     C_R   0.499968 0.000107 0.120550 0.850012
Cu5   Cu    Cu3+1 0.965780 0.500020 0.034200 1.016163
Cu6   Cu    Cu3+1 0.034220 0.500020 0.965800 1.016153
Cu7   Cu    Cu3+1 0.465780 0.000020 0.034200 1.016449
Cu8   Cu    Cu3+1 0.534220 0.000020 0.965800 1.010697
O29   O     O_R   0.971110 0.549940 0.028880 -0.575206
O30   O     O_R   0.028890 0.549940 0.971120 -0.574787
O31   O     O_R   0.471110 0.049940 0.028880 -0.574754
O32   O     O_R   0.528890 0.049940 0.971120 -0.575659
C119  C     C_R   0.000001 0.566236 0.999997 0.893742
C120  C     C_R   0.500001 0.066234 0.000005 0.894313
O33   O     O_R   0.499970 0.450010 0.052910 -0.590592
O34   O     O_R   0.500030 0.450010 0.947090 -0.590611
O35   O     O_R   0.999970 0.950010 0.052910 -0.593645
O36   O     O_R   0.000030 0.950010 0.947090 -0.589290
C121  C     C_R   0.500002 0.433758 0.999975 0.765670
C122  C     C_R   0.000006 0.933759 0.999972 0.765325
O37   O     O_R   0.450080 0.499920 0.102890 -0.594632
O38   O     O_R   0.549920 0.499920 0.897110 -0.594583
O39   O     O_R   0.950080 0.999920 0.102890 -0.589781
O40   O     O_R   0.049920 0.999920 0.897110 -0.594012
O41   O     O_R   0.450090 0.499990 0.996890 -0.561600
O42   O     O_R   0.549910 0.499990 0.003110 -0.561612
O43   O     O_R   0.950090 0.999990 0.996890 -0.575029
O44   O     O_R   0.049910 0.999990 0.003110 -0.564753
C123  C     C_R   0.433825 0.499995 0.066255 0.815969
C124  C     C_R   0.566175 0.499995 0.933745 0.816058
C125  C     C_R   0.933800 0.999807 0.066285 0.829510
C126  C     C_R   0.066175 0.999900 0.933742 0.824224
Cu9   Cu    Cu3+1 0.499990 0.499910 0.062770 1.035092
Cu10  Cu    Cu3+1 0.500010 0.499910 0.937230 1.035123
Cu11  Cu    Cu3+1 0.999990 0.999910 0.062770 1.032773
Cu12  Cu    Cu3+1 0.000010 0.999910 0.937230 1.026504
O45   O     O_R   0.500000 0.549830 0.053110 -0.549508
O46   O     O_R   0.500000 0.549830 0.946890 -0.549495
O47   O     O_R   1.000000 0.049830 0.053110 -0.549333
O48   O     O_R   0.000000 0.049830 0.946890 -0.555106
C127  C     C_R   0.499998 0.566001 0.000024 0.927397
C128  C     C_R   0.000005 0.065988 0.000015 0.943720
C129  C     C_R   0.523819 0.622080 0.013581 0.292244
C130  C     C_R   0.476159 0.622058 0.986616 0.292302
C131  C     C_R   0.026282 0.122025 0.005173 0.289823
C132  C     C_R   0.973745 0.122008 0.994907 0.294693
C133  C     C_R   0.523129 0.657964 0.014481 -0.117259
C134  C     C_R   0.476850 0.657941 0.985756 -0.117381
C135  C     C_R   0.025808 0.157927 0.005484 -0.120356
C136  C     C_R   0.974232 0.157909 0.994596 -0.118777
H61   H     H_    0.541313 0.672123 0.024505 0.183069
H62   H     H_    0.458668 0.672084 0.975743 0.183039
H63   H     H_    0.045988 0.172046 0.008664 0.182506
H64   H     H_    0.954059 0.172014 0.991408 0.182958
C137  C     C_R   0.499992 0.675849 0.000123 0.055342
C138  C     C_R   0.000023 0.175892 0.000041 0.053064
C139  C     C_R   0.499990 0.603777 0.000081 -0.273791
C140  C     C_R   0.000008 0.103744 0.000048 -0.270932
C141  C     C_R   0.512823 0.731888 0.934658 -0.030750
C142  C     C_R   0.487180 0.731944 0.065552 -0.030879
C143  C     C_R   0.004682 0.232124 0.938512 -0.028327
C144  C     C_R   0.995373 0.232178 0.061554 -0.028589
C145  C     C_R   0.003826 0.268055 0.940172 -0.099862
C146  C     C_R   0.996215 0.268109 0.059895 -0.099504
C147  C     C_R   0.512195 0.767819 0.935913 -0.100562
C148  C     C_R   0.487808 0.767876 0.064270 -0.100239
H65   H     H_    0.007226 0.282381 0.893819 0.171992
H66   H     H_    0.992810 0.282476 0.106248 0.172123
H67   H     H_    0.521819 0.782135 0.886543 0.175460
H68   H     H_    0.478184 0.782235 0.113629 0.175675
C149  C     C_R   0.000015 0.285940 0.000035 0.150418
C150  C     C_R   0.500000 0.785737 0.000085 0.145814
C151  C     C_R   0.500001 0.713664 0.000111 -0.038739
C152  C     C_R   0.000029 0.213823 0.000034 -0.031419
C153  C     C_R   0.029532 0.341942 0.990309 0.316621
C154  C     C_R   0.970480 0.341910 0.009754 0.316407
C155  C     C_R   0.468532 0.841790 0.031666 0.315123
C156  C     C_R   0.531466 0.841795 0.968446 0.315582
C157  C     C_R   0.029031 0.377867 0.990672 -0.228386
C158  C     C_R   0.970973 0.377835 0.009375 -0.228163
C159  C     C_R   0.468995 0.877694 0.031997 -0.224751
C160  C     C_R   0.531001 0.877698 0.968067 -0.225953
H69   H     H_    0.051577 0.391797 0.983202 0.202751
H70   H     H_    0.948424 0.391742 0.016839 0.202831
H71   H     H_    0.444890 0.891493 0.056145 0.205891
H72   H     H_    0.555107 0.891500 0.943903 0.205178
C161  C     C_R   0.000000 0.395954 0.000017 -0.153862
C162  C     C_R   0.499998 0.895854 0.000020 -0.158439
C163  C     C_R   0.000009 0.323719 0.000034 -0.154198
C164  C     C_R   0.499999 0.823565 0.000068 -0.146253
C165  C     C_R   0.511345 0.377891 0.041296 -0.163756
C166  C     C_R   0.488682 0.377873 0.958495 -0.163838
C167  C     C_R   0.011489 0.877898 0.041064 -0.165748
C168  C     C_R   0.988566 0.877873 0.958712 -0.162709
H73   H     H_    0.520355 0.391318 0.073384 0.152393
H74   H     H_    0.479670 0.391287 0.926439 0.152331
H75   H     H_    0.020599 0.891331 0.072972 0.151675
H76   H     H_    0.979452 0.891286 0.926831 0.153118
C169  C     C_R   0.511628 0.342143 0.040749 -0.064107
C170  C     C_R   0.488404 0.342124 0.958968 -0.063846
C171  C     C_R   0.011780 0.842150 0.040511 -0.064373
C172  C     C_R   0.988285 0.842124 0.959200 -0.063751
H77   H     H_    0.520647 0.328431 0.072477 0.132438
H78   H     H_    0.479383 0.328397 0.927216 0.132420
H79   H     H_    0.020904 0.828442 0.072059 0.131864
H80   H     H_    0.979161 0.828394 0.927632 0.132374
C173  C     C_R   0.500016 0.324185 0.999843 0.189309
C174  C     C_R   0.000032 0.824189 0.999844 0.189927
C175  C     C_R   0.500010 0.396048 0.999919 -0.032755
C176  C     C_R   0.000021 0.896050 0.999912 -0.032702
C177  C     C_R   0.469473 0.268275 0.045170 -0.020591
C178  C     C_R   0.530540 0.268258 0.954498 -0.020786
C179  C     C_R   0.969558 0.768280 0.045613 -0.020809
C180  C     C_R   0.030482 0.768260 0.954080 -0.020919
C181  C     C_R   0.970146 0.732338 0.044833 -0.194085
C182  C     C_R   0.029887 0.732319 0.954891 -0.193892
C183  C     C_R   0.470062 0.232334 0.044408 -0.193691
C184  C     C_R   0.529948 0.232317 0.955303 -0.193517
H81   H     H_    0.947269 0.718341 0.081020 0.173064
H82   H     H_    0.052762 0.718305 0.918719 0.173132
H83   H     H_    0.447118 0.218342 0.080295 0.172964
H84   H     H_    0.552891 0.218310 0.919435 0.172967
C185  C     C_R   0.000015 0.714169 0.999873 0.048809
C186  C     C_R   0.500005 0.214164 0.999870 0.048909
C187  C     C_R   0.500008 0.286469 0.999828 -0.093565
C188  C     C_R   0.000023 0.786473 0.999839 -0.093725
C189  C     C_R   0.028784 0.657836 0.992359 -0.150019
C190  C     C_R   0.971237 0.657809 0.007478 -0.149752
C191  C     C_R   0.528690 0.157831 0.992844 -0.149815
C192  C     C_R   0.471318 0.157798 0.007010 -0.149615
H85   H     H_    0.051106 0.671116 0.987806 0.148361
H86   H     H_    0.948917 0.671066 0.012005 0.148372
H87   H     H_    0.550937 0.171111 0.988674 0.148265
H88   H     H_    0.449072 0.171049 0.011150 0.148403
C193  C     C_R   0.028880 0.622094 0.991778 -0.166527
C194  C     C_R   0.971132 0.622067 0.008128 -0.166108
C195  C     C_R   0.528792 0.122089 0.992253 -0.167219
C196  C     C_R   0.471211 0.122056 0.007681 -0.166059
H89   H     H_    0.051350 0.608662 0.986081 0.165951
H90   H     H_    0.948660 0.608615 0.013848 0.165751
H91   H     H_    0.551192 0.108656 0.986927 0.165209
H92   H     H_    0.448811 0.108598 0.013028 0.165760
C197  C     C_R   0.000004 0.603933 0.999972 -0.034065
C198  C     C_R   0.500001 0.103928 0.999987 -0.033815
C199  C     C_R   0.000012 0.676134 0.999901 0.113966
C200  C     C_R   0.500004 0.176128 0.999907 0.114141
N1    N     N_R   0.106925 0.464252 0.296387 0.130773
O49   O     O_R   0.121273 0.437383 0.257149 -0.330354
O50   O     O_R   0.080383 0.477662 0.295522 -0.392174
N2    N     N_R   0.893072 0.464319 0.703595 0.130764
O51   O     O_R   0.878725 0.437464 0.742812 -0.330223
O52   O     O_R   0.919608 0.477758 0.704484 -0.392254
N3    N     N_R   0.607339 0.947478 0.325258 0.138246
O53   O     O_R   0.619855 0.916569 0.311995 -0.326900
O54   O     O_R   0.584163 0.955745 0.307473 -0.363537
N4    N     N_R   0.393096 0.964255 0.703528 0.130448
O55   O     O_R   0.378769 0.937373 0.742665 -0.332779
O56   O     O_R   0.419621 0.977696 0.704461 -0.393446
N5    N     N_R   0.172165 0.531467 0.435564 0.116311
O57   O     O_R   0.197404 0.516173 0.438566 -0.331288
O58   O     O_R   0.158405 0.558331 0.475310 -0.332038
N6    N     N_R   0.827837 0.531383 0.564451 0.116325
O59   O     O_R   0.802595 0.516070 0.561446 -0.331041
O60   O     O_R   0.841600 0.558229 0.524719 -0.332345
N7    N     N_R   0.673348 0.054309 0.395495 0.125738
O61   O     O_R   0.700652 0.048328 0.401279 -0.326298
O62   O     O_R   0.658800 0.084240 0.414229 -0.324652
N8    N     N_R   0.327810 0.031419 0.564600 0.116473
O63   O     O_R   0.302575 0.016111 0.561560 -0.330505
O64   O     O_R   0.341557 0.058290 0.524942 -0.331943
N9    N     N_R   0.549654 0.604809 0.023775 0.139377
O65   O     O_R   0.566894 0.579495 0.982353 -0.364453
O66   O     O_R   0.559701 0.617650 0.066736 -0.315081
N10   N     N_R   0.450323 0.604766 0.976402 0.139391
O67   O     O_R   0.433086 0.579460 0.017788 -0.364452
O68   O     O_R   0.440272 0.617580 0.933464 -0.315295
N11   N     N_R   0.054157 0.104707 0.007822 0.136665
O69   O     O_R   0.069018 0.078615 0.966444 -0.374586
O70   O     O_R   0.068032 0.117981 0.043616 -0.313610
N12   N     N_R   0.945870 0.104672 0.992234 0.134743
O71   O     O_R   0.930994 0.078611 0.033622 -0.376723
O72   O     O_R   0.932012 0.117903 0.956410 -0.320093
C201  C     C_2   0.527673 0.714401 0.863990 0.877670
O73   O     O_2   0.526930 0.728561 0.813781 -0.556701
O74   O     O_R   0.543328 0.682306 0.853808 -0.746343
H93   H     H_    0.552437 0.673385 0.803362 0.353444
C202  C     C_2   0.472331 0.714517 0.136232 0.877951
O75   O     O_2   0.473073 0.728736 0.186431 -0.556276
O76   O     O_R   0.456680 0.682413 0.146437 -0.746303
H94   H     H_    0.447570 0.673537 0.196889 0.353486
C203  C     C_2   0.011570 0.214716 0.870929 0.869127
O77   O     O_2   0.002475 0.228153 0.831183 -0.552867
O78   O     O_R   0.029308 0.183582 0.851334 -0.744598
H95   H     H_    0.032404 0.174555 0.804156 0.353839
C204  C     C_2   0.988494 0.214828 0.129135 0.870115
O79   O     O_2   0.997591 0.228317 0.168872 -0.552481
O80   O     O_R   0.970762 0.183690 0.148739 -0.741893
H96   H     H_    0.967672 0.174707 0.195917 0.355255
N13   N     N_R   0.060222 0.324574 0.979652 0.138684
O81   O     O_R   0.080376 0.338891 0.000262 -0.317619
O82   O     O_R   0.070222 0.296401 0.942634 -0.327577
N14   N     N_R   0.939794 0.324508 0.020420 0.138872
O83   O     O_R   0.919632 0.338776 0.999818 -0.317074
O84   O     O_R   0.929806 0.296356 0.057435 -0.326269
N15   N     N_R   0.435952 0.824396 0.062418 0.132185
O85   O     O_R   0.431834 0.797184 0.032193 -0.323783
O86   O     O_R   0.409170 0.838072 0.115753 -0.322957
N16   N     N_R   0.564046 0.824408 0.937717 0.131964
O87   O     O_R   0.568165 0.797242 0.967980 -0.323799
O88   O     O_R   0.590827 0.838052 0.884361 -0.325415
C205  C     C_2   0.436538 0.285727 0.094463 0.847232
O89   O     O_2   0.409309 0.270654 0.114463 -0.575845
O90   O     O_R   0.436321 0.318897 0.119415 -0.760350
H97   H     H_    0.412305 0.327578 0.152532 0.345833
C206  C     C_2   0.563475 0.285693 0.905186 0.847732
O91   O     O_2   0.590703 0.270626 0.885178 -0.575455
O92   O     O_R   0.563694 0.318838 0.880222 -0.760142
H98   H     H_    0.587710 0.327510 0.847093 0.346104
C207  C     C_2   0.936697 0.785729 0.095364 0.847258
O93   O     O_2   0.909443 0.770609 0.116028 -0.575931
O94   O     O_R   0.936580 0.818949 0.119986 -0.761448
H99   H     H_    0.912607 0.827618 0.153475 0.344852
C208  C     C_2   0.063347 0.785689 0.904321 0.847181
O95   O     O_2   0.090599 0.770581 0.883706 -0.575907
O96   O     O_R   0.063469 0.818875 0.879640 -0.760599
H100  H     H_    0.087444 0.827534 0.846152 0.345822
C209  C     C_2   0.014321 0.567594 0.776020 0.845574
O97   O     O_2   0.018963 0.589898 0.732224 -0.560231
O98   O     O_R   0.016091 0.575433 0.837801 -0.782685
H101  H     H_    0.021412 0.600496 0.840324 0.339655
C210  C     C_2   0.986183 0.567645 0.223695 0.845534
O99   O     O_2   0.981710 0.589981 0.267393 -0.560420
O100  O     O_R   0.984469 0.575502 0.161882 -0.782897
H102  H     H_    0.979334 0.600603 0.159255 0.339511
C211  C     C_2   0.514038 0.067650 0.776295 0.842709
O101  O     O_2   0.518561 0.089976 0.732612 -0.560192
O102  O     O_R   0.515818 0.075494 0.838064 -0.783347
H103  H     H_    0.521045 0.100577 0.840669 0.339568
C212  C     C_2   0.486185 0.067632 0.223722 0.843135
O103  O     O_2   0.481734 0.089968 0.267406 -0.559231
O104  O     O_R   0.484416 0.075484 0.161968 -0.783559
H104  H     H_    0.479262 0.100581 0.159368 0.339803

loop_
_geom_bond_atom_site_label_1
_geom_bond_atom_site_label_2
_geom_bond_distance
_ccdc_geom_bond_type
C2    C98   1.467966 S    
C51   C55   1.403071 A    
O94   H99   1.013868 S    
C129  C133  1.400781 A    
C27   C31   1.549160 S    
N15   O86   1.301457 A    
C13   C17   1.537104 S    
C207  O93   1.223657 D    
C78   H46   1.083072 S    
O30   C119  1.293300 A    
C15   C19   1.537062 S    
C58   C62   1.404453 A    
O35   C122  1.297417 A    
C210  O99   1.221965 D    
C11   C39   1.534657 S    
C17   C29   1.538122 S    
C170  H78   1.083189 S    
Cu11  O47   1.959424 S    
C136  C138  1.397620 A    
C203  O78   1.398594 S    
C154  C163  1.418489 A    
C179  C207  1.494039 S    
O18   C113  1.294596 A    
C9    C13   1.551259 S    
C52   C56   1.402320 A    
C181  C185  1.400069 A    
C107  N7    1.440445 S    
C166  H74   1.082974 S    
C43   C63   1.404776 A    
C146  H66   1.084250 S    
C12   C24   1.539791 S    
O26   C116  1.285564 A    
C134  C137  1.396430 A    
C28   H12   1.110313 S    
C160  C162  1.401047 A    
C192  C200  1.406408 A    
C77   H45   1.083076 S    
O19   C114  1.295278 A    
C67   C71   1.395078 A    
C79   C83   1.395294 A    
C25   H9    1.110316 S    
O22   C116  1.284602 A    
N16   O88   1.301457 A    
C70   H42   1.082927 S    
C106  N6    1.438858 S    
N6    O59   1.301422 A    
N1    O50   1.300989 A    
C135  H63   1.083642 S    
C155  N15   1.440575 S    
C113  C161  1.475684 S    
C92   H56   1.083524 S    
C165  C175  1.405247 A    
C60   C64   1.404454 A    
C34   C38   1.535783 S    
O16   Cu4   1.970933 S    
C50   C54   1.402334 A    
C182  C185  1.400064 A    
C32   H16   1.110134 S    
O13   C5    1.285301 A    
O7    Cu4   1.955691 S    
C106  C110  1.416687 A    
O15   C7    1.285295 A    
C127  C139  1.474380 S    
O4    Cu2   1.956083 S    
C149  C163  1.474478 S    
C189  H85   1.082581 S    
C190  C199  1.406367 A    
C150  C164  1.476367 S    
C180  C188  1.421118 A    
O9    C5    1.286475 A    
C171  C174  1.400544 A    
C22   C26   1.540809 S    
O24   Cu8   1.970379 S    
C102  H58   1.084138 S    
C69   H41   1.082929 S    
N14   O84   1.301198 A    
O27   Cu8   1.971861 S    
C201  O73   1.223480 D    
O8    Cu4   1.955726 S    
C72   C76   1.405554 A    
C42   C62   1.404206 A    
O39   C125  1.299347 A    
N11   O69   1.300724 A    
C70   C74   1.405568 A    
C90   C110  1.404989 A    
C55   H31   1.083143 S    
C94   C98   1.412235 A    
C133  C137  1.396449 A    
C121  C175  1.471788 S    
C148  C150  1.395861 A    
O3    Cu2   1.956110 S    
C44   H24   1.083079 S    
C29   C33   1.547478 S    
C43   C47   1.395911 A    
C202  O75   1.223482 D    
C31   C35   1.547482 S    
O46   C127  1.300211 A    
C32   C36   1.547536 S    
C120  C198  1.471161 S    
N13   O81   1.301509 A    
C167  C171  1.395267 A    
C67   C87   1.404861 A    
O35   Cu11  1.958827 S    
C21   C25   1.540874 S    
C68   C88   1.402460 A    
C206  O92   1.398264 S    
C23   C27   1.540868 S    
C212  O103  1.221968 D    
O3    C3    1.294794 A    
C130  N10   1.438301 S    
C102  C106  1.402355 A    
C33   C37   1.535822 S    
C20   C24   1.529374 S    
C178  C206  1.493873 S    
C69   C73   1.405575 A    
C13   C33   1.547065 S    
O47   C128  1.300070 A    
N3    O53   1.301338 A    
C61   C123  1.472411 S    
C15   C35   1.547066 S    
C16   C36   1.547174 S    
C89   H53   1.083521 S    
C104  H60   1.084134 S    
C180  C182  1.402948 A    
N10   O67   1.301074 A    
C128  C140  1.473592 S    
C179  C181  1.402961 A    
O48   C128  1.299919 A    
C206  O91   1.223637 D    
C23   C211  1.497904 S    
C195  H91   1.083078 S    
O90   H97   1.013858 S    
Cu10  O46   1.959089 S    
C191  C195  1.395040 A    
C204  O79   1.223408 D    
C101  C105  1.402360 A    
C9    C21   1.539830 S    
C208  O95   1.223657 D    
C177  C187  1.421022 A    
C65   H37   1.083229 S    
C11   H7    1.110361 S    
O33   Cu9   1.958827 S    
C177  C205  1.493881 S    
C36   C40   1.535789 S    
C146  C149  1.395135 A    
C168  C176  1.405217 A    
O38   Cu10  1.957309 S    
C22   C210  1.497921 S    
C179  C188  1.421131 A    
O78   H95   1.013796 S    
C195  C198  1.402639 A    
C157  H69   1.083255 S    
C143  C152  1.422977 A    
C48   H28   1.083231 S    
C68   C72   1.396177 A    
C59   C63   1.404856 A    
Cu11  Cu12  2.686693 S    
C29   H13   1.110138 S    
C177  C183  1.402921 A    
N8    O63   1.301417 A    
C81   H49   1.083244 S    
O17   Cu5   1.958964 S    
O5    Cu3   1.955691 S    
C75   C79   1.402081 A    
C84   H52   1.083242 S    
C33   H17   1.110110 S    
C1    C97   1.467965 S    
C14   C18   1.537137 S    
C142  C202  1.490931 S    
O27   C117  1.285604 A    
C171  H79   1.083184 S    
C25   C37   1.534878 S    
C58   H34   1.083110 S    
C183  H83   1.083278 S    
C72   H44   1.082931 S    
C4    C100  1.467985 S    
C89   C93   1.401496 A    
C190  C194  1.395032 A    
C18   C30   1.538123 S    
O23   C117  1.284546 A    
C205  O90   1.398265 S    
O7    C3    1.294591 A    
C10   C14   1.551240 S    
O13   Cu3   1.970595 S    
C196  H92   1.083077 S    
Cu8   O32   1.959394 S    
C56   C60   1.395877 A    
O34   C121  1.297518 A    
C28   C40   1.534845 S    
C19   C31   1.538155 S    
C189  C199  1.406370 A    
O41   Cu10  1.956343 S    
C83   C87   1.404552 A    
O5    C1    1.292710 A    
O40   Cu12  1.957309 S    
O20   Cu8   1.958938 S    
O28   C118  1.285606 A    
C67   H39   1.083057 S    
O96   H100  1.013873 S    
O8    C4    1.292702 A    
N2    O52   1.300989 A    
C51   C87   1.476049 S    
C145  C149  1.395129 A    
O15   Cu4   1.970595 S    
C108  N8    1.438861 S    
C167  C176  1.405225 A    
C9    C37   1.534673 S    
C105  N5    1.438859 S    
C83   H51   1.083027 S    
C19   C117  1.465219 S    
C73   C109  1.483550 S    
C178  C187  1.421021 A    
C92   C96   1.401475 A    
O4    C4    1.292717 A    
C185  C199  1.484447 S    
C60   H36   1.083110 S    
C30   H14   1.110133 S    
C122  C176  1.471722 S    
C9    H5    1.110429 S    
O14   C6    1.285403 A    
C34   H18   1.110102 S    
C11   C23   1.539788 S    
C174  C188  1.472035 S    
Cu9   O45   1.959424 S    
C105  C109  1.416690 A    
C26   C38   1.534896 S    
C94   N2    1.439766 S    
C142  C151  1.422213 A    
C131  N11   1.438502 S    
C178  C184  1.402934 A    
C108  C112  1.416695 A    
O10   C6    1.286376 A    
C114  C162  1.478217 S    
C191  C200  1.406419 A    
C80   C84   1.396136 A    
C203  O77   1.223407 D    
C153  C163  1.418471 A    
C182  H82   1.083299 S    
C81   C85   1.402343 A    
C101  H57   1.084136 S    
C136  H64   1.083643 S    
C16   C20   1.537109 S    
C45   H25   1.083232 S    
C93   N1    1.439770 S    
N9    O66   1.301378 A    
C71   C75   1.401262 A    
C132  C140  1.418757 A    
C47   H27   1.083083 S    
C133  H61   1.083664 S    
O43   Cu12  1.956343 S    
C100  C104  1.400629 A    
C165  H73   1.082975 S    
C91   C111  1.401028 A    
C44   C48   1.396970 A    
C47   C51   1.403844 A    
C92   C112  1.404970 A    
C41   H21   1.083080 S    
C172  H80   1.083179 S    
C64   C126  1.472428 S    
C130  C134  1.400751 A    
C43   H23   1.082934 S    
C96   N4    1.439751 S    
C207  O94   1.398240 S    
Cu9   Cu10  2.686693 S    
N6    O60   1.301433 A    
N1    O49   1.301442 A    
C57   C61   1.404452 A    
Cu7   Cu8   2.667718 S    
O31   C120  1.293242 A    
Cu12  O48   1.959089 S    
O17   C113  1.294625 A    
C160  H72   1.083039 S    
C75   C111  1.472375 S    
C211  O102  1.395926 S    
C103  C107  1.401629 A    
C156  C164  1.417917 A    
C53   C57   1.395932 A    
N7    O61   1.301350 A    
C14   C34   1.547122 S    
C169  C173  1.400525 A    
C44   C64   1.404173 A    
C55   C59   1.394513 A    
O44   C126  1.299860 A    
C104  C108  1.402361 A    
C90   H54   1.083521 S    
C50   C86   1.473390 S    
C209  O98   1.395947 S    
O42   Cu9   1.956347 S    
C91   C95   1.399950 A    
C98   C102  1.400629 A    
C192  H88   1.082562 S    
C68   H40   1.083233 S    
C41   C45   1.396951 A    
C10   C22   1.539807 S    
C153  C157  1.402242 A    
C36   H20   1.110124 S    
C46   H26   1.083233 S    
C24   C212  1.497930 S    
C210  O100  1.395956 S    
O12   Cu2   1.970810 S    
C196  C198  1.402647 A    
C158  H70   1.083253 S    
C155  C159  1.401523 A    
O104  H104  1.013847 S    
C186  C200  1.484517 S    
C156  C160  1.401509 A    
O1    C1    1.292703 A    
O20   C114  1.295263 A    
C194  H90   1.083069 S    
C25   C29   1.549141 S    
C63   C125  1.474310 S    
C19   C23   1.529422 S    
C42   H22   1.083079 S    
C13   H1    1.110118 S    
C28   C32   1.549139 S    
O33   C121  1.297447 A    
C144  C204  1.489270 S    
C15   H3    1.110119 S    
O100  H102  1.013851 S    
O29   C119  1.293288 A    
O39   Cu11  1.957309 S    
C190  H86   1.082589 S    
C131  C135  1.401370 A    
Cu5   Cu6   2.667718 S    
C90   C94   1.401493 A    
C17   C21   1.529453 S    
C184  H84   1.083276 S    
O37   Cu9   1.957309 S    
C156  N16   1.440573 S    
C183  C186  1.400120 A    
O23   Cu7   1.970379 S    
C172  C174  1.400562 A    
O28   Cu7   1.971860 S    
O45   C127  1.300278 A    
C74   C78   1.405395 A    
N16   O87   1.301344 A    
C11   C15   1.551220 S    
C54   C58   1.395929 A    
C12   C16   1.551245 S    
C56   H32   1.083280 S    
N10   O68   1.301380 A    
C18   C116  1.465257 S    
C73   C77   1.405397 A    
C193  H89   1.083069 S    
C82   C86   1.402347 A    
C5    C37   1.462508 S    
C170  C173  1.400549 A    
C76   C80   1.405401 A    
C65   C69   1.396197 A    
C169  H77   1.083189 S    
O6    C2    1.292713 A    
N5    O57   1.301418 A    
O76   H94   1.013812 S    
C119  C197  1.471294 S    
C144  C152  1.422975 A    
C3    C99   1.474968 S    
C42   C46   1.396946 A    
C145  H65   1.084250 S    
O32   C120  1.293273 A    
O43   C125  1.300402 A    
C173  C187  1.472054 S    
N5    O58   1.301434 A    
N12   O71   1.300677 A    
C141  C147  1.402644 A    
C27   C39   1.534876 S    
C142  C148  1.402668 A    
C143  C145  1.402857 A    
O36   Cu12  1.959170 S    
N4    O56   1.300989 A    
O26   Cu5   1.971860 S    
O34   Cu10  1.959170 S    
O2    Cu1   1.956083 S    
C21   C209  1.497915 S    
O10   Cu1   1.970810 S    
N8    O64   1.301431 A    
C130  C139  1.419413 A    
O19   Cu7   1.958964 S    
C8    C40   1.462452 S    
C62   C124  1.472413 S    
N14   O83   1.301509 A    
C192  C196  1.395016 A    
N4    O55   1.301442 A    
N15   O85   1.301341 A    
C201  O74   1.398528 S    
C10   H6    1.110434 S    
C167  H75   1.082979 S    
C168  H76   1.082970 S    
C141  C201  1.490934 S    
Cu5   O29   1.959367 S    
C30   C34   1.547531 S    
C84   C88   1.402335 A    
N12   O72   1.301406 A    
O80   H96   1.013797 S    
O42   C124  1.299795 A    
C78   C82   1.396129 A    
C80   H48   1.083074 S    
C205  O89   1.223643 D    
C77   C81   1.396130 A    
O74   H93   1.013812 S    
C35   H19   1.110108 S    
C79   H47   1.083266 S    
C202  O76   1.398526 S    
O22   Cu6   1.970379 S    
C147  H67   1.084212 S    
C71   H43   1.083274 S    
N13   O82   1.301193 A    
C95   N3    1.437572 S    
C134  H62   1.083667 S    
C7    C39   1.462546 S    
C153  N13   1.441535 S    
C212  O104  1.395963 S    
C6    C38   1.462510 S    
C193  C197  1.402700 A    
C147  C150  1.395851 A    
O16   C8    1.285298 A    
N7    O62   1.301475 A    
C137  C151  1.475895 S    
C27   H11   1.110316 S    
C26   H10   1.110318 S    
C107  C111  1.413277 A    
C148  H68   1.084209 S    
C131  C140  1.418751 A    
C132  C136  1.401319 A    
C168  C172  1.395298 A    
O11   C7    1.286489 A    
C132  N12   1.438483 S    
O12   C8    1.286467 A    
C65   C85   1.402452 A    
O1    Cu1   1.956110 S    
O9    Cu1   1.971144 S    
C74   C110  1.483538 S    
O24   C118  1.284574 A    
C204  O80   1.398588 S    
C20   C32   1.538177 S    
C103  H59   1.083580 S    
C208  O96   1.398242 S    
C53   H29   1.083280 S    
C35   C39   1.535837 S    
Cu6   O30   1.959394 S    
C16   H4    1.110121 S    
C89   C109  1.404990 A    
O92   H98   1.013852 S    
Cu7   O31   1.959367 S    
C141  C151  1.422214 A    
O11   Cu2   1.971144 S    
C99   C103  1.404160 A    
C95   C99   1.414606 A    
C129  C139  1.419418 A    
C158  C161  1.399893 A    
C45   C49   1.403041 A    
C49   C85   1.473375 S    
C66   H38   1.083232 S    
C91   H55   1.084063 S    
N11   O70   1.301408 A    
C194  C197  1.402698 A    
C52   C88   1.473372 S    
C129  N9    1.438297 S    
O6    Cu3   1.955726 S    
C135  C138  1.397642 A    
C97   C101  1.400627 A    
C155  C164  1.417922 A    
O21   C115  1.284597 A    
C12   H8    1.110437 S    
N3    O54   1.301595 A    
C143  C203  1.489277 S    
N9    O65   1.301078 A    
C10   C38   1.534695 S    
C166  C170  1.395296 A    
O25   C115  1.285574 A    
C41   C61   1.404204 A    
C165  C169  1.395253 A    
C20   C118  1.465291 S    
C154  C158  1.402268 A    
C76   C112  1.483523 S    
C159  H71   1.083038 S    
O25   Cu6   1.971861 S    
O40   C126  1.298908 A    
O2    C2    1.292700 A    
C31   H15   1.110136 S    
C138  C152  1.480414 S    
C48   C52   1.403057 A    
C26   C30   1.549139 S    
C93   C97   1.412238 A    
C66   C86   1.402457 A    
C14   H2    1.110117 S    
O14   Cu3   1.970933 S    
C144  C146  1.402864 A    
O36   C122  1.297518 A    
C166  C175  1.405246 A    
O41   C123  1.299796 A    
C57   H33   1.083114 S    
Cu1   Cu3   2.670374 S    
O37   C123  1.298978 A    
C18   C22   1.529399 S    
Cu2   Cu4   2.670374 S    
C159  C162  1.401049 A    
C12   C40   1.534780 S    
C154  N14   1.441536 S    
O102  H103  1.013849 S    
C191  H87   1.082563 S    
C211  O101  1.221971 D    
C184  C186  1.400120 A    
C181  H81   1.083293 S    
N2    O51   1.301441 A    
C66   C70   1.396192 A    
C54   H30   1.083278 S    
O21   Cu5   1.970379 S    
O38   C124  1.298979 A    
O18   Cu6   1.958938 S    
O44   Cu11  1.956347 S    
C189  C193  1.395038 A    
O98   H101  1.013853 S    
C96   C100  1.412241 A    
C17   C115  1.465255 S    
C209  O97   1.221967 D    
C82   H50   1.083242 S    
C157  C161  1.399904 A    
C59   H35   1.082931 S    
C180  C208  1.494014 S    
C46   C50   1.403045 A    
C49   C53   1.402332 A    
C24   C28   1.540852 S    
