data_mof_unit_31635.cif
_audit_creation_date              2012-12-11T15:22:39-0500
_audit_creation_method            fapswitch 2.2
_symmetry_space_group_name_H-M    P1
_symmetry_Int_Tables_number       1
_space_group_crystal_system       triclinic
_cell_length_a                    22.479397
_cell_length_b                    12.989951
_cell_length_c                    27.053751
_cell_angle_alpha                 89.999734
_cell_angle_beta                  90.806764
_cell_angle_gamma                 89.999873
_cell_volume                      7899.08167476

loop_
_atom_site_label
_atom_site_type_symbol
_atom_type_description
_atom_site_fract_x
_atom_site_fract_y
_atom_site_fract_z
_atom_type_partial_charge
C1    C     C_R   0.719458 0.343097 0.177458 0.559723
C2    C     C_R   0.482304 0.256013 0.896827 -0.103602
C3    C     C_R   0.008806 0.585603 0.555163 -0.118965
C4    C     C_R   0.503588 0.082706 0.394477 -0.128176
C5    C     C_R   0.496414 0.082708 0.605524 -0.128176
C6    C     C_R   0.003588 0.582706 0.394477 -0.128177
C7    C     C_R   0.996413 0.582707 0.605524 -0.128179
C8    C     C_R   0.740306 0.956245 0.371811 0.024557
C9    C     C_R   0.259695 0.956248 0.628189 0.024556
C10   C     C_R   0.240304 0.456249 0.371812 0.024556
C11   C     C_R   0.759698 0.456253 0.628187 0.024556
C12   C     C_R   0.690267 0.920489 0.397121 -0.126288
C13   C     C_R   0.017710 0.756029 0.103176 -0.103648
C14   C     C_R   0.309734 0.920494 0.602878 -0.126287
C15   C     C_R   0.190263 0.420503 0.397123 -0.126288
C16   C     C_R   0.809741 0.420522 0.602874 -0.126288
C17   C     C_R   0.693395 0.904362 0.447632 -0.122885
C18   C     C_R   0.306606 0.904367 0.552367 -0.122886
C19   C     C_R   0.193391 0.404377 0.447634 -0.122887
C20   C     C_R   0.806613 0.404396 0.552364 -0.122890
C21   C     C_R   0.747025 0.920715 0.473421 0.037994
C22   C     C_R   0.252976 0.920719 0.526579 0.037992
C23   C     C_R   0.247023 0.420722 0.473422 0.037993
C24   C     C_R   0.982296 0.756020 0.896826 -0.103620
C25   C     C_R   0.752979 0.420726 0.526577 0.037991
C26   C     C_R   0.798463 0.947230 0.447426 -0.120532
C27   C     C_R   0.201537 0.947233 0.552574 -0.120533
C28   C     C_R   0.298461 0.447228 0.447426 -0.120534
C29   C     C_R   0.701539 0.447219 0.552574 -0.120533
C30   C     C_R   0.795032 0.965695 0.396851 -0.130181
C31   C     C_R   0.204969 0.965696 0.603149 -0.130183
C32   C     C_R   0.295031 0.465691 0.396851 -0.130186
C33   C     C_R   0.704970 0.465683 0.603150 -0.130188
C34   C     C_R   0.783803 0.979662 0.555966 -0.120018
C35   C     C_R   0.507469 0.257443 0.051871 0.024472
C36   C     C_R   0.216197 0.979665 0.444033 -0.120018
C37   C     C_R   0.283805 0.479664 0.555967 -0.120019
C38   C     C_R   0.716190 0.479661 0.444033 -0.120019
C39   C     C_R   0.721146 0.346881 0.321837 0.540201
C40   C     C_R   0.278854 0.346881 0.678163 0.540202
C41   C     C_R   0.221146 0.846880 0.321837 0.540199
C42   C     C_R   0.778854 0.846880 0.678163 0.540200
C43   C     C_R   0.789956 0.964396 0.606636 -0.129727
C44   C     C_R   0.210045 0.964398 0.393363 -0.129727
C45   C     C_R   0.289957 0.464397 0.606636 -0.129725
C46   C     C_R   0.492544 0.257430 0.948135 0.024504
C47   C     C_R   0.710038 0.464394 0.393364 -0.129725
C48   C     C_R   0.721159 0.820670 0.601245 -0.126329
C49   C     C_R   0.278840 0.820668 0.398755 -0.126329
C50   C     C_R   0.221155 0.320678 0.601247 -0.126330
C51   C     C_R   0.778850 0.320688 0.398752 -0.126330
C52   C     C_R   0.716129 0.834379 0.550647 -0.123389
C53   C     C_R   0.283870 0.834379 0.449354 -0.123389
C54   C     C_R   0.216125 0.334389 0.550648 -0.123389
C55   C     C_R   0.783881 0.334399 0.449350 -0.123388
C56   C     C_R   0.748800 0.911929 0.527408 0.037551
C57   C     C_R   0.007465 0.757441 0.051869 0.024477
C58   C     C_R   0.251200 0.911931 0.472592 0.037551
C59   C     C_R   0.248798 0.411936 0.527409 0.037552
C60   C     C_R   0.751202 0.411939 0.472590 0.037552
C61   C     C_R   0.760342 0.882344 0.629191 0.025556
C62   C     C_R   0.239658 0.882344 0.370808 0.025556
C63   C     C_R   0.260341 0.382348 0.629192 0.025556
C64   C     C_R   0.739658 0.382350 0.370807 0.025556
C65   C     C_R   0.554705 0.158876 0.321794 0.540805
C66   C     C_R   0.445294 0.158877 0.678206 0.540807
C67   C     C_R   0.054706 0.658876 0.321794 0.540806
C68   C     C_R   0.992537 0.757435 0.948134 0.024492
C69   C     C_R   0.945294 0.658876 0.678206 0.540805
C70   C     C_R   0.731685 0.002250 0.323033 0.544315
C71   C     C_R   0.268315 0.002250 0.676966 0.544317
C72   C     C_R   0.231684 0.502251 0.323034 0.544312
C73   C     C_R   0.768316 0.502251 0.676966 0.544313
C74   C     C_R   0.516072 0.069079 0.102364 -0.131238
C75   C     C_R   0.483814 0.069055 0.897669 -0.131233
C76   C     C_R   0.016106 0.569073 0.102354 -0.131236
C77   C     C_R   0.983848 0.569063 0.897659 -0.131235
C78   C     C_R   0.506569 0.069059 0.051494 0.014613
C79   C     C_R   0.503365 0.163431 0.025870 0.061409
C80   C     C_R   0.493298 0.069044 0.948540 0.014594
C81   C     C_R   0.006609 0.569056 0.051484 0.014608
C82   C     C_R   0.993338 0.569050 0.948530 0.014601
C83   C     C_R   0.496730 0.975757 0.974412 -0.137395
C84   C     C_R   0.503058 0.975765 0.025636 -0.137401
C85   C     C_R   0.996794 0.475761 0.974398 -0.137396
C86   C     C_R   0.003122 0.475764 0.025622 -0.137399
C87   C     C_3   0.891581 0.006906 0.889972 -0.123235
C88   C     C_3   0.108438 0.006940 0.110052 -0.123251
C89   C     C_3   0.391619 0.506860 0.890037 -0.123228
C90   C     C_R   0.496572 0.163423 0.974150 0.061410
C91   C     C_3   0.608432 0.506934 0.110043 -0.123267
C92   C     C_3   0.848527 0.123321 0.027537 -0.159151
C93   C     C_3   0.151470 0.123329 0.972458 -0.159157
C94   C     C_3   0.348524 0.623305 0.027530 -0.159149
C95   C     C_3   0.651474 0.623335 0.972459 -0.159153
C96   C     C_R   0.003383 0.663430 0.025864 0.061410
C97   C     C_R   0.280543 0.343093 0.822543 0.559739
C98   C     C_R   0.996590 0.663427 0.974144 0.061410
C99   C     C_R   0.503747 0.350683 0.025737 -0.131054
C100  C     C_R   0.496342 0.350676 0.974256 -0.131068
C101  C     C_R   0.003719 0.850683 0.025739 -0.131056
C102  C     C_R   0.996310 0.850680 0.974258 -0.131059
C103  C     C_R   0.736019 0.973808 0.127226 -0.012021
C104  C     C_R   0.263984 0.973814 0.872775 -0.012024
C105  C     C_R   0.236020 0.473802 0.127228 -0.012021
C106  C     C_R   0.763983 0.473813 0.872775 -0.012023
C107  C     C_R   0.764012 0.043308 0.095525 -0.104627
C108  C     C_R   0.219458 0.843098 0.177458 0.559720
C109  C     C_R   0.235987 0.043314 0.904474 -0.104630
C110  C     C_R   0.264013 0.543297 0.095524 -0.104631
C111  C     C_R   0.735989 0.543314 0.904474 -0.104629
C112  C     C_R   0.765266 0.025850 0.044736 0.280922
C113  C     C_R   0.234735 0.025863 0.955264 0.280922
C114  C     C_R   0.265266 0.525834 0.044735 0.280927
C115  C     C_R   0.734736 0.525862 0.955264 0.280922
C116  C     C_R   0.736504 0.937879 0.025412 0.046589
C117  C     C_R   0.263502 0.937899 0.974591 0.046601
C118  C     C_R   0.236505 0.437860 0.025414 0.046592
C119  C     C_R   0.780543 0.843095 0.822543 0.559724
C120  C     C_R   0.763501 0.437896 0.974590 0.046597
C121  C     C_R   0.706732 0.869795 0.056858 -0.158389
C122  C     C_R   0.293278 0.869816 0.943147 -0.158389
C123  C     C_R   0.206734 0.369779 0.056862 -0.158398
C124  C     C_R   0.793275 0.369811 0.943146 -0.158389
C125  C     C_R   0.553541 0.157115 0.177488 0.552176
C126  C     C_R   0.446451 0.157112 0.822517 0.552173
C127  C     C_R   0.053544 0.657114 0.177486 0.552175
C128  C     C_R   0.946453 0.657113 0.822515 0.552176
C129  C     C_R   0.706163 0.888039 0.107696 -0.149972
C130  C     C_R   0.474776 0.161855 0.871912 -0.007107
C131  C     C_R   0.293846 0.888054 0.892308 -0.149980
C132  C     C_R   0.206165 0.388030 0.107699 -0.149980
C133  C     C_R   0.793842 0.388050 0.892308 -0.149980
C134  C     C_R   0.697379 0.889266 0.941096 -0.132880
C135  C     C_R   0.302626 0.889275 0.058907 -0.132894
C136  C     C_R   0.197379 0.389255 0.941097 -0.132872
C137  C     C_R   0.802626 0.389275 0.058907 -0.132887
C138  C     C_R   0.708385 0.868692 0.891244 -0.190563
C139  C     C_R   0.291619 0.868696 0.108758 -0.190561
C140  C     C_R   0.208386 0.368687 0.891245 -0.190568
C141  C     C_R   0.525189 0.161876 0.128104 -0.007145
C142  C     C_R   0.791619 0.368696 0.108758 -0.190563
C143  C     C_R   0.814013 0.900408 0.906017 0.276923
C144  C     C_R   0.185992 0.900429 0.093986 0.276917
C145  C     C_R   0.314016 0.400382 0.906020 0.276938
C146  C     C_R   0.685992 0.400427 0.093985 0.276922
C147  C     C_R   0.802953 0.912127 0.955873 -0.040848
C148  C     C_R   0.197053 0.912153 0.044130 -0.040843
C149  C     C_R   0.302955 0.412094 0.955877 -0.040865
C150  C     C_R   0.697053 0.412151 0.044130 -0.040843
C151  C     C_R   0.744983 0.911474 0.973371 0.033321
C152  C     C_R   0.974786 0.661862 0.871908 -0.007119
C153  C     C_R   0.255023 0.911494 0.026632 0.033309
C154  C     C_R   0.244984 0.411449 0.973374 0.033333
C155  C     C_R   0.755022 0.411492 0.026632 0.033314
C156  C     C_R   0.766668 0.874708 0.873237 0.026697
C157  C     C_R   0.233336 0.874718 0.126765 0.026692
C158  C     C_R   0.266670 0.374697 0.873239 0.026717
C159  C     C_R   0.733336 0.374717 0.126765 0.026692
C160  C     C_R   0.528447 0.168741 0.371145 0.022996
C161  C     C_R   0.471553 0.168741 0.628855 0.022995
C162  C     C_R   0.028447 0.668741 0.371145 0.022996
C163  C     C_R   0.025200 0.661870 0.128099 -0.007135
C164  C     C_R   0.971552 0.668741 0.628855 0.022995
C165  C     C_R   0.537611 0.259508 0.398504 -0.126165
C166  C     C_R   0.462387 0.259508 0.601495 -0.126166
C167  C     C_R   0.037610 0.759508 0.398504 -0.126165
C168  C     C_R   0.962387 0.759508 0.601495 -0.126165
C169  C     C_R   0.525962 0.261945 0.448937 -0.120893
C170  C     C_R   0.474036 0.261945 0.551062 -0.120893
C171  C     C_R   0.025961 0.761945 0.448937 -0.120891
C172  C     C_R   0.974035 0.761945 0.551062 -0.120891
C173  C     C_R   0.730612 0.004157 0.178854 0.545735
C174  C     C_R   0.517714 0.256034 0.103178 -0.103661
C175  C     C_R   0.269388 0.004158 0.821147 0.545734
C176  C     C_R   0.230613 0.504156 0.178854 0.545735
C177  C     C_R   0.769388 0.504157 0.821147 0.545733
C178  C     C_R   0.504113 0.174147 0.472903 0.036371
C179  C     C_R   0.495887 0.174147 0.527096 0.036370
C180  C     C_R   0.004112 0.674147 0.472903 0.036371
C181  C     C_R   0.995886 0.674147 0.527096 0.036371
C182  C     C_R   0.491195 0.085602 0.444837 -0.118964
C183  C     C_R   0.508807 0.085604 0.555164 -0.118964
C184  C     C_R   0.991194 0.585602 0.444837 -0.118965
Cr1   Cr    Cr6+3 0.756570 0.170940 0.251190 1.006483
Cr2   Cr    Cr6+3 0.374010 0.036240 0.749520 1.010225
Cr3   Cr    Cr6+3 0.125990 0.536240 0.250480 1.010223
Cr4   Cr    Cr6+3 0.874010 0.536240 0.749520 1.010222
Cr5   Cr    Cr6+3 0.243430 0.170940 0.748810 1.006482
Cr6   Cr    Cr6+3 0.256570 0.670940 0.251190 1.006483
Cr7   Cr    Cr6+3 0.743430 0.670940 0.748810 1.006485
Cr8   Cr    Cr6+3 0.623740 0.299110 0.249580 1.028885
Cr9   Cr    Cr6+3 0.376260 0.299110 0.750420 1.028922
Cr10  Cr    Cr6+3 0.123740 0.799110 0.249580 1.028886
Cr11  Cr    Cr6+3 0.876260 0.799110 0.750420 1.028897
Cr12  Cr    Cr6+3 0.625990 0.036240 0.250480 1.010227
H1    H     H_    0.479096 0.995773 0.878820 0.130529
H2    H     H_    0.317452 0.835731 0.868357 0.120224
H3    H     H_    0.564654 0.510502 0.128362 0.116709
H4    H     H_    0.874726 0.054968 0.039927 0.097491
H5    H     H_    0.848326 0.182845 0.056906 0.121809
H6    H     H_    0.871747 0.156894 0.995460 0.114763
H7    H     H_    0.125273 0.054974 0.960068 0.097492
H8    H     H_    0.151671 0.182850 0.943087 0.121814
H9    H     H_    0.128247 0.156904 0.004533 0.114760
H10   H     H_    0.374725 0.554956 0.039925 0.097482
H11   H     H_    0.348324 0.682838 0.056895 0.121809
H12   H     H_    0.371743 0.656867 0.995450 0.114767
H13   H     H_    0.182562 0.335709 0.131654 0.120216
H14   H     H_    0.625275 0.554982 0.960070 0.097481
H15   H     H_    0.651676 0.682856 0.943088 0.121814
H16   H     H_    0.628253 0.656912 0.004534 0.114765
H17   H     H_    0.817447 0.335726 0.868355 0.120217
H18   H     H_    0.557444 0.326768 0.381745 0.132517
H19   H     H_    0.442552 0.326767 0.618254 0.132518
H20   H     H_    0.057444 0.826768 0.381745 0.132518
H21   H     H_    0.942553 0.826767 0.618254 0.132518
H22   H     H_    0.527326 0.017715 0.537983 0.100859
H23   H     H_    0.472677 0.017712 0.462019 0.100858
H24   H     H_    0.027325 0.517714 0.537982 0.100857
H25   H     H_    0.520743 0.995801 0.121225 0.130498
H26   H     H_    0.972676 0.517712 0.462018 0.100855
H27   H     H_    0.504008 0.011820 0.625727 0.122391
H28   H     H_    0.495996 0.011817 0.374275 0.122389
H29   H     H_    0.004006 0.511819 0.625726 0.122389
H30   H     H_    0.995995 0.511818 0.374274 0.122388
H31   H     H_    0.536743 0.331105 0.469526 0.098898
H32   H     H_    0.463253 0.331103 0.530473 0.098900
H33   H     H_    0.036743 0.831104 0.469526 0.098900
H34   H     H_    0.963253 0.831103 0.530473 0.098900
H35   H     H_    0.647337 0.912774 0.378796 0.133201
H36   H     H_    0.979146 0.495782 0.878807 0.130519
H37   H     H_    0.352664 0.912780 0.621204 0.133204
H38   H     H_    0.147333 0.412794 0.378798 0.133205
H39   H     H_    0.852673 0.412825 0.621197 0.133213
H40   H     H_    0.807829 0.042305 0.538947 0.100690
H41   H     H_    0.192173 0.042309 0.461051 0.100689
H42   H     H_    0.307833 0.542304 0.538948 0.100687
H43   H     H_    0.692158 0.542296 0.461052 0.100686
H44   H     H_    0.820118 0.013175 0.627646 0.121424
H45   H     H_    0.179884 0.013177 0.372352 0.121422
H46   H     H_    0.320122 0.513172 0.627646 0.121428
H47   H     H_    0.020791 0.495794 0.121211 0.130507
H48   H     H_    0.679870 0.513164 0.372354 0.121426
H49   H     H_    0.493912 0.902809 0.955073 0.092957
H50   H     H_    0.505818 0.902822 0.044985 0.092947
H51   H     H_    0.993994 0.402814 0.955056 0.092954
H52   H     H_    0.005900 0.402820 0.044967 0.092951
H53   H     H_    0.652990 0.884446 0.466743 0.098748
H54   H     H_    0.347011 0.884452 0.533256 0.098749
H55   H     H_    0.152985 0.384469 0.466746 0.098749
H56   H     H_    0.847020 0.384499 0.533250 0.098752
H57   H     H_    0.689117 0.780655 0.529525 0.098907
H58   H     H_    0.685286 0.801542 0.042191 0.139793
H59   H     H_    0.310882 0.780654 0.470476 0.098907
H60   H     H_    0.189109 0.280668 0.529527 0.098905
H61   H     H_    0.810900 0.280684 0.470472 0.098905
H62   H     H_    0.698050 0.756217 0.617632 0.134901
H63   H     H_    0.301948 0.756213 0.382369 0.134899
H64   H     H_    0.198044 0.256228 0.617633 0.134896
H65   H     H_    0.801964 0.256243 0.382365 0.134891
H66   H     H_    0.840838 0.956802 0.466409 0.099767
H67   H     H_    0.159162 0.956803 0.533590 0.099769
H68   H     H_    0.340837 0.456793 0.466409 0.099769
H69   H     H_    0.314730 0.801568 0.957816 0.139761
H70   H     H_    0.659161 0.456772 0.533593 0.099773
H71   H     H_    0.834271 0.992466 0.377944 0.122616
H72   H     H_    0.165729 0.992466 0.622056 0.122617
H73   H     H_    0.334271 0.492455 0.377943 0.122615
H74   H     H_    0.665728 0.492435 0.622058 0.122614
H75   H     H_    0.477154 0.327663 0.876809 0.155774
H76   H     H_    0.522916 0.327685 0.123186 0.155900
H77   H     H_    0.977128 0.827671 0.876811 0.155818
H78   H     H_    0.022898 0.827680 0.123187 0.155866
H79   H     H_    0.493328 0.423551 0.954929 0.100930
H80   H     H_    0.185288 0.301523 0.042197 0.139800
H81   H     H_    0.506828 0.423563 0.045053 0.101049
H82   H     H_    0.993271 0.923556 0.954935 0.101000
H83   H     H_    0.006781 0.923561 0.045059 0.101040
H84   H     H_    0.782624 0.114117 0.110080 0.137269
H85   H     H_    0.217372 0.114118 0.889917 0.137269
H86   H     H_    0.282625 0.614108 0.110077 0.137265
H87   H     H_    0.717375 0.614120 0.889917 0.137269
H88   H     H_    0.652186 0.887615 0.954447 0.114114
H89   H     H_    0.347819 0.887620 0.045556 0.114112
H90   H     H_    0.152186 0.387612 0.954447 0.114116
H91   H     H_    0.814724 0.301561 0.957815 0.139776
H92   H     H_    0.847819 0.387620 0.045555 0.114114
H93   H     H_    0.671642 0.848315 0.866841 0.118458
H94   H     H_    0.328360 0.848311 0.133161 0.118454
H95   H     H_    0.171642 0.348321 0.866840 0.118455
H96   H     H_    0.828361 0.348312 0.133161 0.118455
H97   H     H_    0.840251 0.923422 0.981072 0.128720
H98   H     H_    0.159755 0.923453 0.018932 0.128739
H99   H     H_    0.340251 0.423377 0.981079 0.128688
H100  H     H_    0.659754 0.423450 0.018932 0.128732
H101  H     H_    0.897860 0.036768 0.928158 0.098667
H102  H     H_    0.682560 0.835716 0.131650 0.120218
H103  H     H_    0.860426 0.057230 0.868558 0.126172
H104  H     H_    0.935360 0.010477 0.871653 0.116703
H105  H     H_    0.102190 0.036859 0.071872 0.098684
H106  H     H_    0.139588 0.057219 0.131496 0.126193
H107  H     H_    0.064647 0.010506 0.128351 0.116692
H108  H     H_    0.397997 0.536549 0.928244 0.098621
H109  H     H_    0.360437 0.557314 0.868721 0.126105
H110  H     H_    0.435355 0.510461 0.871652 0.116749
H111  H     H_    0.602158 0.536819 0.071860 0.098672
H112  H     H_    0.639592 0.557240 0.131465 0.126180
O1    O     O_R   0.769900 0.064540 0.196060 -0.526373
O2    O     O_R   0.433710 0.069580 0.694600 -0.524091
O3    O     O_R   0.066290 0.569580 0.305400 -0.524097
O4    O     O_R   0.933710 0.569580 0.694600 -0.524096
O5    O     O_R   0.680760 0.993330 0.302620 -0.507538
O6    O     O_R   0.319240 0.993330 0.697380 -0.507534
O7    O     O_R   0.180760 0.493330 0.302620 -0.507539
O8    O     O_R   0.819240 0.493330 0.697380 -0.507538
O9    O     O_3   0.668770 0.168760 0.250420 -0.242201
O10   O     O_3   0.331230 0.168760 0.749580 -0.242213
O11   O     O_3   0.168770 0.668760 0.250420 -0.242201
O12   O     O_R   0.230100 0.064540 0.803940 -0.526372
O13   O     O_3   0.831230 0.668760 0.749580 -0.242206
O14   O     O_R   0.750800 0.274080 0.199250 -0.517840
O15   O     O_R   0.249200 0.274080 0.800750 -0.517852
O16   O     O_R   0.250800 0.774080 0.199250 -0.517836
O17   O     O_R   0.749200 0.774080 0.800750 -0.517840
O18   O     O_R   0.669990 0.371670 0.194150 -0.466953
O19   O     O_R   0.330010 0.371670 0.805850 -0.466901
O20   O     O_R   0.169990 0.871670 0.194150 -0.466961
O21   O     O_R   0.830010 0.871670 0.805850 -0.466950
O22   O     O_R   0.574600 0.238480 0.197800 -0.483170
O23   O     O_R   0.269900 0.564540 0.196060 -0.526369
O24   O     O_R   0.425400 0.238480 0.802200 -0.483142
O25   O     O_R   0.074600 0.738480 0.197800 -0.483164
O26   O     O_R   0.925400 0.738480 0.802200 -0.483152
O27   O     O_R   0.566130 0.068680 0.194240 -0.525277
O28   O     O_R   0.433870 0.068680 0.805760 -0.525304
O29   O     O_R   0.066130 0.568680 0.194240 -0.525284
O30   O     O_R   0.933870 0.568680 0.805760 -0.525294
O31   O     O_R   0.680610 0.992490 0.199570 -0.497042
O32   O     O_R   0.319390 0.992490 0.800430 -0.497051
O33   O     O_R   0.180610 0.492490 0.199570 -0.497045
O34   O     O_R   0.730100 0.564540 0.803940 -0.526372
O35   O     O_R   0.819390 0.492490 0.800430 -0.497048
O36   O     O_R   0.770060 0.065440 0.307230 -0.522882
O37   O     O_R   0.229940 0.065440 0.692770 -0.522883
O38   O     O_R   0.270060 0.565440 0.307230 -0.522883
O39   O     O_R   0.729940 0.565440 0.692770 -0.522881
O40   O     O_R   0.750960 0.274920 0.302300 -0.507224
O41   O     O_R   0.249040 0.274920 0.697700 -0.507226
O42   O     O_R   0.250960 0.774920 0.302300 -0.507226
O43   O     O_R   0.749040 0.774920 0.697700 -0.507225
O44   O     O_R   0.670160 0.372580 0.305320 -0.527353
O45   O     O_R   0.574760 0.239320 0.300850 -0.507850
O46   O     O_R   0.329840 0.372580 0.694680 -0.527348
O47   O     O_R   0.170160 0.872580 0.305320 -0.527351
O48   O     O_R   0.829840 0.872580 0.694680 -0.527351
O49   O     O_3   0.872298 0.903517 0.890450 -0.556896
O50   O     O_3   0.127706 0.903544 0.109550 -0.556926
O51   O     O_3   0.372300 0.403488 0.890449 -0.556848
O52   O     O_3   0.627706 0.403540 0.109550 -0.556937
O53   O     O_3   0.789839 0.097486 0.012662 -0.569515
O54   O     O_3   0.210158 0.097499 0.987336 -0.569528
O55   O     O_3   0.289836 0.597467 0.012658 -0.569502
O56   O     O_R   0.425240 0.239320 0.699150 -0.507850
O57   O     O_3   0.710161 0.597500 0.987337 -0.569522
O58   O     O_R   0.074760 0.739320 0.300850 -0.507849
O59   O     O_R   0.925240 0.739320 0.699150 -0.507848
O60   O     O_R   0.566290 0.069580 0.305400 -0.524097

loop_
_geom_bond_atom_site_label_1
_geom_bond_atom_site_label_2
_ccdc_geom_bond_type
C21   C26   A    
C65   O60   A    
C34   C56   A    
C170  H32   S    
C108  O16   A    
C72   O38   A    
C107  C112  A    
Cr1   O36   S    
Cr6   O16   S    
C105  C110  A    
C97   O15   A    
C145  O51   S    
C135  C139  A    
C2    H75   S    
C48   H62   S    
C119  C156  S    
C124  C133  A    
C95   H16   S    
C1    C159  S    
C29   C33   A    
C175  O12   A    
Cr7   O39   S    
C176  O33   A    
C79   C90   A    
C89   H108  S    
C146  C150  A    
C106  C133  A    
C105  C176  S    
C86   H52   S    
C135  H89   S    
C25   C60   S    
C177  O35   A    
C106  C177  S    
C81   C86   A    
C136  C140  A    
C106  C111  A    
C29   H70   S    
C82   C98   A    
C32   H73   S    
C80   C83   A    
C13   C163  A    
C25   C29   A    
C116  C121  A    
C51   C64   A    
C100  H79   S    
C27   C31   A    
C87   H101  S    
C92   O53   S    
C28   C32   A    
C94   H12   S    
C47   C64   A    
C167  C171  A    
C120  C155  S    
C17   C21   A    
Cr7   O17   S    
C66   C161  S    
C6    C184  A    
C5    C161  A    
C19   C23   A    
C52   H57   S    
C109  H85   S    
Cr9   O56   S    
C16   C20   A    
C70   O36   A    
C173  O1    A    
C173  O31   A    
C164  C168  A    
Cr12  O5    S    
C22   C27   A    
C117  C153  S    
C36   C44   A    
C148  C153  A    
C69   O4    A    
C37   C45   A    
C43   C61   A    
C36   H41   S    
C49   C62   A    
C95   H14   S    
C54   H60   S    
C128  O30   A    
C132  H13   S    
C22   C58   S    
C53   C58   A    
C41   O47   A    
C72   O7    A    
C82   C85   A    
Cr5   O15   S    
C119  O17   A    
C89   H110  S    
Cr10  O58   S    
C140  H95   S    
C67   C162  S    
C50   H64   S    
C77   C82   A    
C49   C53   A    
C134  C151  A    
Cr8   O45   S    
C51   C55   A    
C93   H7    S    
C68   C98   A    
C124  H91   S    
C48   C52   A    
C139  C157  A    
Cr10  O25   S    
C146  O52   S    
C30   H71   S    
C70   O5    A    
Cr11  O13   S    
Cr12  O31   S    
C127  O29   A    
C180  C184  A    
C91   H111  S    
C137  C142  A    
Cr1   O9    S    
C114  O55   S    
C123  C132  A    
Cr2   O6    S    
Cr3   O11   S    
C94   H10   S    
C178  C179  S    
C85   C86   A    
C23   C59   S    
C74   H25   S    
C128  O26   A    
Cr11  O48   S    
C138  H93   S    
C47   H48   S    
C20   H56   S    
C13   C57   A    
C39   O40   A    
C137  C155  A    
C84   H50   S    
C140  C158  A    
C172  C181  A    
C128  C152  S    
C125  C141  S    
C3    H24   S    
C104  C131  A    
C96   C98   A    
C108  O20   A    
Cr1   O40   S    
C110  C114  A    
C166  H19   S    
C182  H23   S    
C50   C63   A    
C69   O59   A    
C65   C160  S    
C107  H84   S    
C77   C152  A    
C88   H105  S    
C54   C59   A    
C142  H96   S    
Cr5   O41   S    
C52   C56   A    
Cr7   O43   S    
C11   C33   A    
C76   H47   S    
Cr12  O60   S    
C9    C14   A    
C174  H76   S    
C108  C157  S    
C7    H29   S    
C16   H39   S    
C134  H88   S    
C147  C151  A    
C117  C122  A    
C83   C84   A    
C176  O23   A    
C91   O52   S    
C8    C12   A    
C83   H49   S    
Cr12  O27   S    
Cr8   O9    S    
C127  O25   A    
C23   C28   A    
C37   C59   A    
C113  C117  A    
C74   C141  A    
C26   C30   A    
C150  C155  A    
C141  C174  A    
C38   C60   A    
C122  C131  A    
C112  C116  A    
C92   H6    S    
Cr8   O44   S    
C12   H35   S    
C126  O24   A    
C18   C22   A    
C111  H87   S    
C34   C43   A    
Cr5   O12   S    
C103  C107  A    
Cr3   O33   S    
C166  C170  A    
Cr6   O11   S    
C110  H86   S    
C57   C101  A    
C8    C70   S    
C76   C81   A    
C170  C179  A    
C95   H15   S    
C97   C158  S    
C143  O49   S    
C99   H81   S    
C19   H55   S    
C37   H42   S    
Cr12  O9    S    
C15   H38   S    
C17   H53   S    
C118  C154  S    
Cr6   O42   S    
Cr7   O34   S    
C42   O43   A    
C73   O39   A    
C95   O57   S    
C85   H51   S    
C76   C163  A    
C144  C157  A    
C92   H4    S    
C45   H46   S    
C116  C151  S    
C10   C72   S    
C171  H33   S    
C101  C102  A    
C33   H74   S    
C71   O37   A    
C69   C164  S    
C142  C159  A    
C34   H40   S    
C66   O2    A    
C15   C19   A    
C39   C64   S    
C51   H65   S    
C50   C54   A    
C40   C63   S    
C87   H104  S    
C68   C102  A    
C3    C7    A    
C20   C25   A    
C126  C130  S    
C46   C100  A    
C24   C152  A    
C57   C96   A    
C12   C17   A    
Cr2   O10   S    
Cr3   O7    S    
C168  H21   S    
C1    O18   A    
C75   C130  A    
C65   O45   A    
Cr9   O19   S    
C55   C60   A    
C165  C169  A    
Cr9   O24   S    
C41   C62   S    
Cr9   O46   S    
C1    O14   A    
C105  C132  A    
C75   H1    S    
C39   O44   A    
C73   O8    A    
Cr9   O10   S    
C11   C73   S    
C81   C96   A    
C137  H92   S    
Cr4   O30   S    
C55   H61   S    
Cr4   O4    S    
C143  C147  A    
C149  C154  A    
Cr11  O21   S    
C89   H109  S    
C136  C154  A    
C11   C16   A    
Cr2   O28   S    
C40   O41   A    
C27   H67   S    
C131  H2    S    
Cr1   O1    S    
C88   H106  S    
C160  C165  A    
Cr3   O3    S    
C103  C129  A    
C13   H78   S    
Cr4   O35   S    
Cr5   O37   S    
C40   O46   A    
C125  O22   A    
C180  C181  S    
C93   H9    S    
C127  C163  S    
C101  H83   S    
C94   H11   S    
C9    C71   S    
C121  C129  A    
C119  O21   A    
C21   C56   S    
C46   C90   A    
C148  H98   S    
C7    C164  A    
C149  H99   S    
C8    C30   A    
C87   H103  S    
Cr4   O8    S    
C175  O32   A    
C145  C158  A    
Cr5   O10   S    
C6    H30   S    
Cr11  O59   S    
C2    C130  A    
C118  C123  A    
Cr10  O20   S    
C94   O55   S    
C43   H44   S    
C24   C68   A    
C71   O6    A    
C168  C172  A    
C74   C78   A    
C126  O28   A    
C53   H59   S    
C4    C182  A    
C5    C183  A    
C139  H94   S    
C145  C149  A    
Cr3   O29   S    
C42   O48   A    
C93   O54   S    
C49   H63   S    
C14   C18   A    
C67   O58   A    
C41   O42   A    
C144  C148  A    
C136  H90   S    
Cr10  O11   S    
C143  C156  A    
C121  H58   S    
C2    C46   A    
C184  H26   S    
C10   C32   A    
Cr6   O38   S    
C4    H28   S    
C36   C58   A    
C10   C15   A    
C104  C109  A    
C129  H102  S    
C103  C173  S    
C35   C79   A    
C115  O57   S    
C93   H8    S    
Cr8   O22   S    
C38   H43   S    
C6    C162  A    
C88   O50   S    
C169  H31   S    
C75   C80   A    
C161  C166  A    
C109  C113  A    
C91   H3    S    
C91   H112  S    
C88   H107  S    
C167  H20   S    
C102  H82   S    
C35   C99   A    
C44   H45   S    
C104  C175  S    
C179  C183  A    
C24   H77   S    
C112  O53   S    
C66   O56   A    
C172  H34   S    
C78   C79   A    
C146  C159  A    
C147  H97   S    
C44   C62   A    
C28   H68   S    
C45   C63   A    
Cr8   O18   S    
C3    C181  A    
C99   C100  A    
Cr7   O13   S    
C178  C182  A    
C150  H100  S    
C42   C61   S    
C38   C47   A    
C114  C118  A    
Cr11  O26   S    
C5    H27   S    
C183  H22   S    
C113  O54   S    
C171  C180  A    
C169  C178  A    
C123  H80   S    
C138  C156  A    
C97   O19   A    
C77   H36   S    
C31   H72   S    
C87   O49   S    
C35   C174  A    
C125  O27   A    
Cr10  O47   S    
C134  C138  A    
C26   H66   S    
Cr2   O32   S    
Cr1   O14   S    
C135  C153  A    
Cr2   O2    S    
C133  H17   S    
C89   O51   S    
C48   C61   A    
C4    C160  A    
C67   O3    A    
C18   H54   S    
C177  O34   A    
C144  O50   S    
Cr4   O13   S    
C14   H37   S    
C80   C90   A    
Cr6   O23   S    
C9    C31   A    
C162  C167  A    
C78   C84   A    
C165  H18   S    
C115  C120  A    
C111  C115  A    
C92   H5    S    
C120  C124  A    
C122  H69   S    
