data_mof_unit_11937.cif
_audit_creation_date              2012-12-10T17:13:34-0500
_audit_creation_method            fapswitch 2.2
_symmetry_space_group_name_H-M    P1
_symmetry_Int_Tables_number       1
_space_group_crystal_system       triclinic
_cell_length_a                    10.776048
_cell_length_b                    12.998002
_cell_length_c                    11.70589
_cell_angle_alpha                 100.843435
_cell_angle_beta                  94.260293
_cell_angle_gamma                 92.290127
_cell_volume                      1603.44829501

loop_
_atom_site_label
_atom_site_type_symbol
_atom_type_description
_atom_site_fract_x
_atom_site_fract_y
_atom_site_fract_z
_atom_type_partial_charge
C1    C     C_R   0.492437 0.298889 0.477817 0.773189
C2    C     C_3   0.878593 0.500541 0.496960 -0.095234
C3    C     C_3   0.943772 0.557324 0.617283 0.064706
C4    C     C_3   0.923944 0.562069 0.402954 0.157349
C5    C     C_R   0.491905 0.814543 0.536715 -0.240154
C6    C     C_R   0.485122 0.184718 0.463843 -0.158916
C7    C     C_R   0.558195 0.021097 0.366276 -0.153269
C8    C     C_R   0.541871 0.126732 0.371127 -0.239648
C9    C     C_R   0.430476 0.133443 0.546153 0.406134
C10   C     C_R   0.443449 0.025028 0.539180 -0.068135
C11   C     C_R   0.516798 0.970809 0.453833 -0.053358
C12   C     C_R   0.259901 0.501084 0.499259 0.863945
C13   C     C_R   0.543877 0.866258 0.455313 0.274646
C14   C     C_R   0.421315 0.867828 0.623653 0.250954
C15   C     C_R   0.385583 0.969894 0.616342 0.351935
C16   C     C_R   0.422376 0.372498 0.017438 0.308364
C17   C     C_R   0.425172 0.389731 0.141325 -0.031946
C18   C     C_R   0.523021 0.558297 0.158726 0.047014
C19   C     C_R   0.520793 0.545454 0.035889 -0.080835
C20   C     C_R   0.472377 0.451586 0.963753 0.033135
C21   C     C_R   0.473529 0.440894 0.839997 -0.015525
C22   C     C_R   0.572142 0.610567 0.862766 0.668935
C23   C     C_R   0.501678 0.701109 0.522612 0.947087
C24   C     C_R   0.565895 0.625458 0.984290 -0.387929
C25   C     C_R   0.740482 0.502786 0.500055 0.878184
C26   C     C_3   0.064028 0.382284 0.450476 0.659096
C27   C     C_3   0.918077 0.383188 0.466107 0.620526
C28   C     C_3   0.083847 0.540909 0.619908 -0.483018
C29   C     C_3   0.068995 0.569759 0.410401 0.254433
C30   C     C_3   0.121438 0.498265 0.495268 -0.137964
Cu1   Cu    Cu3+1 0.509350 0.507730 0.615930 0.998850
Cu2   Cu    Cu3+1 0.490650 0.492270 0.384070 0.974966
H1    H     H_    0.888004 0.642460 0.420936 0.169609
H2    H     H_    0.137983 0.615889 0.658087 0.247062
H3    H     H_    0.604671 0.979987 0.293766 0.157016
H4    H     H_    0.580305 0.164428 0.305486 0.170447
H5    H     H_    0.432232 0.370589 0.783964 0.218443
H6    H     H_    0.594168 0.700911 0.038533 0.153574
H7    H     H_    0.387254 0.329204 0.182779 0.128702
H8    H     H_    0.564210 0.629763 0.213287 0.179987
H9    H     H_    0.108038 0.485196 0.678515 0.181975
H10   H     H_    0.906299 0.524964 0.689970 0.137299
H11   H     H_    0.099844 0.539251 0.322009 0.155857
N1    N     N_R   0.523430 0.519360 0.790130 -0.239599
N2    N     N_R   0.476570 0.480640 0.209880 -0.197427
O1    O     O_R   0.506640 0.354460 0.582000 -0.576288
O2    O     O_R   0.490840 0.341410 0.386200 -0.598184
O3    O     O_R   0.325590 0.506510 0.597900 -0.590262
O4    O     O_R   0.309790 0.493450 0.402100 -0.589373
O5    O     O_R   0.509160 0.658590 0.613800 -0.505332
O6    O     O_R   0.493360 0.645540 0.418000 -0.585218
O7    O     O_R   0.690210 0.506550 0.597900 -0.588742
O8    O     O_R   0.674410 0.493490 0.402100 -0.530766
O9    O     O_3   0.121372 0.316972 0.519718 -0.791001
H12   H     H_    0.205633 0.305202 0.493113 0.296903
O10   O     O_3   0.923579 0.665192 0.634120 -0.738154
H13   H     H_    0.966184 0.698358 0.710975 0.329834
O11   O     O_3   0.622703 0.812701 0.379952 -0.746689
H14   H     H_    0.693810 0.861243 0.373124 0.317614
O12   O     O_3   0.378164 0.813268 0.706014 -0.592150
C31   C     C_3   0.392319 0.869588 0.823486 0.162908
H15   H     H_    0.387394 0.809700 0.879614 0.164266
H16   H     H_    0.311721 0.918096 0.843738 0.146962
C32   C     C_3   0.515982 0.935957 0.860394 -0.345482
H17   H     H_    0.595571 0.890381 0.829198 0.244139
H18   H     H_    0.516105 0.007542 0.821642 0.239638
C33   C     C_3   0.534160 0.971142 0.992908 -0.928279
H19   H     H_    0.457267 0.020527 0.024528 0.263922
H20   H     H_    0.623816 0.018049 0.017313 0.259166
H21   H     H_    0.536113 0.902156 0.036313 0.247753
O13   O     O_3   0.299338 0.018001 0.688200 -0.548804
C34   C     C_3   0.178418 0.969153 0.656236 0.076772
H22   H     H_    0.129691 0.974712 0.737388 0.158774
H23   H     H_    0.177810 0.883987 0.617151 0.168832
C35   C     C_3   0.104769 0.026447 0.573017 -0.345023
H24   H     H_    0.113541 0.112369 0.607511 0.284361
H25   H     H_    0.144081 0.010688 0.486818 0.195491
C36   C     C_3   0.966766 0.990235 0.558513 -0.898613
H26   H     H_    0.954766 0.904101 0.526954 0.260258
H27   H     H_    0.916055 0.029709 0.494445 0.268070
H28   H     H_    0.924805 0.010647 0.643160 0.265958
O14   O     O_3   0.371684 0.187716 0.638056 -0.661958
H29   H     H_    0.334571 0.249492 0.615062 0.317235
O15   O     O_3   0.094215 0.352620 0.331380 -0.639741
C37   C     C_3   0.057737 0.250426 0.265434 0.173091
H30   H     H_    0.125893 0.233219 0.198574 0.126113
H31   H     H_    0.967761 0.252452 0.213593 0.207672
C38   C     C_3   0.055751 0.157552 0.329909 -0.354367
H32   H     H_    0.150604 0.149173 0.369891 0.212389
H33   H     H_    0.988864 0.169412 0.398114 0.288733
C39   C     C_3   0.015403 0.055081 0.245423 -0.987100
H34   H     H_    0.919936 0.059537 0.204371 0.269280
H35   H     H_    0.014904 0.988985 0.293227 0.262211
H36   H     H_    0.081046 0.038867 0.176201 0.259864
O16   O     O_3   0.612902 0.695194 0.817792 -0.601208
C40   C     C_3   0.744537 0.705950 0.828313 0.052587
H37   H     H_    0.769264 0.749350 0.759586 0.215039
H38   H     H_    0.787869 0.628893 0.811788 0.143232
C41   C     C_3   0.798307 0.770755 0.946816 -0.429842
H39   H     H_    0.740614 0.838443 0.973557 0.244968
H40   H     H_    0.799093 0.721155 0.014330 0.213432
C42   C     C_3   0.932249 0.811859 0.942490 -0.931691
H41   H     H_    0.993700 0.745435 0.921750 0.249440
H42   H     H_    0.966485 0.859426 0.028937 0.265512
H43   H     H_    0.937214 0.862309 0.875987 0.258500
O17   O     O_3   0.372429 0.279775 0.948792 -0.706118
H44   H     H_    0.342450 0.233056 0.000058 0.316083
O18   O     O_3   0.850320 0.333252 0.361559 -0.689257
H45   H     H_    0.768218 0.306113 0.380023 0.342815
O19   O     O_3   0.887071 0.327964 0.554613 -0.753855
H46   H     H_    0.940841 0.355303 0.627092 0.328968
O20   O     O_3   0.115809 0.675343 0.450312 -0.598803
C43   C     C_3   0.109233 0.733490 0.358919 -0.002061
H47   H     H_    0.095343 0.816225 0.398307 0.173120
H48   H     H_    0.028805 0.707727 0.293005 0.117657
C44   C     C_3   0.230931 0.730224 0.299075 -0.310789
H49   H     H_    0.308536 0.760402 0.365379 0.232709
H50   H     H_    0.248117 0.648332 0.258237 0.225920
C45   C     C_3   0.228435 0.797936 0.205745 -0.931243
H51   H     H_    0.151013 0.769809 0.137565 0.257684
H52   H     H_    0.317846 0.793270 0.164019 0.263351
H53   H     H_    0.216547 0.881162 0.245572 0.258522
O21   O     O_3   0.877093 0.512160 0.289690 -0.686330
H54   H     H_    0.878856 0.565594 0.239346 0.304509

loop_
_geom_bond_atom_site_label_1
_geom_bond_atom_site_label_2
_ccdc_geom_bond_type
C3    H10   S    
Cu2   N2    S    
C29   O20   S    
C19   C20   A    
Cu1   O7    S    
C12   O3    A    
C6    C9    A    
C12   O4    A    
C7    C8    A    
C37   H30   S    
O18   H45   S    
C7    C11   A    
C26   C27   S    
C3    C28   S    
C17   N2    A    
C10   C15   A    
C8    H4    S    
C36   H27   S    
C1    O1    A    
C45   H53   S    
O17   H44   S    
C40   C41   S    
C28   H9    S    
C44   H49   S    
C42   H43   S    
C18   C19   A    
C17   H7    S    
C31   H16   S    
C18   H8    S    
O19   H46   S    
O9    H12   S    
C22   N1    A    
O16   C40   S    
C27   O19   S    
C16   C17   A    
Cu1   O1    S    
C40   H38   S    
C24   H6    S    
C2    C27   S    
C9    C10   A    
C5    C13   A    
C4    C29   S    
C16   O17   S    
C9    O14   S    
C43   C44   S    
C37   H31   S    
C28   H2    S    
C29   H11   S    
C31   H15   S    
C34   C35   S    
C26   O9    S    
O20   C43   S    
C45   H52   S    
Cu1   N1    S    
C33   H19   S    
C32   C33   S    
O21   H54   S    
O15   C37   S    
C34   H23   S    
C39   H34   S    
C36   H26   S    
C1    O2    A    
C23   O5    A    
C6    C8    A    
C13   O11   S    
O11   H14   S    
C1    C6    S    
C4    O21   S    
O12   C31   S    
C33   H20   S    
C32   H18   S    
C31   C32   S    
C2    C4    S    
C35   H24   S    
Cu2   O6    S    
C29   C30   S    
C39   H35   S    
C21   N1    A    
C3    O10   S    
C23   O6    A    
C41   H39   S    
C5    C23   S    
C38   C39   S    
C16   C20   A    
C40   H37   S    
C20   C21   A    
C42   H42   S    
C35   H25   S    
C5    C14   A    
C41   H40   S    
C38   H33   S    
C26   C30   S    
Cu1   O3    S    
Cu2   O2    S    
C22   C24   A    
O10   H13   S    
Cu1   O5    S    
C18   N2    A    
Cu2   O8    S    
C14   O12   S    
C43   H47   S    
C37   C38   S    
C4    H1    S    
C26   O15   S    
C12   C30   S    
C7    H3    S    
Cu1   Cu2   S    
C25   O8    A    
C34   H22   S    
C45   H51   S    
C15   O13   S    
C44   C45   S    
C33   H21   S    
C32   H17   S    
C28   C30   S    
C19   C24   A    
C25   O7    A    
O13   C34   S    
C39   H36   S    
C11   C13   A    
C36   H28   S    
C27   O18   S    
C44   H50   S    
C2    C3    S    
C2    C25   S    
C42   H41   S    
C35   C36   S    
Cu2   O4    S    
C10   C11   A    
C22   O16   S    
C41   C42   S    
C21   H5    S    
C38   H32   S    
O14   H29   S    
C14   C15   A    
C43   H48   S    
