data_mof_unit_54801.cif
_audit_creation_date              2012-12-11T14:07:47-0500
_audit_creation_method            fapswitch 2.2
_symmetry_space_group_name_H-M    P1
_symmetry_Int_Tables_number       1
_space_group_crystal_system       triclinic
_cell_length_a                    20.118459
_cell_length_b                    17.047622
_cell_length_c                    15.434642
_cell_angle_alpha                 89.763037
_cell_angle_beta                  52.692214
_cell_angle_gamma                 89.814257
_cell_volume                      4210.48302797

loop_
_atom_site_label
_atom_site_type_symbol
_atom_type_description
_atom_site_fract_x
_atom_site_fract_y
_atom_site_fract_z
_atom_type_partial_charge
C1    C     C_R   0.371898 0.195685 0.000941 0.611363
C2    C     C_R   0.666972 0.823872 0.048312 0.055124
C3    C     C_3   0.026607 0.106706 0.034258 -1.088519
C4    C     C_3   0.132127 0.788029 0.223060 0.127494
C5    C     C_3   0.153549 0.874346 0.221780 -0.291382
C6    C     C_3   0.076753 0.921496 0.309141 -1.035392
C7    C     C_3   0.157855 0.190961 0.197298 0.177237
C8    C     C_3   0.066919 0.217478 0.280417 -0.310816
C9    C     C_3   0.009985 0.148106 0.346025 -1.023148
C10   C     C_3   0.632126 0.288044 0.223056 0.127469
C11   C     C_3   0.653554 0.374355 0.221796 -0.291370
C12   C     C_3   0.576759 0.421506 0.309158 -1.035300
C13   C     C_R   0.163988 0.677815 0.050901 0.001899
C14   C     C_3   0.657669 0.690945 0.197343 0.177422
C15   C     C_3   0.566808 0.717574 0.280715 -0.310675
C16   C     C_3   0.509790 0.648230 0.346259 -1.023109
C17   C     C_R   0.167000 0.323870 0.048268 0.055370
C18   C     C_R   0.691366 0.862887 0.677301 0.012454
C19   C     C_R   0.615695 0.183463 0.693944 -0.033031
C20   C     C_R   0.191366 0.362889 0.677303 0.012451
C21   C     C_R   0.115710 0.683463 0.693941 -0.032942
C22   C     C_3   0.249884 0.212543 0.463151 -0.380355
C23   C     C_3   0.199772 0.872872 0.525058 -0.398311
C24   C     C_3   0.749911 0.712519 0.463159 -0.380255
C25   C     C_R   0.368894 0.805460 0.002013 0.577007
C26   C     C_3   0.699644 0.372866 0.525036 -0.398527
C27   C     C_3   0.195496 0.262403 0.564837 -0.403427
C28   C     C_3   0.143340 0.822228 0.627732 -0.420399
C29   C     C_3   0.695512 0.762387 0.564837 -0.403480
C30   C     C_3   0.643069 0.322224 0.627693 -0.420184
C31   C     C_3   0.369995 0.222472 0.474564 -0.417025
C32   C     C_3   0.306412 0.763048 0.432024 -0.406305
C33   C     C_3   0.870031 0.722498 0.474549 -0.417019
C34   C     C_3   0.806412 0.263135 0.432129 -0.406442
C35   C     C_3   0.853564 0.823953 0.370137 -0.417552
C36   C     C_R   0.871791 0.695639 0.001079 0.611190
C37   C     C_3   0.686002 0.270715 0.420405 -0.408123
C38   C     C_3   0.353570 0.323954 0.370140 -0.417455
C39   C     C_3   0.185909 0.770849 0.420503 -0.408141
C40   C     C_3   0.342733 0.235522 0.400321 0.412385
C41   C     C_3   0.250063 0.819399 0.422904 0.401518
C42   C     C_3   0.842756 0.735522 0.400316 0.412411
C43   C     C_3   0.750054 0.319385 0.422894 0.401575
C44   C     C_3   0.750079 0.819067 0.575999 0.374802
C45   C     C_3   0.660580 0.233980 0.597409 0.413642
C46   C     C_3   0.250072 0.319068 0.576002 0.374811
C47   C     C_R   0.868902 0.305456 0.001990 0.576952
C48   C     C_3   0.160597 0.733983 0.597407 0.413752
C49   C     C_3   0.814141 0.771029 0.579550 -0.378708
C50   C     C_3   0.754297 0.216568 0.537629 -0.394857
C51   C     C_3   0.314124 0.271015 0.579556 -0.378731
C52   C     C_3   0.254296 0.716352 0.537409 -0.394891
C53   C     C_R   0.348818 0.831099 0.220243 -0.198545
C54   C     C_R   0.397599 0.198968 0.209181 -0.117308
C55   C     C_R   0.848822 0.331095 0.220233 -0.198524
C56   C     C_R   0.897639 0.698973 0.209171 -0.116933
C57   C     C_3   0.800526 0.873633 0.474217 -0.390551
C58   C     C_R   0.643440 0.899222 0.091203 -0.137960
C59   C     C_3   0.637063 0.216232 0.520247 -0.416492
C60   C     C_3   0.300530 0.373634 0.474221 -0.390603
C61   C     C_3   0.136849 0.716454 0.520441 -0.416400
C62   C     C_2   0.216630 0.732050 0.052566 0.467787
C63   C     C_2   0.222061 0.271201 0.047109 0.419424
C64   C     C_2   0.716625 0.232060 0.052565 0.467873
C65   C     C_2   0.722030 0.771217 0.047166 0.419998
C66   C     C_2   0.775156 0.269183 0.958144 0.340519
C67   C     C_2   0.781123 0.735790 0.951547 0.294187
C68   C     C_2   0.275163 0.769171 0.958147 0.340556
C69   C     C_R   0.641544 0.101952 0.093326 -0.113619
C70   C     C_2   0.281144 0.235769 0.951484 0.294139
C71   C     C_R   0.353849 0.895864 0.912555 -0.283466
C72   C     C_R   0.358390 0.108121 0.906934 -0.237637
C73   C     C_R   0.853848 0.395870 0.912554 -0.283475
C74   C     C_R   0.858372 0.608122 0.906958 -0.237792
C75   C     C_R   0.406403 0.107532 0.304333 -0.142589
C76   C     C_R   0.357707 0.923148 0.314782 -0.122646
C77   C     C_R   0.906407 0.607526 0.304335 -0.142569
C78   C     C_R   0.857699 0.423140 0.314786 -0.122647
C79   C     C_R   0.336362 0.182488 0.949996 -0.193995
C80   C     C_R   0.143456 0.399219 0.091180 -0.138018
C81   C     C_R   0.328840 0.822745 0.958653 -0.117449
C82   C     C_R   0.836284 0.682466 0.950106 -0.193666
C83   C     C_R   0.828842 0.322750 0.958642 -0.117355
C84   C     C_R   0.307034 0.864599 0.322450 -0.011005
C85   C     C_R   0.389001 0.185306 0.303561 -0.051008
C86   C     C_R   0.807030 0.364588 0.322443 -0.010964
C87   C     C_R   0.889031 0.685306 0.303555 -0.051184
C88   C     C_R   0.628785 0.197453 0.001386 -0.075037
C89   C     C_R   0.630446 0.803265 0.000987 -0.119352
C90   C     C_R   0.128791 0.697450 0.001381 -0.075206
C91   C     C_R   0.141547 0.601947 0.093323 -0.113669
C92   C     C_R   0.130459 0.303268 0.000961 -0.119460
C93   C     C_R   0.649787 0.829148 0.780165 -0.137190
C94   C     C_R   0.606568 0.197689 0.788599 -0.118844
C95   C     C_R   0.149787 0.329149 0.780166 -0.137159
C96   C     C_R   0.106562 0.697691 0.788611 -0.119516
C97   C     C_R   0.595407 0.106266 0.694704 -0.140468
C98   C     C_R   0.641366 0.922765 0.684597 -0.128435
C99   C     C_R   0.095430 0.606264 0.694690 -0.140316
C100  C     C_R   0.141367 0.422767 0.684598 -0.128427
C101  C     C_3   0.418811 0.323333 0.949522 0.190099
C102  C     C_R   0.663982 0.177821 0.050905 0.001787
C103  C     C_3   0.466983 0.383348 0.965035 -0.282934
C104  C     C_3   0.499423 0.450202 0.882646 -1.043622
C105  C     C_3   0.452978 0.709746 0.001043 0.127581
C106  C     C_3   0.445884 0.630183 0.052138 -0.220232
C107  C     C_3   0.526937 0.606432 0.033261 -1.088048
C108  C     C_3   0.918907 0.823220 0.949949 0.189492
C109  C     C_3   0.966725 0.883132 0.966214 -0.282515
C110  C     C_3   0.000034 0.949822 0.883472 -1.044423
C111  C     C_3   0.952929 0.209730 0.001172 0.127600
C112  C     C_3   0.945726 0.130266 0.052551 -0.220194
H1    H     H_    0.229461 0.220818 0.410817 0.165308
H2    H     H_    0.156131 0.838176 0.685994 0.157514
H3    H     H_    0.894957 0.132872 0.141792 0.200185
H4    H     H_    0.928406 0.085088 0.018052 0.211824
H5    H     H_    0.037519 0.145186 0.082367 0.269999
H6    H     H_    0.080483 0.110716 0.946520 0.270064
H7    H     H_    0.021357 0.045370 0.062257 0.279207
H8    H     H_    0.102624 0.763475 0.305653 0.132132
H9    H     H_    0.084289 0.783451 0.208423 0.076681
H10   H     H_    0.201433 0.878536 0.235815 0.214000
H11   H     H_    0.179915 0.900353 0.140787 0.195504
H12   H     H_    0.030378 0.922781 0.292341 0.267507
H13   H     H_    0.658473 0.723049 0.637232 0.154855
H14   H     H_    0.095651 0.982674 0.308760 0.275407
H15   H     H_    0.047559 0.895633 0.391028 0.264771
H16   H     H_    0.178027 0.160256 0.241478 0.135863
H17   H     H_    0.162545 0.146899 0.140406 0.080490
H18   H     H_    0.063081 0.260722 0.337000 0.211004
H19   H     H_    0.044328 0.246113 0.237892 0.193011
H20   H     H_    0.011443 0.104939 0.291153 0.273830
H21   H     H_    0.944819 0.169067 0.405804 0.274354
H22   H     H_    0.030066 0.118990 0.391219 0.270918
H23   H     H_    0.602611 0.263479 0.305646 0.132111
H24   H     H_    0.655480 0.338341 0.686284 0.157732
H25   H     H_    0.584295 0.283482 0.208404 0.076689
H26   H     H_    0.701430 0.378531 0.235845 0.214003
H27   H     H_    0.679930 0.400372 0.140805 0.195505
H28   H     H_    0.530375 0.422779 0.292370 0.267518
H29   H     H_    0.595655 0.482688 0.308762 0.275347
H30   H     H_    0.547576 0.395650 0.391046 0.264750
H31   H     H_    0.677927 0.660037 0.241301 0.135850
H32   H     H_    0.662153 0.647025 0.140444 0.080174
H33   H     H_    0.563170 0.760653 0.337320 0.210979
H34   H     H_    0.544144 0.746442 0.238407 0.193067
H35   H     H_    0.364178 0.159867 0.498333 0.146828
H36   H     H_    0.510995 0.605257 0.291385 0.273749
H37   H     H_    0.444692 0.669280 0.406294 0.274347
H38   H     H_    0.529993 0.618853 0.391164 0.270905
H39   H     H_    0.834741 0.283951 0.801996 0.321231
H40   H     H_    0.840094 0.723575 0.795357 0.317912
H41   H     H_    0.334756 0.783937 0.801997 0.321240
H42   H     H_    0.340070 0.223528 0.795306 0.317912
H43   H     H_    0.354922 0.796377 0.429904 0.161464
H44   H     H_    0.864248 0.659894 0.498302 0.146814
H45   H     H_    0.854936 0.296516 0.429920 0.161431
H46   H     H_    0.782121 0.729989 0.649951 0.159775
H47   H     H_    0.772961 0.232566 0.590076 0.171607
H48   H     H_    0.282097 0.229981 0.649962 0.159798
H49   H     H_    0.161303 0.915583 0.518018 0.158567
H50   H     H_    0.273105 0.732072 0.589778 0.171584
H51   H     H_    0.920467 0.840799 0.322272 0.151372
H52   H     H_    0.716507 0.233713 0.346554 0.174394
H53   H     H_    0.420476 0.340782 0.322296 0.151394
H54   H     H_    0.216362 0.733801 0.346696 0.174432
H55   H     H_    0.832622 0.836902 0.319460 0.159682
H56   H     H_    0.642066 0.310894 0.421050 0.164829
H57   H     H_    0.332650 0.336922 0.319444 0.159657
H58   H     H_    0.142058 0.811104 0.421074 0.164795
H59   H     H_    0.758815 0.911030 0.467105 0.146635
H60   H     H_    0.729481 0.720766 0.410829 0.165380
H61   H     H_    0.568718 0.224127 0.563962 0.152812
H62   H     H_    0.258826 0.411036 0.467103 0.146648
H63   H     H_    0.068521 0.724614 0.564289 0.152903
H64   H     H_    0.841554 0.913260 0.479978 0.164960
H65   H     H_    0.653188 0.154673 0.490793 0.153102
H66   H     H_    0.341557 0.413254 0.479990 0.164958
H67   H     H_    0.152682 0.654867 0.491068 0.152990
H68   H     H_    0.436561 0.239676 0.430404 0.151615
H69   H     H_    0.339725 0.721667 0.361933 0.167273
H70   H     H_    0.936589 0.739732 0.430385 0.151632
H71   H     H_    0.661264 0.415592 0.517850 0.158508
H72   H     H_    0.839708 0.221674 0.362130 0.167328
H73   H     H_    0.330109 0.779763 0.200693 0.177283
H74   H     H_    0.395841 0.255107 0.178516 0.157565
H75   H     H_    0.830116 0.279777 0.200654 0.177229
H76   H     H_    0.895957 0.755129 0.178482 0.157421
H77   H     H_    0.853291 0.811061 0.588352 0.167564
H78   H     H_    0.767506 0.152841 0.518890 0.159027
H79   H     H_    0.353287 0.311036 0.588344 0.167563
H80   H     H_    0.267349 0.652632 0.518497 0.159012
H81   H     H_    0.342051 0.925034 0.860716 0.143482
H82   H     H_    0.650254 0.796123 0.560150 0.160882
H83   H     H_    0.347335 0.080434 0.853796 0.139372
H84   H     H_    0.842047 0.425047 0.860722 0.143473
H85   H     H_    0.847345 0.580456 0.853780 0.139378
H86   H     H_    0.411966 0.077643 0.361471 0.085850
H87   H     H_    0.348262 0.958276 0.379290 0.086300
H88   H     H_    0.911956 0.577628 0.361480 0.085855
H89   H     H_    0.848239 0.458252 0.379317 0.086296
H90   H     H_    0.625957 0.254247 0.972082 0.105884
H91   H     H_    0.629445 0.746443 0.971178 0.121871
H92   H     H_    0.125968 0.754244 0.972074 0.105855
H93   H     H_    0.576395 0.335169 0.665794 0.157888
H94   H     H_    0.129452 0.246446 0.971156 0.122010
H95   H     H_    0.667083 0.777244 0.802300 0.120957
H96   H     H_    0.612929 0.252558 0.817526 0.097336
H97   H     H_    0.167080 0.277242 0.802299 0.120959
H98   H     H_    0.112848 0.752572 0.817595 0.097711
H99   H     H_    0.588809 0.077573 0.638063 0.086056
H100  H     H_    0.650673 0.957748 0.619819 0.087826
H101  H     H_    0.088857 0.577569 0.638029 0.085969
H102  H     H_    0.150673 0.457745 0.619818 0.087817
H103  H     H_    0.655223 0.927831 0.143071 0.112760
H104  H     H_    0.150238 0.296150 0.560162 0.160870
H105  H     H_    0.652276 0.073955 0.146845 0.109827
H106  H     H_    0.155245 0.427823 0.143044 0.112780
H107  H     H_    0.152278 0.573949 0.146842 0.109819
H108  H     H_    0.240721 0.149459 0.487004 0.154307
H109  H     H_    0.242160 0.906817 0.534274 0.149309
H110  H     H_    0.740765 0.649439 0.487026 0.154288
H111  H     H_    0.741972 0.406792 0.534389 0.149442
H112  H     H_    0.367851 0.354466 0.954905 0.131622
H113  H     H_    0.462668 0.297210 0.866710 0.076625
H114  H     H_    0.425383 0.408029 0.048676 0.208042
H115  H     H_    0.076630 0.835337 0.666221 0.157957
H116  H     H_    0.520523 0.353977 0.955335 0.182149
H117  H     H_    0.538343 0.427486 0.798442 0.267141
H118  H     H_    0.538690 0.490006 0.890932 0.283876
H119  H     H_    0.446383 0.483791 0.896433 0.274529
H120  H     H_    0.476876 0.751442 0.030273 0.116180
H121  H     H_    0.497352 0.705490 0.910676 0.101067
H122  H     H_    0.395320 0.632717 0.141450 0.199988
H123  H     H_    0.428316 0.585141 0.017780 0.211958
H124  H     H_    0.538065 0.644679 0.081349 0.269830
H125  H     H_    0.580645 0.610620 0.945456 0.269982
H126  H     H_    0.158457 0.223061 0.637226 0.154867
H127  H     H_    0.521771 0.544996 0.060905 0.279172
H128  H     H_    0.868256 0.854415 0.954668 0.131442
H129  H     H_    0.963095 0.797072 0.867222 0.076643
H130  H     H_    0.924673 0.907996 0.049698 0.207981
H131  H     H_    0.019800 0.853606 0.957528 0.182234
H132  H     H_    0.039681 0.926929 0.799383 0.267169
H133  H     H_    0.038812 0.989643 0.892627 0.284040
H134  H     H_    0.947460 0.983435 0.896015 0.274638
H135  H     H_    0.976836 0.251503 0.030299 0.116269
H136  H     H_    0.997344 0.205326 0.910824 0.101012
N1    N     N_R   0.408680 0.130160 0.995800 -0.094727
N2    N     N_R   0.403730 0.078230 0.935950 -0.058485
N3    N     N_R   0.903730 0.421770 0.935950 -0.054277
N4    N     N_R   0.903730 0.578230 0.935950 -0.058462
N5    N     N_R   0.426630 0.075970 0.212960 -0.036356
N6    N     N_R   0.426630 0.924030 0.212960 -0.037341
N7    N     N_R   0.926630 0.575970 0.212960 -0.036347
N8    N     N_R   0.926630 0.424030 0.212960 -0.037323
N9    N     N_R   0.591320 0.134600 0.004200 -0.041960
N10   N     N_R   0.591320 0.865400 0.004200 -0.046282
N11   N     N_R   0.091320 0.634600 0.004200 -0.041975
N12   N     N_R   0.408680 0.869840 0.995800 -0.112719
N13   N     N_R   0.091320 0.365400 0.004200 -0.046296
N14   N     N_R   0.578320 0.867660 0.846880 -0.057745
N15   N     N_R   0.578320 0.132340 0.846880 -0.035123
N16   N     N_R   0.078320 0.367660 0.846880 -0.057738
N17   N     N_R   0.078320 0.632340 0.846880 -0.035124
N18   N     N_R   0.573370 0.074390 0.787040 -0.029143
N19   N     N_R   0.573370 0.925610 0.787040 -0.035602
N20   N     N_R   0.073370 0.574390 0.787040 -0.029101
N21   N     N_R   0.073370 0.425610 0.787040 -0.035598
N22   N     N_R   0.596270 0.927870 0.064040 -0.040031
N23   N     N_R   0.908680 0.630160 0.995800 -0.094793
N24   N     N_R   0.596270 0.072130 0.064040 -0.042285
N25   N     N_R   0.096270 0.427870 0.064040 -0.040023
N26   N     N_R   0.096270 0.572130 0.064040 -0.042258
N27   N     N_R   0.908680 0.369840 0.995800 -0.112736
N28   N     N_R   0.421680 0.867580 0.153120 -0.051034
N29   N     N_R   0.421680 0.132420 0.153120 -0.038349
N30   N     N_R   0.921680 0.367580 0.153120 -0.051045
N31   N     N_R   0.921680 0.632420 0.153120 -0.038345
N32   N     N_R   0.403730 0.921770 0.935950 -0.054295
Ni1   Ni    Ni4+2 0.500000 0.131190 0.000000 0.232219
Ni2   Ni    Ni4+2 0.500000 0.868810 0.000000 0.197617
Ni3   Ni    Ni4+2 0.000000 0.631190 0.000000 0.231956
Ni4   Ni    Ni4+2 0.000000 0.368810 0.000000 0.197617
Ni5   Ni    Ni4+2 0.488650 1.000000 0.862740 0.196917
Ni6   Ni    Ni4+2 0.988650 0.500000 0.862740 0.196930
Ni7   Ni    Ni4+2 0.511350 1.000000 0.137260 0.202486
Ni8   Ni    Ni4+2 0.011350 0.500000 0.137260 0.202504
O1    O     O_3   0.384215 0.266415 0.033284 -0.678809
O2    O     O_3   0.791201 0.753055 0.856300 -0.792985
O3    O     O_3   0.286382 0.753305 0.861954 -0.785240
O4    O     O_3   0.291173 0.252997 0.856261 -0.793012
O5    O     O_3   0.372776 0.730450 0.034472 -0.661896
O6    O     O_3   0.883814 0.766329 0.033791 -0.678525
O7    O     O_3   0.872771 0.230435 0.034440 -0.661879
O8    O     O_3   0.206408 0.744983 0.148865 -0.658238
O9    O     O_3   0.211173 0.256520 0.143582 -0.658821
O10   O     O_3   0.706406 0.244996 0.148862 -0.658250
O11   O     O_3   0.711062 0.756465 0.143677 -0.658543
O12   O     O_3   0.786369 0.253318 0.861954 -0.785304

loop_
_geom_bond_atom_site_label_1
_geom_bond_atom_site_label_2
_ccdc_geom_bond_type
C44   C49   S    
N15   N18   A    
N9    Ni1   S    
C107  H124  S    
N16   N21   A    
C29   H13   S    
C13   C90   A    
C38   H53   S    
C24   C42   S    
C73   H84   S    
C30   C45   S    
C111  C112  S    
C61   H63   S    
C78   H89   S    
C6    H12   S    
N22   Ni7   S    
C7    H17   S    
C2    C65   S    
C5    H11   S    
C76   C84   A    
C72   H83   S    
C101  O1    S    
C19   C97   A    
C33   H44   S    
C51   H79   S    
C7    C8    S    
C39   C41   S    
C69   C102  A    
C108  C109  S    
C103  H114  S    
C64   C102  S    
C107  H125  S    
C67   O2    S    
C100  H102  S    
N1    N2    A    
N1    Ni1   S    
N28   Ni2   S    
C53   C84   A    
C69   H105  S    
C33   C42   S    
C45   C50   S    
N10   N22   A    
N8    N30   A    
C11   H26   S    
N3    N27   A    
C6    H15   S    
C72   C79   A    
C80   H106  S    
C5    C6    S    
C21   C99   A    
C47   N27   A    
C75   H86   S    
C71   H81   S    
C112  H4    S    
C49   H77   S    
C106  C107  S    
C109  H131  S    
C60   H66   S    
C29   H82   S    
C32   H43   S    
C51   H48   S    
C60   H62   S    
C12   H29   S    
N8    Ni8   S    
N11   N26   A    
C101  H113  S    
C52   H80   S    
C66   O12   S    
C35   C42   S    
C53   H73   S    
C24   C29   S    
C32   C52   S    
C11   H27   S    
C3    H5    S    
C66   C83   S    
N32   Ni5   S    
C25   N12   A    
C104  H118  S    
C75   C85   A    
C53   N28   A    
C28   C48   S    
C13   C62   S    
C108  H128  S    
C36   C82   A    
C111  H136  S    
C65   C67   D    
C77   N7    A    
C108  H129  S    
C89   H91   S    
C52   H50   S    
C35   H55   S    
C32   C41   S    
C12   H28   S    
C34   H72   S    
C16   H37   S    
N3    Ni6   S    
N31   Ni3   S    
C7    H16   S    
C76   N6    A    
C44   C57   S    
C88   H90   S    
C92   N13   A    
N5    N29   A    
C21   C48   S    
C31   H35   S    
C26   H71   S    
C78   C86   A    
C15   H34   S    
C36   O6    S    
C94   N15   A    
C101  C103  S    
N30   Ni4   S    
C13   C91   A    
C56   N31   A    
C25   C81   A    
C17   C92   A    
C74   C82   A    
C50   H78   S    
C90   N11   A    
C28   H115  S    
C77   H88   S    
C103  C104  S    
C26   C43   S    
C37   H56   S    
C90   H92   S    
C100  N21   A    
C22   H1    S    
C39   C61   S    
C14   H32   S    
C99   N20   A    
C63   O9    S    
C98   N19   A    
C34   C50   S    
C106  H123  S    
H39   O12   S    
C95   H97   S    
C105  H120  S    
C56   H76   S    
N21   Ni6   S    
C59   H65   S    
C94   H96   S    
C10   H23   S    
C6    H14   S    
C8    H18   S    
N14   N19   A    
C15   H33   S    
C111  O7    S    
C8    C9    S    
C56   C87   A    
C88   C102  A    
C99   H101  S    
C59   H61   S    
C103  H116  S    
N6    Ni7   S    
C30   H93   S    
C107  H127  S    
C46   C51   S    
C17   C80   A    
C35   H51   S    
C28   H2    S    
C14   O11   S    
N24   Ni7   S    
C64   C66   D    
C40   C85   S    
C37   C43   S    
C2    C89   A    
C34   H45   S    
C36   N23   A    
C3    H6    S    
C18   C44   S    
C25   O5    S    
C10   O10   S    
N13   Ni4   S    
C32   H69   S    
N23   Ni3   S    
C20   C100  A    
C63   C70   D    
C3    C112  S    
C104  H117  S    
C22   C40   S    
C8    H19   S    
N5    Ni7   S    
C1    O1    S    
C62   O8    S    
N10   Ni2   S    
N9    N24   A    
C23   C28   S    
H41   O3    S    
C57   H59   S    
N27   Ni4   S    
C96   H98   S    
N19   Ni5   S    
C37   C59   S    
C19   C94   A    
C3    H7    S    
C88   N9    A    
C67   C82   S    
C37   H52   S    
C38   C60   S    
C110  H133  S    
C27   C46   S    
C95   N16   A    
C10   H25   S    
C20   C95   A    
C61   H67   S    
C54   N29   A    
C55   H75   S    
C22   C27   S    
C29   C44   S    
C64   O10   S    
C27   H104  S    
N16   Ni4   S    
C55   C86   A    
C49   H46   S    
C68   O3    S    
N26   Ni8   S    
C68   C81   S    
C74   H85   S    
C46   C60   S    
N12   Ni2   S    
C93   H95   S    
C33   H70   S    
C47   O7    S    
C101  H112  S    
C38   H57   S    
C93   N14   A    
C9    H20   S    
C96   N17   A    
C18   C93   A    
C22   H108  S    
C14   H31   S    
C45   C59   S    
N6    N28   A    
C106  H122  S    
N7    N31   A    
C70   C79   S    
C43   C86   S    
C105  H121  S    
C91   N26   A    
H40   O2    S    
C89   N10   A    
C4    O8    S    
C31   C51   S    
C4    C5    S    
C75   N5    A    
C76   H87   S    
N4    Ni6   S    
C54   C85   A    
C74   N4    A    
C11   C12   S    
C19   C45   S    
N4    N23   A    
C26   C30   S    
C105  O5    S    
C21   C96   A    
C24   H110  S    
C50   H47   S    
C39   H58   S    
C105  C106  S    
C58   N22   A    
C30   H24   S    
C71   N32   A    
N15   Ni1   S    
C71   C81   A    
C62   C68   D    
C31   H68   S    
C35   C57   S    
C72   N2    A    
C1    C79   A    
C39   H54   S    
N11   Ni3   S    
C108  O6    S    
C23   C41   S    
C78   N8    A    
C7    O9    S    
C97   H99   S    
C109  C110  S    
C9    H22   S    
C69   N24   A    
C38   C40   S    
C41   C84   S    
N18   Ni5   S    
C110  H134  S    
C16   H36   S    
N14   Ni2   S    
C98   H100  S    
C109  H130  S    
C65   O11   S    
C110  H132  S    
N12   N32   A    
N7    Ni8   S    
H42   O4    S    
C80   N25   A    
N2    Ni5   S    
C12   H30   S    
C4    H9    S    
C1    N1    A    
C91   H107  S    
C2    C58   A    
C24   H60   S    
N17   N20   A    
C20   C46   S    
C104  H119  S    
N20   Ni6   S    
C73   N3    A    
C92   H94   S    
C10   C11   S    
C47   C83   A    
N17   Ni3   S    
C23   H109  S    
C97   N18   A    
C48   C52   S    
N13   N25   A    
C77   C87   A    
C55   N30   A    
C111  H135  S    
C54   H74   S    
C57   H64   S    
C48   C61   S    
C26   H111  S    
N25   Ni8   S    
C14   C15   S    
C4    H8    S    
C16   H38   S    
C42   C87   S    
C18   C98   A    
C31   C40   S    
N29   Ni1   S    
C34   C43   S    
C58   H103  S    
C33   C49   S    
C73   C83   A    
C5    H10   S    
C112  H3    S    
C17   C63   S    
C15   C16   S    
C27   H126  S    
C70   O4    S    
C23   H49   S    
C9    H21   S    
