data_mof_unit_53073.cif
_audit_creation_date              2013-03-05T15:51:48-0500
_audit_creation_method            fapswitch 2.2
_symmetry_space_group_name_H-M    P1
_symmetry_Int_Tables_number       1
_space_group_crystal_system       triclinic
_cell_length_a                    15.879584
_cell_length_b                    10.86646
_cell_length_c                    9.582933
_cell_angle_alpha                 90.298534
_cell_angle_beta                  89.995623
_cell_angle_gamma                 92.55012
_cell_volume                      1651.92169001

loop_
_atom_site_label
_atom_site_type_symbol
_atom_site_description
_atom_site_fract_x
_atom_site_fract_y
_atom_site_fract_z
_atom_type_partial_charge
O1    O     O_R   0.499990 0.319640 0.618810 -0.591219
O2    O     O_R   0.500000 0.319660 0.381240 -0.581282
C1    C     C_R   0.506574 0.263039 0.500470 0.806397
O3    O     O_R   0.379070 0.499980 0.618770 -0.574009
O4    O     O_R   0.379080 0.500000 0.381190 -0.566665
C2    C     C_R   0.339935 0.499525 0.499995 0.832378
Cu1   Cu    Cu3+1 0.499990 0.499990 0.640660 0.934851
Cu2   Cu    Cu3+1 0.500010 0.500010 0.359340 0.944440
O5    O     O_R   0.500000 0.680340 0.618760 -0.616698
O6    O     O_R   0.500010 0.680360 0.381190 -0.600062
O7    O     O_R   0.620920 0.500000 0.618810 -0.589512
O8    O     O_R   0.620930 0.500020 0.381230 -0.592010
C3    C     C_R   0.495280 0.737561 0.501441 0.780085
C4    C     C_R   0.660046 0.500483 0.500029 0.799644
C5    C     C_3   0.969368 0.399091 0.565291 0.415393
C6    C     C_3   0.024988 0.395737 0.433854 -0.261678
H1    H     H_    0.045798 0.311193 0.380943 0.177870
H2    H     H_    0.948370 0.500208 0.258876 0.171709
C7    C     C_1   0.250258 0.498878 0.500163 -0.162714
C8    C     C_1   0.749644 0.500415 0.500095 -0.141471
C9    C     C_3   0.028292 0.497658 0.634814 -0.263386
C10   C     C_3   0.083090 0.496842 0.501734 0.100776
C11   C     C_3   0.975026 0.599696 0.569074 -0.272216
C12   C     C_3   0.916683 0.498671 0.501040 0.017453
C13   C     C_3   0.030563 0.596306 0.437565 0.481654
C14   C     C_3   0.971724 0.497702 0.367966 -0.272603
C15   C     C_1   0.174734 0.498069 0.500716 0.037893
C16   C     C_1   0.825105 0.499895 0.500405 0.044235
H3    H     H_    0.954324 0.684315 0.621952 0.173289
H4    H     H_    0.051760 0.495236 0.743844 0.175605
H5    H     H_    0.498359 0.109715 0.279428 0.161818
C17   C     C_R   0.552078 0.121584 0.756313 -0.134703
H6    H     H_    0.586503 0.209603 0.756510 0.175373
C18   C     C_R   0.540968 0.063313 0.884533 -0.152143
H7    H     H_    0.562642 0.108796 0.979566 0.141689
C19   C     C_R   0.499170 0.948595 0.890523 -0.140246
H8    H     H_    0.486003 0.905977 0.990529 0.140847
C20   C     C_R   0.476392 0.886903 0.767403 -0.152967
H9    H     H_    0.440874 0.800651 0.778905 0.172816
C21   C     C_R   0.496029 0.939194 0.635180 0.092860
C22   C     C_R   0.521408 0.064984 0.631455 0.094614
C23   C     C_R   0.513956 0.129173 0.503513 -0.111031
C24   C     C_R   0.502078 0.063143 0.378791 -0.200036
H10   H     H_    0.490464 0.887643 0.280935 0.164953
C25   C     C_R   0.494909 0.935969 0.380024 -0.203443
C26   C     C_R   0.491768 0.872207 0.506719 -0.106144
H11   H     H_    0.406093 0.358500 0.128422 0.141809
C27   C     C_R   0.611295 0.665167 0.144984 -0.152134
H12   H     H_    0.617467 0.672127 0.254940 0.199886
C28   C     C_R   0.665077 0.746553 0.073064 -0.214965
H13   H     H_    0.707336 0.809906 0.129614 0.161877
C29   C     C_R   0.665184 0.746309 0.929328 -0.182046
H14   H     H_    0.707356 0.809675 0.873363 0.166491
C30   C     C_R   0.611383 0.664851 0.856653 -0.136426
H15   H     H_    0.617069 0.672129 0.746740 0.199934
C31   C     C_R   0.554622 0.581256 0.925576 0.194418
C32   C     C_R   0.554585 0.581304 0.075255 0.209613
N1    N     N_R   0.500800 0.501210 0.147910 -0.198710
C33   C     C_R   0.448374 0.422241 0.073478 -0.058694
H16   H     H_    0.406154 0.358521 0.869735 0.149530
C34   C     C_R   0.448394 0.422280 0.925485 -0.060580
N2    N     N_R   0.500830 0.501290 0.852040 -0.205016
N3    N     N_R   0.936861 0.288844 0.636719 0.129071
O9    O     O_R   0.989034 0.211347 0.686621 -0.350816
O10   O     O_R   0.856156 0.267086 0.651182 -0.361522
O11   O     O_3   0.065310 0.700405 0.370131 -0.708485
H17   H     H_    0.016480 0.747354 0.339859 0.324361

loop_
_geom_bond_atom_site_label_1
_geom_bond_atom_site_label_2
_geom_bond_distance
_ccdc_geom_bond_type
O4    Cu2   1.931679 S    
C28   C29   1.377406 A    
C11   C12   1.546170 S    
N3    O10   1.300318 A    
Cu1   N2    2.025658 S    
C21   C22   1.408394 A    
C7    C15   1.198938 T    
C22   C23   1.421274 A    
O5    C3    1.291370 A    
Cu1   O7    1.931678 S    
C34   N2    1.366898 A    
H2    C14   1.110129 S    
C5    C9    1.539495 S    
Cu2   O8    1.931595 S    
C17   H6    1.080323 S    
C29   C30   1.387374 A    
C19   C20   1.393754 A    
C28   H13   1.083033 S    
N1    C33   1.366868 A    
Cu1   Cu2   2.695872 S    
C1    C23   1.464995 S    
O1    Cu1   1.969835 S    
C25   C26   1.400822 A    
C31   C32   1.434360 A    
C20   C21   1.420310 A    
C2    C7    1.423740 S    
C24   C25   1.381664 A    
C32   N1    1.382672 A    
O4    C2    1.297025 A    
H5    C24   1.083485 S    
C19   H8    1.082865 S    
H16   C34   1.081747 S    
O3    Cu1   1.931596 S    
C11   H3    1.110122 S    
C27   C28   1.387645 A    
C27   H12   1.060249 S    
O8    C4    1.296791 A    
O2    C1    1.306897 A    
C18   C19   1.387416 A    
C10   C15   1.454767 S    
C11   C13   1.539344 S    
C9    C11   1.559663 S    
C6    C14   1.559649 S    
C3    C26   1.467280 S    
O7    C4    1.296673 A    
C31   N2    1.381649 A    
C33   C34   1.418205 A    
H10   C25   1.083480 S    
C6    H1    1.110149 S    
C23   C24   1.399278 A    
C21   C26   1.426945 A    
C17   C22   1.418751 A    
H11   C33   1.081732 S    
N3    O9    1.300223 A    
C4    C8    1.422811 S    
C27   C32   1.417271 A    
C20   H9    1.078294 S    
C29   H14   1.083043 S    
C12   C16   1.454887 S    
O3    C2    1.296733 A    
C18   H7    1.082728 S    
C9    H4    1.110158 S    
O11   H17   0.991188 S    
Cu1   O5    1.972051 S    
C5    N3    1.457279 S    
C30   H15   1.060209 S    
C5    C12   1.528889 S    
C6    C10   1.543975 S    
C8    C16   1.198564 T    
Cu2   N1    2.026264 S    
C13   C14   1.539310 S    
C9    C10   1.544049 S    
O6    C3    1.310190 A    
Cu2   O6    1.969835 S    
O2    Cu2   1.972051 S    
C13   O11   1.397725 S    
C5    C6    1.539513 S    
C12   C14   1.546220 S    
C30   C31   1.416726 A    
O1    C1    1.293720 A    
C10   C13   1.526200 S    
C17   C18   1.392822 A    
