data_mof_unit_30716.cif
_audit_creation_date              2012-12-11T16:13:57-0500
_audit_creation_method            fapswitch 2.2
_symmetry_space_group_name_H-M    P1
_symmetry_Int_Tables_number       1
_space_group_crystal_system       triclinic
_cell_length_a                    26.151102
_cell_length_b                    7.266954
_cell_length_c                    23.738183
_cell_angle_alpha                 89.926905
_cell_angle_beta                  101.334322
_cell_angle_gamma                 90.087817
_cell_volume                      4423.18872822

loop_
_atom_site_label
_atom_site_type_symbol
_atom_type_description
_atom_site_fract_x
_atom_site_fract_y
_atom_site_fract_z
_atom_type_partial_charge
O1    O     O_R   0.192370 0.384760 0.193350 -0.531358
O2    O     O_R   0.807630 0.615240 0.806650 -0.531359
O3    O     O_R   0.307630 0.884760 0.306650 -0.531463
O4    O     O_R   0.692370 0.115240 0.693350 -0.531364
O5    O     O_R   0.296630 0.711620 0.196480 -0.542593
O6    O     O_R   0.703370 0.288380 0.803520 -0.541292
O7    O     O_R   0.203370 0.211620 0.303520 -0.542014
O8    O     O_R   0.796630 0.788380 0.696480 -0.541071
C1    C     C_R   0.312549 0.546076 0.184231 0.728726
C2    C     C_R   0.687465 0.453976 0.815761 0.726570
C3    C     C_R   0.187429 0.045657 0.315601 0.724765
C4    C     C_R   0.812509 0.954272 0.684195 0.726176
O9    O     O_R   0.192080 0.714290 0.186600 -0.532977
O10   O     O_R   0.807920 0.285710 0.813400 -0.533143
O11   O     O_R   0.307920 0.214290 0.313400 -0.533400
O12   O     O_R   0.692080 0.785710 0.686600 -0.533291
O13   O     O_R   0.202340 0.887460 0.296690 -0.537357
O14   O     O_R   0.797660 0.112540 0.703310 -0.538039
O15   O     O_R   0.297660 0.387460 0.203310 -0.536271
O16   O     O_R   0.702340 0.612540 0.796690 -0.538076
C5    C     C_R   0.173735 0.545987 0.171399 0.709088
C6    C     C_R   0.826261 0.454015 0.828607 0.710122
C7    C     C_R   0.326259 0.046029 0.328608 0.709138
C8    C     C_R   0.673738 0.953970 0.671396 0.709651
O17   O     O_3   0.253490 0.552180 0.286130 -0.376081
O18   O     O_3   0.746510 0.447820 0.713870 -0.375884
O19   O     O_3   0.246510 0.052180 0.213870 -0.375195
O20   O     O_3   0.753490 0.947820 0.786130 -0.375785
V1    V     V_3+5 0.249350 0.825920 0.243300 1.414119
V2    V     V_3+5 0.750650 0.174080 0.756700 1.413939
V3    V     V_3+5 0.250650 0.325920 0.256700 1.411990
V4    V     V_3+5 0.749350 0.674080 0.743300 1.413694
C9    C     C_3   0.528057 0.858864 0.489200 0.566441
C10   C     C_3   0.471921 0.141131 0.510826 0.566259
C11   C     C_3   0.971878 0.358598 0.010801 0.564660
C12   C     C_3   0.028118 0.641412 0.989205 0.566315
C13   C     C_3   0.514683 0.026346 0.448907 -0.280294
C14   C     C_3   0.485296 0.973649 0.551119 -0.280780
C15   C     C_3   0.985307 0.525835 0.051108 -0.279528
C16   C     C_3   0.014689 0.474174 0.948898 -0.280531
H1    H     H_    0.526542 0.046334 0.406912 0.130415
H2    H     H_    0.473437 0.953659 0.593115 0.129892
H3    H     H_    0.973451 0.545400 0.093102 0.133980
H4    H     H_    0.026545 0.454605 0.906904 0.130070
H5    H     H_    0.552485 0.283362 0.504478 0.159075
H6    H     H_    0.447492 0.716634 0.495549 0.158934
H7    H     H_    0.947604 0.783065 0.995549 0.159133
H8    H     H_    0.052393 0.216944 0.004457 0.159358
C17   C     C_1   0.372011 0.037335 0.374466 -0.177323
C18   C     C_1   0.627978 0.962662 0.625547 -0.176602
C19   C     C_1   0.127978 0.537213 0.125553 -0.175891
C20   C     C_1   0.872016 0.462792 0.874456 -0.176354
C21   C     C_3   0.471261 0.843982 0.498135 -0.287151
C22   C     C_3   0.528716 0.156013 0.501892 -0.286489
C23   C     C_3   0.028670 0.344160 0.001874 -0.286986
C24   C     C_3   0.971327 0.655850 0.998132 -0.286075
C25   C     C_3   0.457809 0.013974 0.458526 0.047687
C26   C     C_3   0.542169 0.986021 0.541500 0.047885
C27   C     C_3   0.042177 0.513911 0.041495 0.046973
C28   C     C_3   0.957819 0.486098 0.958512 0.047998
C29   C     C_1   0.410562 0.028260 0.412481 0.012085
C30   C     C_1   0.589421 0.971736 0.587539 0.012588
C31   C     C_1   0.089424 0.528141 0.087542 0.014315
C32   C     C_1   0.910570 0.471866 0.912467 0.013176
C33   C     C_R   0.880779 0.121945 0.642548 -0.253613
C34   C     C_R   0.113032 0.889994 0.348744 -0.271674
C35   C     C_R   0.619713 0.622343 0.857548 -0.252288
C36   C     C_R   0.379593 0.377348 0.141188 -0.238288
H9    H     H_    0.876433 0.240052 0.669002 0.145952
H10   H     H_    0.112580 0.792295 0.314318 0.128613
H11   H     H_    0.624534 0.741055 0.831429 0.145890
H12   H     H_    0.373464 0.255843 0.165519 0.149578
C37   C     C_R   0.918142 0.129368 0.607334 0.420207
C38   C     C_R   0.076528 0.874712 0.385540 0.435952
C39   C     C_R   0.582451 0.630159 0.892791 0.418131
C40   C     C_R   0.417442 0.371290 0.106604 0.465433
C41   C     C_R   0.924097 0.979498 0.571066 -0.105266
C42   C     C_R   0.076048 0.011255 0.427952 -0.091824
C43   C     C_R   0.576017 0.479819 0.928577 -0.104663
C44   C     C_R   0.426003 0.525862 0.073272 -0.148323
C45   C     C_R   0.892517 0.820965 0.572319 0.254465
C46   C     C_R   0.113139 0.156092 0.434195 0.231592
C47   C     C_R   0.606530 0.319708 0.926913 0.252851
C48   C     C_R   0.396359 0.687939 0.076858 0.236358
C49   C     C_R   0.857209 0.813288 0.610029 -0.229801
C50   C     C_R   0.148584 0.167921 0.396802 -0.252936
C51   C     C_R   0.641885 0.311493 0.889245 -0.228689
C52   C     C_R   0.359880 0.692384 0.113027 -0.164939
H13   H     H_    0.833679 0.690668 0.610536 0.141776
H14   H     H_    0.176728 0.279257 0.402044 0.136330
H15   H     H_    0.664790 0.187814 0.888336 0.141771
H16   H     H_    0.337866 0.817638 0.114986 0.160717
C53   C     C_R   0.850602 0.963383 0.645062 -0.140107
C54   C     C_R   0.149170 0.034891 0.354297 -0.121016
C55   C     C_R   0.649268 0.462672 0.854726 -0.140209
C56   C     C_R   0.350993 0.538182 0.145498 -0.179032
N1    N     N_R   0.976778 0.150674 0.511728 -0.224177
N2    N     N_R   0.023477 0.840106 0.486985 -0.234820
N3    N     N_R   0.531905 0.647341 0.996024 -0.239104
N4    N     N_R   0.470503 0.356924 0.005857 -0.232759
N5    N     N_R   0.012250 0.158181 0.478374 -0.244671
N6    N     N_R   0.988124 0.832813 0.520478 -0.232388
N7    N     N_R   0.496920 0.658228 0.029816 -0.307922
N8    N     N_R   0.505697 0.345443 0.972238 -0.248232
C57   C     C_R   0.036306 0.002966 0.465190 0.544208
C58   C     C_R   0.963832 0.987816 0.533527 0.516465
C59   C     C_R   0.465114 0.514091 0.035187 0.521213
C60   C     C_R   0.537010 0.490829 0.966454 0.544804
O21   O     O_3   0.560291 0.710419 0.480411 -0.550833
C61   C     C_3   0.536702 0.613457 0.430683 -0.272294
H17   H     H_    0.529675 0.703797 0.392080 0.133926
H18   H     H_    0.499765 0.546928 0.436492 0.155131
H19   H     H_    0.563547 0.502633 0.422800 0.165390
O22   O     O_3   0.439687 0.289576 0.519614 -0.551125
C62   C     C_3   0.463272 0.386530 0.569345 -0.274182
H20   H     H_    0.500212 0.453053 0.563541 0.155696
H21   H     H_    0.470294 0.296187 0.607947 0.133917
H22   H     H_    0.436428 0.497359 0.577226 0.164772
O23   O     O_3   0.939591 0.209858 0.019571 -0.551129
C63   C     C_3   0.963122 0.112713 0.069316 -0.265837
H23   H     H_    0.970115 0.202804 0.107919 0.136395
H24   H     H_    0.000070 0.046600 0.063559 0.153795
H25   H     H_    0.936253 0.001554 0.077158 0.167282
O24   O     O_3   0.060406 0.790152 0.980437 -0.550545
C64   C     C_3   0.036880 0.887280 0.930686 -0.272714
H26   H     H_    0.999926 0.953375 0.936430 0.154946
H27   H     H_    0.029901 0.797180 0.892084 0.133642
H28   H     H_    0.063748 0.998452 0.922849 0.165186
O25   O     O_3   0.947723 0.287108 0.607269 -0.538792
C65   C     C_3   0.989694 0.280418 0.654643 -0.200253
H29   H     H_    0.014519 0.157062 0.652729 0.123223
H30   H     H_    0.975732 0.283569 0.695996 0.111135
H31   H     H_    0.014465 0.403798 0.653330 0.173636
O26   O     O_3   0.037567 0.740286 0.378461 -0.539524
C66   C     C_3   0.052863 0.572764 0.356674 -0.168491
H32   H     H_    0.027842 0.460988 0.368198 0.184876
H33   H     H_    0.093965 0.536021 0.375411 0.112996
H34   H     H_    0.046545 0.578324 0.309046 0.117305
O27   O     O_3   0.553312 0.788367 0.893453 -0.541939
C67   C     C_3   0.511430 0.784743 0.845956 -0.214228
H35   H     H_    0.486252 0.661632 0.847205 0.124808
H36   H     H_    0.525524 0.789904 0.804694 0.115672
H37   H     H_    0.486983 0.908381 0.847781 0.174562
O28   O     O_3   0.444803 0.210128 0.103952 -0.536826
C68   C     C_3   0.486726 0.204076 0.151372 -0.234137
H38   H     H_    0.472630 0.197226 0.192615 0.118547
H39   H     H_    0.513368 0.323795 0.151368 0.129536
H40   H     H_    0.509630 0.077488 0.148149 0.171937
N9    N     N_2   0.895093 0.669325 0.535047 -0.461460
H41   H     H_    0.886206 0.544582 0.551555 0.291426
C69   C     C_3   0.866611 0.696194 0.476911 -0.481251
H42   H     H_    0.872896 0.576149 0.450194 0.213065
H43   H     H_    0.880414 0.821582 0.457612 0.203623
H44   H     H_    0.824195 0.709026 0.476546 0.171844
N10   N     N_2   0.115686 0.289112 0.478719 -0.482159
H45   H     H_    0.129662 0.415696 0.469046 0.258858
C70   C     C_3   0.141483 0.225341 0.534890 -0.501788
H46   H     H_    0.139482 0.333943 0.567246 0.199970
H47   H     H_    0.183125 0.194736 0.534933 0.180429
H48   H     H_    0.122188 0.099904 0.547519 0.198411
N11   N     N_2   0.602675 0.167177 0.963603 -0.462862
H49   H     H_    0.612175 0.043100 0.947356 0.295449
C71   C     C_3   0.629511 0.192199 0.022483 -0.500649
H50   H     H_    0.622492 0.070679 0.048357 0.211094
H51   H     H_    0.614941 0.316047 0.041642 0.199165
H52   H     H_    0.672162 0.206278 0.024475 0.177509
N12   N     N_2   0.400849 0.847402 0.043395 -0.477568
H53   H     H_    0.438035 0.898159 0.046627 0.325398
C72   C     C_3   0.371213 0.840894 0.985236 -0.484468
H54   H     H_    0.374028 0.975831 0.964047 0.211415
H55   H     H_    0.329459 0.812660 0.985363 0.192737
H56   H     H_    0.386803 0.732513 0.960284 0.187587

loop_
_geom_bond_atom_site_label_1
_geom_bond_atom_site_label_2
_ccdc_geom_bond_type
O17   V3    S    
C66   H34   S    
N3    N7    A    
C52   C56   A    
C26   C30   S    
C70   H46   S    
C16   C28   S    
C23   C27   S    
N10   C70   S    
O13   V1    S    
C72   H54   S    
O3    C7    A    
C71   H50   S    
C67   H37   S    
N4    N8    A    
C44   C48   A    
C12   C27   S    
O15   V3    S    
N11   H49   S    
C35   C39   A    
C66   H32   S    
N12   C72   S    
O1    C5    A    
N3    C60   A    
C44   C59   S    
C9    C26   S    
N2    C57   A    
C42   C57   S    
O9    V1    S    
C41   C58   S    
C71   H51   S    
O7    V3    S    
C67   H36   S    
C14   H2    S    
C51   H15   S    
N9    C69   S    
C68   H38   S    
O4    C8    A    
C33   H9    S    
C7    C17   S    
O19   V1    S    
C62   H20   S    
C34   C38   A    
O1    V3    S    
C33   C37   A    
O2    V4    S    
C69   H44   S    
O3    V1    S    
C61   H17   S    
C50   C54   A    
N11   C71   S    
C14   C26   S    
C49   C53   A    
C1    O15   A    
C52   H16   S    
C2    O16   A    
C62   H21   S    
C51   C55   A    
O2    C6    A    
C10   C25   S    
C69   H42   S    
O12   V4    S    
C65   H30   S    
O14   V2    S    
O8    C4    A    
C63   H25   S    
C45   C49   A    
C34   C54   A    
C62   H22   S    
N8    C60   A    
C33   C53   A    
C47   N11   S    
H8    C23   S    
O12   C8    A    
C8    C18   S    
C72   H55   S    
O10   V2    S    
O16   V4    S    
C68   H39   S    
C63   H24   S    
O7    C3    A    
O5    V1    S    
C9    C21   S    
O27   C67   S    
C37   O25   S    
N5    C57   A    
C17   C29   T    
C11   C23   S    
O8    V4    S    
C40   C44   A    
C12   C16   S    
C71   H52   S    
C19   C31   T    
C67   H35   S    
C20   C32   T    
N12   H53   S    
C49   H13   S    
O18   V4    S    
C15   H3    S    
C46   C50   A    
O11   V3    S    
O4    V2    S    
C24   C28   S    
C11   C28   S    
C11   C15   S    
O5    C1    A    
C12   C24   S    
N2    N6    A    
C64   H28   S    
C42   C46   A    
N1    N5    A    
C15   C24   S    
C61   H19   S    
C41   C45   A    
C36   H12   S    
C16   C23   S    
C15   C27   S    
O9    C5    A    
C36   C56   A    
C25   C29   S    
C1    C56   S    
C46   N10   S    
C40   O28   S    
C3    C54   S    
O6    V2    S    
C35   C55   A    
H5    C22   S    
C10   C22   S    
C70   H48   S    
C50   H14   S    
C64   H26   S    
C18   C30   T    
C72   H56   S    
C4    C53   S    
C65   H31   S    
C36   C40   A    
N1    C58   A    
C43   C60   S    
C5    C19   S    
C68   H40   S    
C63   H23   S    
C6    C20   S    
O25   C65   S    
C22   C26   S    
C66   H33   S    
C3    O13   A    
N4    C59   A    
C21   C25   S    
C12   O24   S    
C10   C14   S    
C48   C52   A    
O28   C68   S    
C47   C51   A    
O6    C2    A    
O23   C63   S    
O22   C62   S    
O26   C66   S    
C10   O22   S    
C13   C22   S    
C27   C31   S    
C28   C32   S    
O10   C6    A    
O20   V2    S    
C65   H29   S    
C48   N12   S    
C39   O27   S    
O21   C61   S    
C43   C47   A    
C11   O23   S    
C34   H10   S    
C14   C21   S    
C2    C55   S    
C45   N9    S    
C38   O26   S    
H6    C21   S    
O11   C7    A    
C9    C13   S    
N6    C58   A    
C35   H11   S    
C69   H43   S    
C13   H1    S    
C61   H18   S    
C16   H4    S    
C9    O21   S    
C70   H47   S    
C38   C42   A    
C4    O14   A    
N10   H45   S    
C64   H27   S    
C37   C41   A    
H7    C24   S    
N7    C59   A    
N9    H41   S    
C39   C43   A    
C13   C25   S    
O24   C64   S    
