data_mof_unit_58166.cif
_audit_creation_date              2012-12-11T20:22:09-0500
_audit_creation_method            fapswitch 2.2
_symmetry_space_group_name_H-M    P1
_symmetry_Int_Tables_number       1
_space_group_crystal_system       triclinic
_cell_length_a                    8.276862
_cell_length_b                    17.386372
_cell_length_c                    26.985855
_cell_angle_alpha                 98.93003
_cell_angle_beta                  93.338582
_cell_angle_gamma                 81.574819
_cell_volume                      3792.41152884

loop_
_atom_site_label
_atom_site_type_symbol
_atom_type_description
_atom_site_fract_x
_atom_site_fract_y
_atom_site_fract_z
_atom_type_partial_charge
Ba1   Ba    Ba6+2 0.860160 0.462360 0.521850 1.705124
Ba2   Ba    Ba6+2 0.329680 0.537570 0.478140 1.669724
C1    C     C_3   0.733503 0.175776 0.652379 -0.350170
C2    C     C_R   0.908512 0.576542 0.181182 0.577318
C3    C     C_2   0.750363 0.551840 0.274230 -0.073590
C4    C     C_3   0.211533 0.235970 0.647755 0.223631
C5    C     C_3   0.732526 0.577530 0.329950 -0.063015
C6    C     C_1   0.982373 0.486883 0.342463 0.011516
C7    C     C_2   0.019770 0.482205 0.294484 -0.113978
C8    C     C_2   0.895599 0.514028 0.256916 0.201542
C9    C     C_R   0.007396 0.501666 0.101995 -0.082352
C10   C     C_R   0.031444 0.433279 0.125085 -0.037704
C11   C     C_R   0.091849 0.361644 0.096437 -0.044486
C12   C     C_3   0.676341 0.255794 0.636544 0.413515
C13   C     C_R   0.947757 0.573795 0.130642 -0.017532
C14   C     C_2   0.846067 0.527602 0.361402 -0.285325
C15   C     C_2   0.359737 0.493591 0.645009 -0.239969
C16   C     C_3   0.159662 0.219431 0.697999 -0.218788
C17   C     C_R   0.155140 0.423416 0.971613 0.037074
C18   C     C_R   0.038414 0.563078 0.974763 -0.050394
C19   C     C_R   0.118017 0.492007 0.947969 -0.000351
C20   C     C_R   0.236844 0.354707 0.943484 -0.095931
C21   C     C_R   0.276607 0.352779 0.893831 -0.054920
C22   C     C_R   0.238361 0.419389 0.869815 -0.012618
C23   C     C_3   0.507194 0.663533 0.633406 0.295865
C24   C     C_R   0.159244 0.489137 0.896790 -0.089208
C25   C     C_R   0.120687 0.555825 0.872455 -0.101263
C26   C     C_R   0.167287 0.552987 0.822370 0.608616
C27   C     C_R   0.276896 0.417098 0.819155 0.584724
C28   C     C_3   0.214840 0.296311 0.410631 0.298247
C29   C     C_2   0.433674 0.444691 0.726169 -0.104527
C30   C     C_3   0.458010 0.429945 0.670185 -0.065289
C31   C     C_1   0.209995 0.520094 0.659764 0.026013
C32   C     C_2   0.164714 0.515851 0.705849 -0.078846
C33   C     C_2   0.285540 0.480477 0.743264 0.208357
C34   C     C_3   0.522379 0.687088 0.689938 -0.354734
C35   C     C_R   0.110112 0.425615 0.022282 0.021125
C36   C     C_R   0.043542 0.498146 0.050294 0.048184
C37   C     C_R   0.014363 0.567499 0.027353 0.023772
C38   C     C_R   0.130284 0.357758 0.046350 -0.099073
C39   C     C_R   0.932635 0.642493 0.108651 -0.081551
C40   C     C_3   0.229501 0.207550 0.396321 -0.375083
C41   C     C_R   0.981935 0.626096 0.947023 0.392048
C42   C     C_R   0.030939 0.623335 0.897972 -0.087816
C43   C     C_R   0.968931 0.639624 0.058652 -0.087716
C44   C     C_2   0.446455 0.275040 0.516876 -0.323358
C45   C     C_3   0.039189 0.705052 0.345566 0.339481
C46   C     C_3   0.372178 0.221041 0.545062 -0.153295
C47   C     C_2   0.423162 0.134177 0.527828 0.373625
C48   C     C_2   0.549897 0.112524 0.496159 -0.022129
C49   C     C_2   0.625518 0.173619 0.475408 -0.178666
C50   C     C_1   0.569043 0.249559 0.485772 0.023470
C51   C     C_R   0.778919 0.858176 0.461432 -0.135688
C52   C     C_3   0.973782 0.701149 0.585851 0.298354
C53   C     C_R   0.845732 0.779978 0.462154 0.024247
C54   C     C_R   0.615003 0.758384 0.506686 0.039281
C55   C     C_R   0.546731 0.836917 0.506314 -0.125312
C56   C     C_3   0.058939 0.726174 0.293769 -0.289246
C57   C     C_R   0.626722 0.886716 0.482544 -0.013267
C58   C     C_2   0.632491 0.029917 0.487326 -0.033029
C59   C     C_2   0.548800 0.968125 0.480729 0.004082
C60   C     C_R   0.759889 0.729471 0.482272 -0.265362
C61   C     C_3   0.941882 0.790054 0.600311 -0.365985
C62   C     C_3   0.691761 0.364334 0.368578 0.224117
C63   C     C_3   0.688137 0.345703 0.311337 -0.265527
C64   C     C_2   0.520003 0.333081 0.290841 0.563940
C65   C     C_2   0.307289 0.195030 0.729887 0.485364
C66   C     C_2   0.415982 0.816977 0.377389 0.538690
C67   C     C_3   0.515825 0.746234 0.349025 0.331892
C68   C     C_3   0.712184 0.668845 0.956869 0.161185
C69   C     C_3   0.225581 0.061290 0.543816 0.164383
C70   C     C_2   0.397057 0.357836 0.534451 0.654826
C71   C     C_3   0.580841 0.765754 0.301093 -0.310335
C72   C     C_R   0.994032 0.437875 0.176265 0.624454
H1    H     H_    0.695759 0.251048 0.595697 0.034072
H2    H     H_    0.815708 0.376464 0.381736 0.017552
H3    H     H_    0.601850 0.417259 0.380079 0.070113
H4    H     H_    0.857154 0.152525 0.638484 0.124997
H5    H     H_    0.774982 0.291743 0.299566 0.094553
H6    H     H_    0.728096 0.394752 0.295550 0.080479
H7    H     H_    0.543865 0.270346 0.643700 -0.143905
H8    H     H_    0.648828 0.133882 0.635790 0.099892
H9    H     H_    0.378387 0.654745 0.623357 0.018884
H10   H     H_    0.590399 0.607698 0.623303 0.055418
H11   H     H_    0.439832 0.742531 0.701646 0.139587
H12   H     H_    0.312633 0.187810 0.364571 0.126489
H13   H     H_    0.488035 0.640059 0.709124 0.074055
H14   H     H_    0.650412 0.695777 0.701265 0.135695
H15   H     H_    0.735152 0.180247 0.693905 0.127942
H16   H     H_    0.116953 0.648038 0.348721 0.082081
H17   H     H_    0.909035 0.699045 0.349440 -0.060806
H18   H     H_    0.166986 0.757004 0.293370 0.158439
H19   H     H_    0.077034 0.671753 0.266114 0.117301
H20   H     H_    0.949143 0.765339 0.282557 0.115006
H21   H     H_    0.622269 0.730429 0.374461 -0.134138
H22   H     H_    0.654949 0.814781 0.310378 0.099726
H23   H     H_    0.279265 0.178371 0.428795 0.058597
H24   H     H_    0.478198 0.782656 0.274757 0.139523
H25   H     H_    0.257138 0.294009 0.653916 -0.014320
H26   H     H_    0.660025 0.714142 0.282042 0.117324
H27   H     H_    0.140841 0.456142 0.282315 0.160088
H28   H     H_    0.110179 0.307733 0.112750 0.128678
H29   H     H_    0.527401 0.419709 0.751184 0.114192
H30   H     H_    0.338823 0.298321 0.874247 0.133571
H31   H     H_    0.274701 0.301185 0.958971 0.075604
H32   H     H_    0.173424 0.299928 0.027276 0.075264
H33   H     H_    0.655497 0.574025 0.248501 0.111360
H34   H     H_    0.107232 0.190040 0.385155 0.138637
H35   H     H_    0.895193 0.699516 0.130415 0.126924
H36   H     H_    0.311270 0.188676 0.634127 0.037125
H37   H     H_    0.990655 0.673787 0.879054 0.146576
H38   H     H_    0.041409 0.539605 0.717045 0.125644
H39   H     H_    0.967026 0.695609 0.046144 0.149187
H40   H     H_    0.829091 0.538549 0.401572 0.079025
H41   H     H_    0.406076 0.511132 0.612287 0.048256
H42   H     H_    0.416926 0.977621 0.477009 0.089290
H43   H     H_    0.730672 0.154615 0.451987 0.098804
H44   H     H_    0.844780 0.895902 0.444222 0.080437
H45   H     H_    0.858042 0.678872 0.573250 0.006815
H46   H     H_    0.765179 0.020560 0.489071 0.056574
H47   H     H_    0.087916 0.273235 0.717899 0.114484
H48   H     H_    0.433655 0.859509 0.525109 0.094450
H49   H     H_    0.812485 0.668794 0.482573 0.055486
H50   H     H_    0.082021 0.171658 0.691739 0.127678
H51   H     H_    0.338119 0.312674 0.419705 0.030157
H52   H     H_    0.136863 0.313394 0.443707 0.105361
H53   H     H_    0.460225 0.287661 0.302542 0.021781
H54   H     H_    0.407827 0.229435 0.735105 0.059829
H55   H     H_    0.373796 0.812893 0.413937 0.033959
H56   H     H_    0.060328 0.686998 0.554852 0.077205
H57   H     H_    0.695868 0.619174 0.976780 0.031097
H58   H     H_    0.683556 0.653936 0.915975 0.039980
H59   H     H_    0.622720 0.719986 0.971703 0.087648
H60   H     H_    0.181952 0.070296 0.504963 0.026419
H61   H     H_    0.137491 0.094247 0.571447 0.086886
H62   H     H_    0.226556 0.998090 0.546201 0.055584
H63   H     H_    0.409769 0.379012 0.573580 -0.123830
H64   H     H_    0.850186 0.805895 0.629969 0.143856
H65   H     H_    0.895023 0.818516 0.567356 0.058494
H66   H     H_    0.057206 0.812642 0.614593 0.128392
N1    N     N_R   0.933005 0.509136 0.203974 -0.423262
N2    N     N_R   0.243856 0.483784 0.795796 -0.420121
O1    O     O_2   0.906370 0.542040 0.619810 -0.460631
O2    O     O_2   0.177712 0.781905 0.477626 -0.498260
O3    O     O_3   0.088444 0.764397 0.382152 -0.593560
O4    O     O_3   0.138370 0.541980 0.559630 -0.457064
O5    O     O_3   0.572820 0.404940 0.471170 -0.462946
O6    O     O_2   0.345130 0.693150 0.532000 -0.461643
O7    O     O_3   0.550764 0.723203 0.609434 -0.637024
O8    O     O_2   0.413393 0.534436 0.324770 -0.463713
O9    O     O_3   0.415690 0.686200 0.336209 -0.614087
O10   O     O_2   0.013754 0.378189 0.195843 -0.575891
O11   O     O_2   0.338157 0.355043 0.795667 -0.633655
O12   O     O_3   0.655893 0.299157 0.388329 -0.650292
O13   O     O_2   0.852822 0.639506 0.204962 -0.631766
O14   O     O_2   0.140978 0.612576 0.802715 -0.596548
O15   O     O_3   0.686580 0.398330 0.583860 -0.488752
O16   O     O_2   0.786498 0.463204 0.675294 -0.481892
O17   O     O_3   0.038366 0.668121 0.627987 -0.630341
O18   O     O_3   0.764533 0.312860 0.663899 -0.564864
O19   O     O_2   0.844570 0.306830 0.467970 -0.461209
O20   O     O_3   0.101900 0.357890 0.557750 -0.437634
O21   O     O_2   0.035735 0.216875 0.514776 -0.503708
O22   O     O_2   0.449853 0.373292 0.260712 -0.556789
O23   O     O_3   0.078504 0.236567 0.612832 -0.569913
O24   O     O_2   0.316927 0.135540 0.749296 -0.545644
O25   O     O_2   0.381736 0.878841 0.360492 -0.600693
O26   O     O_3   0.870838 0.689787 0.965662 -0.652829
O27   O     O_3   0.384184 0.080520 0.556876 -0.662500
O28   O     O_2   0.310812 0.398013 0.507600 -0.539357
O29   O     O_2   0.283330 0.457940 0.380160 -0.453954
O30   O     O_3   0.051340 0.457960 0.440360 -0.463001
O31   O     O_3   0.503130 0.601610 0.416130 -0.466423
O32   O     O_3   0.146068 0.331962 0.369897 -0.634749
O33   O     O_3   0.616890 0.595000 0.528820 -0.479922
O34   O     O_3   0.087820 0.642040 0.442240 -0.493711
P1    P     P_3+3 0.071770 0.565500 0.613330 1.010949
P2    P     P_3+3 0.664870 0.318630 0.453960 0.997696
P3    P     P_3+3 0.146929 0.255727 0.556370 0.966197
P4    P     P_3+3 0.117940 0.434440 0.386660 1.024383
P5    P     P_3+3 0.051669 0.743028 0.441275 0.947757
P6    P     P_3+3 0.674037 0.404364 0.649129 0.979979
P7    P     P_3+3 0.532689 0.694570 0.544441 0.957419
P8    P     P_3+3 0.517595 0.596762 0.351264 0.962087

loop_
_geom_bond_atom_site_label_1
_geom_bond_atom_site_label_2
_ccdc_geom_bond_type
C71   H26   S    
C19   C24   A    
C45   O3    S    
C63   H5    S    
C10   C72   A    
C32   H38   S    
C61   H66   S    
C69   H60   S    
C28   H52   S    
C51   C57   A    
O9    P8    S    
C41   O26   S    
C34   H14   S    
C24   C25   A    
Ba2   P4    S    
C5    P8    S    
O33   P7    S    
C17   C19   A    
C56   H19   S    
C22   C24   A    
C32   C33   S    
C35   C38   A    
Ba2   O31   S    
C69   H61   S    
C36   C37   A    
C55   C57   A    
C52   C61   S    
Ba2   O6    S    
O19   P2    D    
C53   C60   A    
C62   O12   S    
C64   H53   S    
C23   O7    S    
Ba1   Ba2   S    
C62   H3    S    
C22   C27   A    
C11   C38   A    
C17   C35   A    
Ba2   O34   S    
C55   H48   S    
C9    C13   A    
C25   C42   A    
C29   C30   S    
O31   P8    S    
C66   C67   S    
C68   H59   S    
C21   C22   A    
C69   O27   S    
C67   C71   S    
C40   H12   S    
O3    P5    S    
Ba2   O30   S    
C7    C8    S    
C44   C70   S    
Ba2   O29   S    
C37   C43   A    
O30   P4    S    
C52   O17   S    
C4    O23   S    
Ba1   O19   S    
C6    C14   D    
C63   H6    S    
C39   H35   S    
C52   H45   S    
C4    H36   S    
C72   O10   D    
Ba1   O4    S    
O34   P5    S    
C15   C31   D    
O17   P1    S    
C52   H56   S    
O18   P6    S    
C60   H49   S    
C40   H34   S    
C33   N2    S    
C48   C49   S    
C51   C53   A    
C34   H13   S    
C53   P5    S    
C71   H24   S    
C4    C16   S    
C44   C46   S    
C57   C59   S    
C31   P1    S    
C49   C50   D    
C67   O9    S    
C17   C20   A    
C13   C39   A    
C40   H23   S    
C2    N1    Am   
C3    C5    S    
C18   C37   A    
C51   H44   S    
C6    C7    D    
O8    P8    D    
C23   C34   S    
C16   C65   S    
O4    P1    S    
C12   O18   S    
C58   C59   D    
C8    N1    S    
C29   H29   S    
C9    C36   A    
C41   C42   A    
C42   H37   S    
C35   C36   A    
Ba1   O1    S    
C68   O26   S    
Ba2   O33   S    
C23   H10   S    
Ba1   P2    S    
C6    P4    S    
C21   H30   S    
C26   O14   D    
C1    H8    S    
C68   H58   S    
C31   C32   D    
C62   H2    S    
C64   O22   D    
C18   C19   A    
C61   H64   S    
O16   P6    D    
O20   P3    S    
C1    C12   S    
C65   O24   D    
C70   H63   S    
C72   N1    Am   
Ba1   O20   S    
C47   C48   D    
O12   P2    S    
O21   P3    D    
O23   P3    S    
C45   H16   S    
C54   C60   A    
O29   P4    D    
Ba1   O5    S    
C26   N2    Am   
C54   C55   A    
O32   P4    S    
C69   H62   S    
C18   C41   A    
C15   H41   S    
C38   H32   S    
C3    H33   S    
C30   P6    S    
O2    P5    D    
Ba1   O33   S    
C59   H42   S    
C45   H17   S    
C5    C14   S    
C67   H21   S    
C14   H40   S    
C9    C10   A    
C54   P7    S    
C61   H65   S    
C34   H11   S    
Ba2   O4    S    
C20   H31   S    
Ba1   O30   S    
C71   H22   S    
O7    P7    S    
C1    H15   S    
C48   C58   S    
C4    H25   S    
C2    C13   A    
Ba1   O15   S    
Ba2   O5    S    
C27   O11   D    
C3    C8    D    
C65   H54   S    
C62   C63   S    
C44   C50   D    
C47   O27   S    
O5    P2    S    
C56   H18   S    
O6    P7    D    
C46   C47   S    
C27   N2    Am   
C68   H57   S    
C49   H43   S    
C58   H46   S    
C29   C33   D    
O1    P1    D    
C56   H20   S    
C66   H55   S    
C50   P2    S    
C28   H51   S    
C16   H47   S    
C66   O25   D    
C43   H39   S    
C2    O13   D    
C10   C11   A    
C7    H27   S    
C63   C64   S    
O15   P6    S    
C16   H50   S    
C25   C26   A    
C23   H9    S    
C15   C30   S    
C39   C43   A    
C20   C21   A    
C28   C40   S    
C12   H7    S    
C11   H28   S    
C1    H4    S    
Ba1   P1    S    
C28   O32   S    
C46   P3    S    
C12   H1    S    
C70   O28   D    
C45   C56   S    
