data_mof_unit_40415.cif
_audit_creation_date              2012-12-10T17:32:15-0500
_audit_creation_method            fapswitch 2.2
_symmetry_space_group_name_H-M    P1
_symmetry_Int_Tables_number       1
_space_group_crystal_system       triclinic
_cell_length_a                    12.325605
_cell_length_b                    13.131429
_cell_length_c                    15.064845
_cell_angle_alpha                 77.504649
_cell_angle_beta                  101.343152
_cell_angle_gamma                 116.216211
_cell_volume                      2121.37967064

loop_
_atom_site_label
_atom_site_type_symbol
_atom_type_description
_atom_site_fract_x
_atom_site_fract_y
_atom_site_fract_z
_atom_type_partial_charge
C1    C     C_R   0.854991 0.286297 0.508484 0.782042
C2    C     C_R   0.090141 0.479034 0.111348 0.102986
C3    C     C_R   0.816656 0.535113 0.010327 -0.202924
C4    C     C_R   0.816283 0.534859 0.917777 -0.201734
C5    C     C_R   0.906811 0.516544 0.888968 0.108905
C6    C     C_R   0.998416 0.497866 0.953633 0.064875
C7    C     C_R   0.089876 0.479285 0.925340 0.101860
C8    C     C_R   0.180380 0.460567 0.990028 -0.199341
C9    C     C_R   0.180470 0.460364 0.082608 -0.193734
C10   C     C_R   0.907470 0.516751 0.796551 -0.245319
C11   C     C_R   0.998643 0.498793 0.768191 -0.076063
C12   C     C_R   0.999425 0.499565 0.671247 0.820035
C13   C     C_R   0.089363 0.479910 0.832740 -0.225216
C14   C     C_R   0.271155 0.037458 0.414523 -0.150709
C15   C     C_R   0.226490 0.837694 0.473289 -0.105197
C16   C     C_R   0.814699 0.086543 0.576769 -0.201537
C17   C     C_R   0.733241 0.978695 0.611527 -0.178706
C18   C     C_R   0.608021 0.944594 0.588686 -0.010606
C19   C     C_R   0.562720 0.014313 0.519028 0.038634
C20   C     C_R   0.647405 0.124537 0.483596 0.054684
C21   C     C_R   0.436936 0.982216 0.485795 0.058928
C22   C     C_R   0.396553 0.065806 0.434348 0.051167
C23   C     C_R   0.144790 0.714218 0.486196 0.807680
C24   C     C_R   0.482274 0.172784 0.398523 -0.034665
C25   C     C_R   0.604936 0.195669 0.416065 -0.217645
C26   C     C_R   0.351438 0.867984 0.496039 -0.253321
C27   C     C_R   0.185814 0.925225 0.435514 0.146669
C28   C     C_R   0.772474 0.163142 0.518425 -0.094229
C29   C     C_R   0.339530 0.316921 0.637472 -0.106825
C30   C     C_R   0.758221 0.640893 0.372736 0.008079
C31   C     C_R   0.657258 0.663488 0.337344 -0.218177
C32   C     C_R   0.550122 0.606786 0.379082 0.173742
C33   C     C_R   0.546214 0.529228 0.462922 -0.039563
C34   C     C_R   0.000136 0.499807 0.328794 0.807418
C35   C     C_R   0.651413 0.504537 0.492878 0.260317
C36   C     C_R   0.443452 0.470942 0.516307 -0.039569
C37   C     C_R   0.442009 0.380002 0.588350 0.122593
C38   C     C_R   0.543838 0.355280 0.611873 -0.272091
C39   C     C_R   0.646590 0.418464 0.567617 -0.179256
C40   C     C_R   0.343574 0.500840 0.504722 0.011638
C41   C     C_R   0.241895 0.347382 0.617313 0.031343
C42   C     C_R   0.089756 0.479282 0.203690 -0.229950
C43   C     C_R   0.999676 0.498866 0.231969 -0.076364
C44   C     C_R   0.908704 0.517406 0.167486 -0.243680
C45   C     C_R   0.907449 0.516873 0.074968 0.106523
C46   C     C_R   0.998653 0.497897 0.046682 0.064093
Cu1   Cu    Cu3+1 0.098270 0.475420 0.521130 0.946251
Cu2   Cu    Cu3+1 0.901730 0.524580 0.478870 0.923600
H1    H     H_    0.159639 0.464266 0.253379 0.157394
H2    H     H_    0.238278 0.101563 0.379812 0.162799
H3    H     H_    0.382488 0.800590 0.515928 0.172443
H4    H     H_    0.910221 0.113566 0.602591 0.161085
H5    H     H_    0.768126 0.925084 0.662659 0.149597
H6    H     H_    0.666925 0.271505 0.377180 0.174232
H7    H     H_    0.161916 0.299278 0.653125 0.125976
H8    H     H_    0.546719 0.288194 0.667357 0.169258
H9    H     H_    0.838624 0.532193 0.189095 0.159598
H10   H     H_    0.341818 0.575385 0.460072 0.132223
H11   H     H_    0.838395 0.682791 0.337171 0.134599
H12   H     H_    0.660504 0.722203 0.274094 0.162007
H13   H     H_    0.720255 0.394886 0.593798 0.208126
H14   H     H_    0.746074 0.549620 0.031355 0.149974
H15   H     H_    0.745426 0.549157 0.868753 0.151094
H16   H     H_    0.837017 0.530964 0.746876 0.159916
H17   H     H_    0.159926 0.465867 0.811108 0.163401
H18   H     H_    0.251027 0.446156 0.969000 0.152669
H19   H     H_    0.251175 0.445824 0.131677 0.167159
N1    N     N_R   0.246280 0.438190 0.553160 -0.185294
N2    N     N_R   0.754320 0.561190 0.447410 -0.204673
O1    O     O_R   0.972510 0.318130 0.526570 -0.581326
O2    O     O_R   0.806530 0.359650 0.490890 -0.601634
O3    O     O_R   0.082980 0.479210 0.647590 -0.577465
O4    O     O_R   0.917000 0.520730 0.611900 -0.604617
O5    O     O_R   0.193470 0.640350 0.509110 -0.582010
O6    O     O_R   0.027490 0.681870 0.473430 -0.593493
O7    O     O_R   0.083000 0.479270 0.388100 -0.586713
O8    O     O_R   0.917020 0.520790 0.352410 -0.596210
C47   C     C_1   0.447395 0.258570 0.339090 0.226779
N3    N     N_1   0.419695 0.327365 0.291722 -0.300990
C48   C     C_1   0.532353 0.846718 0.648002 0.206859
N4    N     N_1   0.472339 0.768483 0.695868 -0.274919
C49   C     C_1   0.331338 0.220599 0.708224 0.201019
N5    N     N_1   0.324689 0.143482 0.764803 -0.271151
N6    N     N_3   0.445516 0.619178 0.326156 -0.600192
H20   H     H_    0.369557 0.540312 0.327788 0.226970
H21   H     H_    0.431724 0.683008 0.347006 0.211467
N7    N     N_3   0.059890 0.903160 0.411779 -0.592410
H22   H     H_    0.014840 0.864906 0.470300 0.245246
H23   H     H_    0.022496 0.848685 0.362040 0.223566

loop_
_geom_bond_atom_site_label_1
_geom_bond_atom_site_label_2
_ccdc_geom_bond_type
C16   C28   A    
N7    H22   S    
C8    H18   S    
C19   C20   A    
Cu2   N2    S    
C21   C26   A    
C7    C8    A    
C13   H17   S    
C45   C46   A    
C2    C46   A    
C4    H15   S    
C1    O2    A    
C36   C37   A    
C19   C21   A    
N6    H21   S    
Cu1   O7    S    
C34   O8    A    
C5    C6    A    
C20   C25   A    
C33   C36   A    
C18   C19   A    
C41   H7    S    
N6    H20   S    
Cu1   Cu2   S    
C16   C17   A    
C1    C28   S    
C14   C27   A    
C15   C23   S    
C12   O3    A    
C21   C22   A    
Cu2   O6    S    
C39   H13   S    
C41   N1    A    
C38   C39   A    
C32   N6    S    
C40   H10   S    
C14   H2    S    
C36   C40   A    
C24   C25   A    
C47   N3    T    
C8    C9    A    
C15   C26   A    
C20   C28   A    
C3    C45   A    
C31   H12   S    
C35   C39   A    
C43   C44   A    
C9    H19   S    
Cu1   O1    S    
C37   C38   A    
C15   C27   A    
C31   C32   A    
C44   H9    S    
C30   H11   S    
Cu2   O8    S    
C17   C18   A    
C25   H6    S    
C27   N7    S    
C24   C47   S    
N7    H23   S    
C22   C24   A    
C42   C43   A    
C23   O5    A    
C3    C4    A    
C17   H5    S    
Cu1   N1    S    
C30   N2    A    
C44   C45   A    
C3    H14   S    
C6    C46   A    
C29   C41   A    
Cu2   O4    S    
C10   H16   S    
C34   C43   S    
C16   H4    S    
Cu1   O5    S    
C23   O6    A    
C48   N4    T    
C11   C12   S    
C6    C7    A    
C1    O1    A    
C32   C33   A    
C14   C22   A    
C5    C10   A    
C26   H3    S    
C11   C13   A    
C30   C31   A    
C2    C42   A    
C4    C5    A    
C33   C35   A    
C29   C49   S    
Cu1   O3    S    
C10   C11   A    
C42   H1    S    
C7    C13   A    
C38   H8    S    
C35   N2    A    
C18   C48   S    
C49   N5    T    
C40   N1    A    
C29   C37   A    
Cu2   O2    S    
C12   O4    A    
C2    C9    A    
C34   O7    A    
