data_mof_unit_38731.cif
_audit_creation_date              2012-12-10T19:04:16-0500
_audit_creation_method            fapswitch 2.2
_symmetry_space_group_name_H-M    P1
_symmetry_Int_Tables_number       1
_space_group_crystal_system       triclinic
_cell_length_a                    10.623343
_cell_length_b                    10.810269
_cell_length_c                    9.581955
_cell_angle_alpha                 89.72818
_cell_angle_beta                  90.491276
_cell_angle_gamma                 90.464996
_cell_volume                      1100.31445595

loop_
_atom_site_label
_atom_site_type_symbol
_atom_type_description
_atom_site_fract_x
_atom_site_fract_y
_atom_site_fract_z
_atom_type_partial_charge
C1    C     C_R   0.503023 0.262410 0.500185 0.807553
C2    C     C_3   0.956975 0.398376 0.441768 0.503984
C3    C     C_3   0.042034 0.400938 0.572259 -0.263782
C4    C     C_3   0.122807 0.499064 0.497291 -0.033062
C5    C     C_R   0.517450 0.062902 0.625346 0.134162
C6    C     C_R   0.517324 0.129361 0.500194 -0.092902
C7    C     C_R   0.536830 0.065400 0.374720 -0.205293
C8    C     C_R   0.536910 0.936338 0.374380 -0.237881
C9    C     C_R   0.517656 0.870711 0.499539 -0.095769
C10   C     C_R   0.517680 0.935650 0.624978 0.126855
C11   C     C_3   0.429407 0.927065 0.745112 -0.470995
C12   C     C_R   0.259510 0.499295 0.499216 0.799720
C13   C     C_3   0.428849 0.067447 0.745329 -0.480368
C14   C     C_R   0.585530 0.569856 0.073694 0.216413
C15   C     C_R   0.410509 0.437857 0.074546 -0.147080
C16   C     C_R   0.410726 0.436456 0.925819 0.248475
C17   C     C_R   0.583817 0.571989 0.926397 0.172532
C18   C     C_3   0.723324 0.564019 0.918112 -0.559366
C19   C     C_3   0.726216 0.557610 0.076306 -0.075593
C20   C     C_R   0.503270 0.737561 0.499718 0.783918
C21   C     C_R   0.740628 0.500910 0.500663 0.824514
C22   C     C_3   0.045292 0.604514 0.558305 -0.137245
C23   C     C_3   0.962212 0.506751 0.632782 -0.202908
C24   C     C_3   0.877681 0.501698 0.501937 -0.019416
C25   C     C_3   0.958756 0.599444 0.427411 -0.217945
C26   C     C_3   0.038872 0.494387 0.365219 -0.230364
Cu1   Cu    Cu3+1 0.499990 0.499980 0.640670 0.958373
Cu2   Cu    Cu3+1 0.500010 0.500020 0.359330 0.955922
H1    H     H_    0.932445 0.513380 0.742742 0.144138
H2    H     H_    0.475000 0.886534 0.839469 0.196338
H3    H     H_    0.336008 0.107086 0.715856 0.195359
H4    H     H_    0.473995 0.107723 0.840021 0.198032
H5    H     H_    0.339851 0.385335 0.130584 0.134706
H6    H     H_    0.754047 0.477296 0.867490 0.215927
H7    H     H_    0.766079 0.650350 0.875667 0.179725
H8    H     H_    0.775218 0.636983 0.127124 0.147949
H9    H     H_    0.085270 0.689610 0.606340 0.126945
H10   H     H_    0.921486 0.680684 0.369554 0.134803
H11   H     H_    0.072890 0.488751 0.256222 0.126933
H12   H     H_    0.078913 0.319655 0.630360 0.131665
H13   H     H_    0.545517 0.114248 0.276268 0.168603
H14   H     H_    0.545512 0.888693 0.275772 0.161977
H15   H     H_    0.336906 0.885250 0.715938 0.194057
N1    N     N_R   0.500800 0.500930 0.147930 -0.183678
N2    N     N_R   0.500800 0.500890 0.852020 -0.173740
O1    O     O_R   0.500000 0.319640 0.618810 -0.558489
O2    O     O_R   0.500010 0.319680 0.381230 -0.579843
O3    O     O_R   0.316850 0.499950 0.618770 -0.550447
O4    O     O_R   0.316860 0.499990 0.381190 -0.597364
O5    O     O_R   0.499990 0.680320 0.618770 -0.579321
O6    O     O_R   0.500000 0.680360 0.381190 -0.591322
O7    O     O_R   0.683140 0.500010 0.618810 -0.600303
O8    O     O_R   0.683150 0.500050 0.381230 -0.534017
N3    N     N_3   0.317801 0.364598 0.853469 -0.533321
H16   H     H_    0.229475 0.400021 0.878126 0.190666
H17   H     H_    0.321188 0.274310 0.892526 0.175702
N4    N     N_3   0.768713 0.437036 0.128436 -0.483417
H18   H     H_    0.864103 0.428470 0.104633 0.213012
H19   H     H_    0.720404 0.365199 0.077627 0.226316
O9    O     O_3   0.899245 0.292507 0.383260 -0.577945
C27   C     C_3   0.992288 0.213205 0.331425 0.062887
H20   H     H_    0.057941 0.183469 0.416125 0.132364
H21   H     H_    0.046504 0.259194 0.246584 0.127006
C28   C     C_3   0.928671 0.098426 0.271403 -0.792328
H22   H     H_    0.863591 0.124960 0.185171 0.243999
H23   H     H_    0.000813 0.034778 0.230175 0.192340
H24   H     H_    0.874343 0.049700 0.353898 0.251634

loop_
_geom_bond_atom_site_label_1
_geom_bond_atom_site_label_2
_ccdc_geom_bond_type
Cu1   O3    S    
C15   N1    A    
C27   C28   S    
C4    C26   S    
C23   C24   S    
Cu2   O2    S    
C11   H15   S    
C6    C7    A    
N3    H17   S    
C25   H10   S    
C4    C12   S    
C4    C22   S    
Cu2   O4    S    
C9    C20   S    
C5    C13   S    
Cu1   O5    S    
C12   O3    A    
C28   H22   S    
Cu1   N2    S    
C7    H13   S    
C12   O4    A    
C8    C9    A    
C24   C25   S    
C5    C10   A    
C2    C26   S    
C19   N4    S    
Cu2   O8    S    
C21   O8    A    
C11   C13   S    
C14   C17   A    
N4    H18   S    
C5    C6    A    
C20   O5    A    
C15   C16   A    
C23   H1    S    
Cu1   O1    S    
C8    H14   S    
C3    H12   S    
C17   C18   S    
C20   O6    A    
C2    O9    S    
C19   H8    S    
C18   H6    S    
C2    C24   S    
C27   H20   S    
C26   H11   S    
Cu2   O6    S    
C16   N3    S    
C1    O1    A    
N4    H19   S    
C10   C11   S    
C16   N2    A    
C3    C4    S    
C28   H24   S    
C7    C8    A    
Cu1   O7    S    
C17   N2    A    
C14   N1    A    
C18   C19   S    
C18   H7    S    
C21   C24   S    
Cu1   Cu2   S    
C27   H21   S    
C13   H3    S    
C22   C23   S    
C1    O2    A    
C2    C3    S    
C13   H4    S    
C25   C26   S    
N3    H16   S    
C22   H9    S    
C3    C23   S    
C14   C19   S    
Cu2   N1    S    
C21   O7    A    
C1    C6    S    
C11   H2    S    
C9    C10   A    
O9    C27   S    
C15   H5    S    
C22   C25   S    
C28   H23   S    
