data_mof_unit_24472.cif
_audit_creation_date              2012-12-10T19:10:04-0500
_audit_creation_method            fapswitch 2.2
_symmetry_space_group_name_H-M    P1
_symmetry_Int_Tables_number       1
_space_group_crystal_system       triclinic
_cell_length_a                    10.795701
_cell_length_b                    10.818686
_cell_length_c                    9.536169
_cell_angle_alpha                 90.969823
_cell_angle_beta                  90.444714
_cell_angle_gamma                 90.516727
_cell_volume                      1113.53998546

loop_
_atom_site_label
_atom_site_type_symbol
_atom_type_description
_atom_site_fract_x
_atom_site_fract_y
_atom_site_fract_z
_atom_type_partial_charge
C1    C     C_R   0.496310 0.262630 0.498619 0.808171
C2    C     C_R   0.255752 0.830921 0.143700 -0.114064
C3    C     C_R   0.933897 0.573468 0.408317 -0.245607
C4    C     C_R   0.872067 0.494446 0.499890 -0.089417
C5    C     C_R   0.939445 0.415009 0.588074 0.012160
C6    C     C_R   0.067975 0.420286 0.586021 -0.210511
C7    C     C_R   0.129092 0.501281 0.497240 -0.084511
C8    C     C_R   0.062479 0.577862 0.406342 -0.003181
C9    C     C_R   0.893960 0.338068 0.829681 0.164109
C10   C     C_R   0.831336 0.256139 0.918075 -0.165258
C11   C     C_R   0.760731 0.158610 0.861787 -0.210534
C12   C     C_R   0.262602 0.501695 0.499307 0.794920
C13   C     C_R   0.754016 0.139661 0.716988 -0.088257
C14   C     C_R   0.813308 0.221098 0.626454 0.136674
C15   C     C_R   0.879435 0.324750 0.682329 0.057262
C16   C     C_R   0.422552 0.065146 0.594880 0.049988
C17   C     C_R   0.486524 0.129871 0.492928 -0.075718
C18   C     C_R   0.538286 0.063240 0.380352 -0.208839
C19   C     C_R   0.542184 0.934430 0.383737 -0.217968
C20   C     C_R   0.495229 0.871243 0.500118 -0.079411
C21   C     C_R   0.429449 0.938929 0.600735 0.103140
C22   C     C_3   0.419545 0.941350 0.757799 -0.055079
C23   C     C_R   0.499889 0.737781 0.501011 0.805953
C24   C     C_3   0.408812 0.081761 0.749295 -0.467141
C25   C     C_R   0.563267 0.589313 0.076057 0.280876
C26   C     C_R   0.427906 0.419402 0.072300 -0.080077
C27   C     C_R   0.427878 0.419411 0.923302 -0.068777
C28   C     C_R   0.562853 0.589438 0.928685 0.218346
C29   C     C_3   0.698289 0.614767 0.924067 -0.515068
C30   C     C_3   0.699275 0.614151 0.082940 -0.511644
C31   C     C_R   0.737816 0.497882 0.500427 0.789753
C32   C     C_R   0.228171 0.864790 0.282050 -0.119990
C33   C     C_R   0.163711 0.782836 0.367507 -0.165740
C34   C     C_R   0.125279 0.666902 0.314164 0.114254
C35   C     C_R   0.152306 0.633739 0.174850 -0.096458
C36   C     C_R   0.217823 0.715464 0.090100 -0.134983
Cu1   Cu    Cu3+1 0.499990 0.499980 0.640670 0.939824
Cu2   Cu    Cu3+1 0.500010 0.500020 0.359330 0.940247
H1    H     H_    0.306762 0.893998 0.078247 0.115798
H2    H     H_    0.714230 0.095224 0.930907 0.153159
H3    H     H_    0.703748 0.060221 0.674790 0.184920
H4    H     H_    0.582071 0.110409 0.294248 0.162995
H5    H     H_    0.586861 0.885004 0.298569 0.154428
H6    H     H_    0.335376 0.893901 0.797969 0.132714
H7    H     H_    0.315255 0.115757 0.777492 0.160159
H8    H     H_    0.487066 0.134310 0.798771 0.221835
H9    H     H_    0.371466 0.352636 0.126520 0.136585
H10   H     H_    0.257660 0.954153 0.323445 0.134324
H11   H     H_    0.371245 0.352775 0.865635 0.137341
H12   H     H_    0.747735 0.536116 0.876282 0.230641
H13   H     H_    0.721326 0.706462 0.880079 0.199717
H14   H     H_    0.752667 0.535784 0.125887 0.217772
H15   H     H_    0.721218 0.706102 0.131143 0.186680
H16   H     H_    0.144665 0.809136 0.475252 0.118786
H17   H     H_    0.125361 0.543703 0.133344 0.120554
H18   H     H_    0.239924 0.688969 0.983261 0.127609
H19   H     H_    0.881840 0.634335 0.341029 0.147630
H20   H     H_    0.120887 0.359366 0.652528 0.157617
H21   H     H_    0.839368 0.266145 0.030977 0.134058
N1    N     N_R   0.500790 0.500930 0.147930 -0.182535
N2    N     N_R   0.500790 0.500890 0.852020 -0.181704
O1    O     O_R   0.500000 0.319640 0.618810 -0.578561
O2    O     O_R   0.500010 0.319680 0.381230 -0.596730
O3    O     O_R   0.319640 0.499990 0.618790 -0.586650
O4    O     O_R   0.319650 0.500030 0.381210 -0.574751
O5    O     O_R   0.499990 0.680320 0.618770 -0.587889
O6    O     O_R   0.500000 0.680360 0.381190 -0.574841
O7    O     O_R   0.680350 0.499970 0.618790 -0.573945
O8    O     O_R   0.680360 0.500010 0.381210 -0.591714
N3    N     N_3   0.812284 0.191657 0.479329 -0.615262
H22   H     H_    0.903866 0.186817 0.444981 0.218770
H23   H     H_    0.767968 0.261795 0.425285 0.215255
N4    N     N_3   0.534343 0.906440 0.827543 -0.590796
H24   H     H_    0.535520 0.810513 0.829256 0.240519
H25   H     H_    0.528538 0.935226 0.932538 0.206135
N5    N     N_3   0.977065 0.430293 0.888764 -0.614599
H26   H     H_    0.969107 0.433498 0.997934 0.202997
H27   H     H_    0.951593 0.517256 0.853136 0.223536

loop_
_geom_bond_atom_site_label_1
_geom_bond_atom_site_label_2
_ccdc_geom_bond_type
C16   C21   A    
C32   H10   S    
N4    H24   S    
C6    H20   S    
C35   C36   A    
C1    O1    A    
C13   H3    S    
Cu1   O1    S    
C7    C8    A    
C25   C28   A    
C26   C27   A    
Cu1   Cu2   S    
C24   H7    S    
C23   O5    A    
C28   C29   S    
N5    H27   S    
C18   C19   A    
C18   H4    S    
C5    C6    A    
C12   O3    A    
Cu1   O7    S    
C25   C30   S    
C2    C32   A    
C34   C35   A    
C23   O6    A    
C27   N2    A    
C2    H1    S    
C22   H6    S    
C19   C20   A    
C16   C17   A    
C20   C23   S    
N3    H22   S    
C25   N1    A    
C9    C10   A    
C28   N2    A    
Cu2   O8    S    
C16   C24   S    
C21   C22   S    
C14   N3    S    
C31   O7    A    
C1    O2    A    
C19   H5    S    
C33   C34   A    
C29   H12   S    
C7    C12   S    
C30   H15   S    
C35   H17   S    
N5    H26   S    
C3    C8    A    
C29   C30   S    
C36   H18   S    
Cu2   O4    S    
Cu1   O5    S    
C17   C18   A    
C8    C34   S    
C20   C21   A    
C26   H9    S    
Cu2   N1    S    
C3    H19   S    
C9    N5    S    
C22   C24   S    
N4    H25   S    
C3    C4    A    
Cu1   O3    S    
Cu2   O2    S    
C29   H13   S    
C2    C36   A    
C33   H16   S    
C30   H14   S    
C4    C5    A    
Cu1   N2    S    
C6    C7    A    
C12   O4    A    
C1    C17   S    
C24   H8    S    
C32   C33   A    
C10   H21   S    
C9    C15   A    
C11   C13   A    
C11   H2    S    
C5    C15   S    
C4    C31   S    
C10   C11   A    
C31   O8    A    
Cu2   O6    S    
C14   C15   A    
N3    H23   S    
C22   N4    S    
C13   C14   A    
C26   N1    A    
C27   H11   S    
