data_mof_unit_57719.cif
_audit_creation_date              2012-12-10T19:05:16-0500
_audit_creation_method            fapswitch 2.2
_symmetry_space_group_name_H-M    P1
_symmetry_Int_Tables_number       1
_space_group_crystal_system       triclinic
_cell_length_a                    9.558922
_cell_length_b                    10.827661
_cell_length_c                    17.347403
_cell_angle_alpha                 90.434165
_cell_angle_beta                  85.271638
_cell_angle_gamma                 89.585124
_cell_volume                      1789.25189715

loop_
_atom_site_label
_atom_site_type_symbol
_atom_type_description
_atom_site_fract_x
_atom_site_fract_y
_atom_site_fract_z
_atom_type_partial_charge
C1    C     C_R   0.500234 0.737649 0.497184 0.838621
C2    C     C_R   0.352137 0.457091 0.782417 0.398194
C3    C     C_R   0.478314 0.616697 0.149188 -0.165688
C4    C     C_R   0.467452 0.612251 0.229389 -0.080439
C5    C     C_R   0.605399 0.419717 0.221634 0.349250
C6    C     C_R   0.622594 0.429345 0.140169 -0.086597
C7    C     C_R   0.554706 0.527830 0.104832 -0.035385
C8    C     C_2   0.487596 0.460411 0.980075 -0.308623
C9    C     C_2   0.558847 0.541162 0.020845 0.347935
C10   C     C_R   0.531048 0.512446 0.266120 -0.158860
C11   C     C_R   0.381132 0.937808 0.515969 0.130541
C12   C     C_R   0.481282 0.496100 0.650192 0.847783
C13   C     C_R   0.500042 0.871032 0.487658 -0.127471
C14   C     C_R   0.613701 0.935921 0.448766 -0.032788
C15   C     C_R   0.613225 0.065835 0.452889 -0.131017
C16   C     C_R   0.499984 0.129693 0.491818 -0.132287
C17   C     C_R   0.380269 0.064789 0.517272 0.018379
C18   C     C_3   0.296258 0.070928 0.593831 -0.222283
C19   C     C_3   0.296560 0.930569 0.592130 -0.462639
C20   C     C_R   0.936053 0.445936 0.440667 0.237570
C21   C     C_R   0.915773 0.565488 0.553357 -0.089685
C22   C     C_R   0.063896 0.566236 0.553469 0.496650
C23   C     C_R   0.500419 0.262561 0.498770 0.822633
C24   C     C_R   0.083221 0.447083 0.440217 0.187288
C25   C     C_3   0.096163 0.316560 0.412984 -0.452197
C26   C     C_3   0.937054 0.313854 0.415562 -0.421844
C27   C     C_R   0.518914 0.502990 0.350384 0.913315
C28   C     C_R   0.475414 0.486033 0.735199 -0.142423
C29   C     C_R   0.602566 0.499157 0.769984 -0.225241
C30   C     C_R   0.607326 0.486718 0.848950 -0.049420
C31   C     C_R   0.484139 0.466687 0.895953 0.132292
C32   C     C_R   0.357683 0.448553 0.862499 -0.172248
Cu1   Cu    Cu3+1 0.359330 0.500020 0.500000 1.067223
Cu2   Cu    Cu3+1 0.640670 0.499980 0.500000 0.980379
H1    H     H_    0.700337 0.518058 0.736193 0.200792
H2    H     H_    0.700508 0.117179 0.425786 0.205353
H3    H     H_    0.355329 0.111431 0.640488 0.192346
H4    H     H_    0.355911 0.888404 0.637907 0.217616
H5    H     H_    0.191674 0.890535 0.585679 0.242043
H6    H     H_    0.851948 0.616925 0.597105 0.174470
H7    H     H_    0.147978 0.309205 0.353347 0.215956
H8    H     H_    0.139998 0.254421 0.455377 0.215617
H9    H     H_    0.898189 0.301713 0.357520 0.257595
H10   H     H_    0.889353 0.251996 0.461151 0.212682
H11   H     H_    0.263057 0.428221 0.898829 0.180034
H12   H     H_    0.427823 0.691568 0.120460 0.179293
H13   H     H_    0.426820 0.388350 0.010286 0.148388
H14   H     H_    0.707735 0.493322 0.873348 0.191620
N1    N     N_R   0.852130 0.499070 0.499500 -0.222044
N2    N     N_R   0.148040 0.499110 0.499500 -0.215371
O1    O     O_R   0.381190 0.680360 0.500000 -0.513820
O2    O     O_R   0.618770 0.680320 0.499990 -0.624757
O3    O     O_R   0.367430 0.500040 0.613600 -0.479568
O4    O     O_R   0.605020 0.500000 0.613590 -0.605367
O5    O     O_R   0.381230 0.319680 0.500010 -0.579206
O6    O     O_R   0.618810 0.319640 0.500000 -0.581789
O7    O     O_R   0.394980 0.500000 0.386410 -0.567503
O8    O     O_R   0.632570 0.499960 0.386400 -0.570770
C33   C     C_2   0.712361 0.340442 0.091517 0.477625
H15   H     H_    0.703159 0.333240 0.029834 0.055015
O9    O     O_2   0.802099 0.277277 0.118698 -0.449271
C34   C     C_2   0.730860 0.871812 0.402677 0.438727
H16   H     H_    0.719980 0.777274 0.383215 0.103311
O10   O     O_2   0.840673 0.925040 0.384323 -0.531967
C35   C     C_2   0.152814 0.126089 0.588145 0.462293
H17   H     H_    0.084023 0.089405 0.546874 0.064373
O11   O     O_2   0.112361 0.212377 0.629954 -0.470962
Cl1   Cl    Cl    0.132992 0.656462 0.624992 -0.578330
C36   C     C_2   0.389475 0.715415 0.270783 0.394017
H18   H     H_    0.318145 0.772062 0.240297 0.099162
O12   O     O_2   0.407340 0.742326 0.337502 -0.569630
Cl2   Cl    Cl    0.662671 0.285832 0.268594 -0.591829
Cl3   Cl    Cl    0.634952 0.677181 0.980583 -0.558621
Cl4   Cl    Cl    0.190277 0.424693 0.745630 -0.488438

loop_
_geom_bond_atom_site_label_1
_geom_bond_atom_site_label_2
_ccdc_geom_bond_type
C10   C27   S    
Cu1   O5    S    
Cu2   O6    S    
C32   H11   S    
C21   N1    A    
C26   H10   S    
C23   O6    A    
C18   C35   S    
C11   C19   S    
C20   N1    A    
C12   C28   S    
C30   H14   S    
C28   C29   A    
C18   H3    S    
C5    Cl2   S    
C3    C7    A    
C5    C6    A    
C15   C16   A    
C14   C34   S    
C2    C32   A    
C18   C19   S    
C36   O12   D    
C34   O10   D    
C20   C24   A    
C8    C9    D    
C35   O11   D    
C29   C30   A    
C12   O3    A    
C2    Cl4   S    
C22   N2    A    
C33   H15   S    
C21   C22   A    
C24   N2    A    
C9    Cl3   S    
C4    C36   S    
C26   H9    S    
C17   C18   S    
Cu1   O3    S    
C33   O9    D    
C24   C25   S    
C27   O7    A    
C25   H7    S    
C16   C17   A    
C25   C26   S    
C34   H16   S    
C19   H4    S    
C31   C32   A    
Cu1   Cu2   S    
C1    O1    A    
C22   Cl1   S    
C19   H5    S    
Cu2   O4    S    
C16   C23   S    
C1    C13   S    
C4    C10   A    
C3    C4    A    
C15   H2    S    
C7    C9    S    
C11   C17   A    
Cu2   N1    S    
Cu1   O7    S    
C8    C31   S    
C6    C33   S    
C27   O8    A    
C25   H8    S    
C23   O5    A    
C6    C7    A    
Cu1   O1    S    
C29   H1    S    
C3    H12   S    
Cu2   O2    S    
Cu1   N2    S    
C8    H13   S    
C5    C10   A    
C11   C13   A    
C30   C31   A    
C21   H6    S    
C20   C26   S    
C36   H18   S    
C1    O2    A    
C35   H17   S    
Cu2   O8    S    
C14   C15   A    
C2    C28   A    
C13   C14   A    
C12   O4    A    
