data_mof_unit_21855.cif
_audit_creation_date              2012-12-10T17:49:31-0500
_audit_creation_method            fapswitch 2.2
_symmetry_space_group_name_H-M    P1
_symmetry_Int_Tables_number       1
_space_group_crystal_system       triclinic
_cell_length_a                    14.767318
_cell_length_b                    14.776168
_cell_length_c                    15.888405
_cell_angle_alpha                 76.076851
_cell_angle_beta                  103.159474
_cell_angle_gamma                 114.890989
_cell_volume                      3020.86667835

loop_
_atom_site_label
_atom_site_type_symbol
_atom_type_description
_atom_site_fract_x
_atom_site_fract_y
_atom_site_fract_z
_atom_type_partial_charge
C1    C     C_R   0.880391 0.312261 0.518015 0.827393
C2    C     C_3   0.036318 0.412406 0.077526 0.113825
C3    C     C_3   0.993140 0.490830 0.083855 0.004513
C4    C     C_3   0.062687 0.597716 0.040787 0.308659
C5    C     C_3   0.057818 0.599033 0.942088 -0.524263
C6    C     C_1   0.995390 0.492852 0.176184 0.097660
C7    C     C_1   0.996295 0.495306 0.824828 0.053726
C8    C     C_1   0.998459 0.497601 0.749326 -0.136889
C9    C     C_R   0.811578 0.205679 0.539597 -0.107607
C10   C     C_R   0.188128 0.796277 0.475380 -0.190717
C11   C     C_R   0.765777 0.044827 0.637386 -0.201624
C12   C     C_R   0.999859 0.499628 0.659661 0.823034
C13   C     C_R   0.840357 0.133654 0.603115 0.157998
C14   C     C_R   0.709234 0.180015 0.504493 -0.232527
C15   C     C_R   0.635262 0.085604 0.530527 0.086265
C16   C     C_R   0.663856 0.023571 0.605148 0.116511
C17   C     C_R   0.532180 0.055547 0.491129 0.014779
C18   C     C_R   0.458721 0.970821 0.536200 0.059070
C19   C     C_R   0.489366 0.926555 0.620802 -0.149234
C20   C     C_R   0.590392 0.946435 0.651241 -0.241292
C21   C     C_R   0.498713 0.103343 0.408033 0.089700
C22   C     C_R   0.395950 0.079151 0.380602 -0.165966
C23   C     C_R   0.119950 0.687941 0.487226 0.862766
C24   C     C_R   0.324521 0.992868 0.422016 -0.024951
C25   C     C_R   0.357152 0.930975 0.494349 -0.081940
C26   C     C_R   0.221891 0.962745 0.386550 0.461714
C27   C     C_R   0.153869 0.866585 0.417249 -0.345449
C28   C     C_R   0.289765 0.828349 0.515891 0.374522
C29   C     C_R   0.711664 0.664686 0.351615 -0.250339
C30   C     C_R   0.792771 0.635857 0.373868 0.353096
C31   C     C_R   0.714719 0.509688 0.488596 0.039339
C32   C     C_R   0.627330 0.534567 0.466128 -0.077025
C33   C     C_R   0.629266 0.615447 0.397137 -0.054538
C34   C     C_R   0.999470 0.499217 0.340472 0.831066
C35   C     C_R   0.540366 0.484899 0.510661 0.021760
C36   C     C_R   0.453156 0.511085 0.480274 -0.075583
C37   C     C_R   0.458945 0.591867 0.407933 0.283633
C38   C     C_R   0.549713 0.648245 0.373666 0.368611
C39   C     C_R   0.539789 0.412354 0.586673 -0.168822
C40   C     C_R   0.460959 0.370658 0.635427 -0.133672
C41   C     C_R   0.376323 0.395476 0.609132 0.085148
C42   C     C_R   0.367827 0.460566 0.528263 -0.006748
C43   C     C_R   0.300121 0.357337 0.663160 0.042549
C44   C     C_R   0.216704 0.383495 0.636212 0.068817
C45   C     C_3   0.030316 0.409605 0.978343 0.279307
C46   C     C_R   0.274800 0.473825 0.501772 0.006593
C47   C     C_3   0.883807 0.466307 0.932778 -0.114656
C48   C     C_3   0.881335 0.459118 0.033182 0.229703
C49   C     C_1   0.997466 0.495889 0.251344 -0.116621
C50   C     C_3   0.993657 0.492219 0.917157 -0.010906
Cu1   Cu    Cu3+1 0.081750 0.475690 0.522550 0.977962
Cu2   Cu    Cu3+1 0.918250 0.524310 0.477450 0.991883
H1    H     H_    0.985406 0.336668 0.107525 0.093686
H2    H     H_    0.611129 0.904446 0.713143 0.156031
H3    H     H_    0.075068 0.845135 0.391014 0.206525
H4    H     H_    0.372417 0.120811 0.319795 0.199070
H5    H     H_    0.787309 0.994114 0.691878 0.165132
H6    H     H_    0.686229 0.237966 0.462816 0.199205
H7    H     H_    0.966687 0.336767 0.967142 0.140114
H8    H     H_    0.435659 0.873628 0.663351 0.205761
H9    H     H_    0.254576 0.510521 0.438567 0.189093
H10   H     H_    0.160537 0.358533 0.679024 0.178796
H11   H     H_    0.468041 0.318777 0.695006 0.190527
H12   H     H_    0.712707 0.724965 0.296758 0.206484
H13   H     H_    0.720156 0.449520 0.540604 0.133030
H14   H     H_    0.862243 0.529992 0.895479 0.188130
H15   H     H_    0.602016 0.389198 0.613252 0.146162
H16   H     H_    0.135065 0.631087 0.925004 0.131242
H17   H     H_    0.023719 0.653027 0.902241 0.220737
H18   H     H_    0.141666 0.611270 0.073407 0.108734
N1    N     N_R   0.795410 0.560790 0.443550 -0.195737
N2    N     N_R   0.204590 0.439170 0.556520 -0.210486
O1    O     O_R   0.977910 0.338120 0.529720 -0.549637
O2    O     O_R   0.839850 0.379180 0.491640 -0.589590
O3    O     O_R   0.069060 0.479460 0.639610 -0.578845
O4    O     O_R   0.931000 0.520530 0.601530 -0.581069
O5    O     O_R   0.160150 0.620820 0.508360 -0.559085
O6    O     O_R   0.022090 0.661880 0.470280 -0.573404
O7    O     O_R   0.069000 0.479470 0.398470 -0.602404
O8    O     O_R   0.930940 0.520540 0.360390 -0.530435
O9    O     O_3   0.112727 0.397074 0.956954 -0.560451
C51   C     C_3   0.200442 0.486086 0.946671 0.121254
H19   H     H_    0.220801 0.531469 0.999428 0.176305
H20   H     H_    0.191167 0.532555 0.881680 0.144240
C52   C     C_3   0.288173 0.456863 0.948545 -0.730402
H21   H     H_    0.273098 0.416710 0.892954 0.268233
H22   H     H_    0.358531 0.525806 0.942753 0.201253
H23   H     H_    0.298633 0.406413 0.010841 0.254923
O10   O     O_3   0.136155 0.436598 0.123608 -0.589555
C53   C     C_3   0.154500 0.347652 0.161496 0.104170
H24   H     H_    0.140735 0.301061 0.110829 0.189285
H25   H     H_    0.105156 0.301554 0.212612 0.150846
C54   C     C_3   0.263743 0.375542 0.204824 -0.789920
H26   H     H_    0.274833 0.403542 0.266608 0.223607
H27   H     H_    0.282935 0.307739 0.221116 0.224243
H28   H     H_    0.315371 0.434750 0.160358 0.250674
O11   O     O_3   0.032710 0.673243 0.051725 -0.537622
C55   C     C_3   0.114688 0.767782 0.052210 0.056130
H29   H     H_    0.157573 0.786929 0.996743 0.141659
H30   H     H_    0.165937 0.767339 0.115213 0.139847
C56   C     C_3   0.074969 0.849614 0.044006 -0.713305
H31   H     H_    0.034132 0.834148 0.099873 0.257221
H32   H     H_    0.138918 0.924284 0.044300 0.194475
H33   H     H_    0.022738 0.851808 0.981719 0.261420
O12   O     O_3   0.320855 0.758605 0.576744 -0.591164
C57   C     C_3   0.382986 0.730655 0.541044 0.103220
H34   H     H_    0.442882 0.796376 0.508737 0.129593
H35   H     H_    0.336873 0.681746 0.491625 0.214675
C58   C     C_3   0.434028 0.672859 0.614304 -0.752115
H36   H     H_    0.376503 0.602302 0.644034 0.255055
H37   H     H_    0.486067 0.653743 0.588036 0.204338
H38   H     H_    0.478483 0.719709 0.666002 0.238917
I1    I     I_    0.990249 0.153684 0.661433 -0.328639
I2    I     I_    0.586914 0.189559 0.304701 -0.361533
O13   O     O_3   0.188162 0.029471 0.324166 -0.571736
C59   C     C_3   0.156994 0.994826 0.242745 0.047159
H39   H     H_    0.084600 0.927689 0.243659 0.174662
H40   H     H_    0.215085 0.975277 0.225671 0.139988
C60   C     C_3   0.140423 0.078077 0.171427 -0.759484
H41   H     H_    0.212771 0.144520 0.165599 0.242076
H42   H     H_    0.111376 0.050495 0.107617 0.215581
H43   H     H_    0.084704 0.101275 0.187428 0.249072
O14   O     O_3   0.559315 0.736542 0.314368 -0.571981
C61   C     C_3   0.596714 0.817695 0.361794 0.052889
H44   H     H_    0.668426 0.821633 0.405765 0.143793
H45   H     H_    0.540159 0.809947 0.401626 0.162470
C62   C     C_3   0.618170 0.916884 0.298160 -0.710860
H46   H     H_    0.547958 0.917171 0.254435 0.248471
H47   H     H_    0.647864 0.980843 0.335229 0.222996
H48   H     H_    0.675145 0.927239 0.257765 0.254909
I3    I     I_    0.902453 0.713563 0.287640 -0.371980
O15   O     O_3   0.383951 0.629495 0.379428 -0.637903
C63   C     C_3   0.339961 0.614833 0.292050 0.117387
H49   H     H_    0.268820 0.546529 0.292723 0.149803
H50   H     H_    0.388669 0.605173 0.253369 0.170276
C64   C     C_3   0.313752 0.704791 0.244429 -0.763508
H51   H     H_    0.381507 0.776036 0.248340 0.267917
H52   H     H_    0.286169 0.697040 0.174531 0.184336
H53   H     H_    0.254268 0.708131 0.274199 0.222537
I4    I     I_    0.306039 0.265015 0.788185 -0.344331
I5    I     I_    0.769824 0.342929 0.867819 -0.327423
I6    I     I_    0.784550 0.311791 0.096262 -0.265763
I7    I     I_    0.805777 0.552742 0.044945 -0.200233

loop_
_geom_bond_atom_site_label_1
_geom_bond_atom_site_label_2
_ccdc_geom_bond_type
C10   C27   A    
C54   H26   S    
C41   C42   A    
C36   C42   A    
C35   C36   A    
C9    C14   A    
C3    C6    S    
C4    H18   S    
C30   N1    A    
O14   C61   S    
C30   I3    S    
C52   H21   S    
C25   C28   A    
C26   C27   A    
C56   H31   S    
C40   H11   S    
C1    O2    A    
C36   C37   A    
C37   C38   A    
C24   C26   A    
Cu2   O2    S    
C5    H16   S    
C27   H3    S    
C52   H23   S    
C57   H34   S    
C15   C16   A    
C29   C33   A    
C3    C48   S    
C59   H39   S    
C31   H13   S    
C18   C19   A    
C42   C46   A    
C9    C13   A    
C26   O13   S    
C5    H17   S    
C34   O8    A    
C31   C32   A    
O15   C63   S    
C63   C64   S    
C47   H14   S    
C46   N2    A    
C38   O14   S    
C16   C20   A    
C52   H22   S    
C29   H12   S    
C56   H32   S    
C4    O11   S    
C41   C43   A    
C18   C25   A    
C62   H47   S    
C64   H53   S    
Cu2   O6    S    
O11   C55   S    
C47   C50   S    
Cu1   O7    S    
C60   H42   S    
C2    C45   S    
C14   H6    S    
C46   H9    S    
Cu1   Cu2   S    
C32   C35   A    
C7    C8    T    
C1    C9    S    
C24   C25   A    
C64   H52   S    
C58   H38   S    
C39   C40   A    
C21   I2    S    
C22   H4    S    
C44   H10   S    
O9    C51   S    
C48   I7    S    
C2    O10   S    
C35   C39   A    
C43   C44   A    
Cu1   O5    S    
C29   C30   A    
C34   O7    A    
C11   C16   A    
C53   H25   S    
C47   C48   S    
C28   O12   S    
C8    C12   S    
C17   C18   A    
C48   I6    S    
C43   I4    S    
C23   O5    A    
C11   H5    S    
C61   C62   S    
C20   H2    S    
C40   C41   A    
C51   H19   S    
C54   H28   S    
C51   H20   S    
C12   O4    A    
C63   H49   S    
C19   H8    S    
C22   C24   A    
C5    C50   S    
Cu1   N2    S    
C3    C4    S    
C55   C56   S    
C53   C54   S    
C61   H45   S    
C60   H43   S    
C10   C28   A    
C15   C17   A    
C45   H7    S    
C34   C49   S    
C39   H15   S    
C45   O9    S    
Cu1   O1    S    
C7    C50   S    
Cu1   O3    S    
C64   H51   S    
Cu2   O4    S    
C2    H1    S    
C60   H41   S    
C59   C60   S    
C10   C23   S    
C56   H33   S    
C51   C52   S    
O12   C57   S    
C47   I5    S    
C55   H30   S    
C33   C38   A    
C37   O15   S    
C1    O1    A    
C32   C33   A    
C19   C20   A    
C58   H37   S    
C2    C3    S    
C62   H48   S    
Cu2   N1    S    
Cu2   O8    S    
C58   H36   S    
C11   C13   A    
C53   H24   S    
C57   H35   S    
C45   C50   S    
C31   N1    A    
C59   H40   S    
C44   N2    A    
C23   O6    A    
C17   C21   A    
C4    C5    S    
C54   H27   S    
C55   H29   S    
C12   O3    A    
C63   H50   S    
C14   C15   A    
O13   C59   S    
O10   C53   S    
C21   C22   A    
C13   I1    S    
C6    C49   T    
C62   H46   S    
C61   H44   S    
C57   C58   S    
