data_mof_unit_62603.cif
_audit_creation_date              2012-12-10T19:42:59-0500
_audit_creation_method            fapswitch 2.2
_symmetry_space_group_name_H-M    P1
_symmetry_Int_Tables_number       1
_space_group_crystal_system       triclinic
_cell_length_a                    30.614943
_cell_length_b                    30.644269
_cell_length_c                    22.25883
_cell_angle_alpha                 89.999885
_cell_angle_beta                  46.13343
_cell_angle_gamma                 90.000321
_cell_volume                      15055.4434325

loop_
_atom_site_label
_atom_site_type_symbol
_atom_type_description
_atom_site_fract_x
_atom_site_fract_y
_atom_site_fract_z
_atom_type_partial_charge
C1    C     C_R   0.189272 0.190036 0.501447 0.931658
C2    C     C_R   0.810848 0.190020 0.498327 0.927228
C3    C     C_R   0.689152 0.690020 0.501673 0.927328
C4    C     C_R   0.310726 0.690036 0.498557 0.931481
C5    C     C_R   0.142409 0.160533 0.456079 -0.085297
C6    C     C_R   0.859487 0.161134 0.541497 -0.080478
C7    C     C_R   0.640505 0.661137 0.458512 -0.080496
C8    C     C_R   0.357569 0.660528 0.543952 -0.085563
C9    C     C_R   0.154747 0.157107 0.505075 -0.228923
C10   C     C_R   0.845434 0.157041 0.494571 -0.231506
C11   C     C_R   0.654567 0.657041 0.505428 -0.231564
C12   C     C_R   0.345249 0.657109 0.494934 -0.228944
C13   C     C_R   0.134830 0.119528 0.555345 0.539153
C14   C     C_R   0.863635 0.118778 0.446414 0.541790
C15   C     C_R   0.636374 0.618773 0.553573 0.542045
C16   C     C_R   0.365192 0.619541 0.444637 0.538751
C17   C     C_R   0.101928 0.087442 0.554901 -0.333988
C18   C     C_R   0.896491 0.086676 0.446994 -0.336452
C19   C     C_R   0.603519 0.586672 0.552993 -0.336298
C20   C     C_R   0.398092 0.587456 0.445076 -0.333889
C21   C     C_R   0.093662 0.091541 0.500403 -0.117996
C22   C     C_R   0.906385 0.091520 0.499585 -0.116857
C23   C     C_R   0.593616 0.591519 0.500413 -0.116939
C24   C     C_R   0.406341 0.591543 0.499596 -0.118060
C25   C     C_R   0.115680 0.128134 0.450856 0.016689
C26   C     C_R   0.886147 0.128806 0.546969 0.017426
C27   C     C_R   0.613846 0.628809 0.453039 0.017485
C28   C     C_R   0.384302 0.628129 0.549168 0.016511
C29   C     C_3   0.120671 0.149935 0.386399 -0.521991
C30   C     C_3   0.883586 0.151559 0.608572 -0.531228
C31   C     C_3   0.616395 0.651566 0.391450 -0.531393
C32   C     C_3   0.379290 0.649919 0.613650 -0.521774
C33   C     C_3   0.151813 0.187417 0.391423 0.435726
C34   C     C_3   0.852526 0.188982 0.603287 0.436890
C35   C     C_3   0.647456 0.688990 0.396735 0.436897
C36   C     C_3   0.348145 0.687402 0.608633 0.435901
C37   C     C_R   0.018212 0.246849 0.042713 -0.174884
C38   C     C_R   0.981810 0.254019 0.957286 -0.176607
C39   C     C_R   0.518010 0.745042 0.042718 -0.176056
C40   C     C_R   0.482026 0.755820 0.957282 -0.175391
C41   C     C_R   0.956749 0.250430 0.086736 0.166721
C42   C     C_R   0.043272 0.250421 0.913263 0.166591
C43   C     C_R   0.456755 0.750427 0.086737 0.166639
C44   C     C_R   0.543279 0.750419 0.913264 0.166574
C45   C     C_R   0.330597 0.249954 0.338989 0.894579
C46   C     C_R   0.669396 0.249924 0.661021 0.894061
C47   C     C_R   0.830603 0.749925 0.338978 0.894087
C48   C     C_R   0.169403 0.749954 0.661011 0.894550
C49   C     C_R   0.938483 0.254024 0.044156 -0.181821
C50   C     C_R   0.061539 0.246847 0.955844 -0.179904
C51   C     C_R   0.438698 0.755826 0.044152 -0.180421
C52   C     C_R   0.561338 0.745040 0.955849 -0.181259
C53   C     C_1   0.912377 0.250338 0.175656 -0.065638
C54   C     C_1   0.087631 0.250332 0.824344 -0.065477
C55   C     C_1   0.412379 0.750335 0.175656 -0.065402
C56   C     C_1   0.587636 0.750333 0.824344 -0.065654
C57   C     C_1   0.124952 0.250219 0.749686 -0.166077
C58   C     C_1   0.875049 0.250222 0.250314 -0.166328
C59   C     C_1   0.624954 0.750221 0.749686 -0.166371
C60   C     C_1   0.375051 0.750220 0.250314 -0.165992
C61   C     C_R   0.360065 0.380726 0.457101 0.135724
C62   C     C_R   0.640270 0.380855 0.542468 0.137377
C63   C     C_R   0.859732 0.880854 0.457529 0.137347
C64   C     C_R   0.139955 0.880733 0.542875 0.135763
C65   C     C_R   0.342027 0.342496 0.502048 -0.101147
C66   C     C_R   0.657961 0.342498 0.497959 -0.100400
C67   C     C_R   0.842040 0.842498 0.502040 -0.100435
C68   C     C_R   0.157973 0.842497 0.497952 -0.101130
C69   C     C_R   0.356843 0.336329 0.548924 -0.211401
C70   C     C_R   0.642782 0.336207 0.451537 -0.211308
C71   C     C_R   0.857215 0.836207 0.548465 -0.210982
C72   C     C_R   0.143137 0.836323 0.451101 -0.211665
C73   C     C_R   0.388720 0.368857 0.549522 -0.218962
C74   C     C_R   0.610906 0.368735 0.450939 -0.219692
C75   C     C_R   0.889092 0.868735 0.549064 -0.219483
C76   C     C_R   0.111260 0.868851 0.450503 -0.219100
C77   C     C_R   0.407203 0.406713 0.501218 -0.093512
C78   C     C_R   0.592793 0.406723 0.498789 -0.092187
C79   C     C_R   0.907206 0.906723 0.501212 -0.092237
C80   C     C_R   0.092797 0.906714 0.498783 -0.093413
C81   C     C_R   0.392363 0.411117 0.455413 0.132042
C82   C     C_R   0.607983 0.411256 0.544154 0.132237
C83   C     C_R   0.892019 0.911256 0.455844 0.132273
C84   C     C_R   0.107657 0.911125 0.544563 0.132056
C85   C     C_3   0.396622 0.440493 0.398265 -0.511540
C86   C     C_3   0.604203 0.440808 0.600695 -0.512127
C87   C     C_3   0.895803 0.940806 0.399298 -0.512157
C88   C     C_3   0.103424 0.940510 0.601678 -0.511628
C89   C     C_R   0.309909 0.309950 0.500244 0.874743
C90   C     C_R   0.690091 0.309951 0.499752 0.875840
C91   C     C_R   0.809910 0.809951 0.500247 0.876036
C92   C     C_R   0.190091 0.809950 0.499756 0.874640
C93   C     C_3   0.360017 0.405345 0.399437 -0.475784
C94   C     C_3   0.640792 0.405652 0.599536 -0.474916
C95   C     C_3   0.859215 0.905650 0.400456 -0.474791
C96   C     C_3   0.140029 0.905363 0.600506 -0.475692
C97   C     C_R   0.560237 0.439926 0.499697 0.883829
C98   C     C_R   0.439768 0.439917 0.500304 0.884170
C99   C     C_R   0.060233 0.939918 0.499697 0.884130
C100  C     C_R   0.939762 0.939926 0.500303 0.883844
C101  C     C_R   0.060351 0.059798 0.499899 0.919374
C102  C     C_R   0.939688 0.059813 0.500097 0.920047
C103  C     C_R   0.560312 0.559813 0.499902 0.920094
C104  C     C_R   0.439649 0.559798 0.500101 0.919378
C105  C     C_R   0.169349 0.250035 0.661104 0.914314
C106  C     C_R   0.830650 0.250037 0.338896 0.912072
C107  C     C_R   0.669350 0.750036 0.661104 0.912397
C108  C     C_R   0.330651 0.750036 0.338896 0.914048
C109  C     C_R   0.484172 0.228970 0.956691 -0.042056
C110  C     C_R   0.440359 0.228837 0.044467 -0.037602
C111  C     C_R   0.060287 0.730037 0.955519 -0.037762
C112  C     C_R   0.016478 0.730183 0.043294 -0.042040
C113  C     C_R   0.541047 0.248400 0.913178 0.098379
C114  C     C_R   0.454313 0.248126 0.086956 0.101069
C115  C     C_R   0.045718 0.748177 0.913043 0.101002
C116  C     C_R   0.958989 0.748470 0.086820 0.098419
C117  C     C_R   0.554107 0.267351 0.956306 -0.196699
C118  C     C_R   0.510909 0.267217 0.042852 -0.198007
C119  C     C_R   0.988518 0.766144 0.957159 -0.198023
C120  C     C_R   0.945322 0.766285 0.043706 -0.196760
C121  C     C_1   0.586783 0.249226 0.824060 -0.047973
C122  C     C_1   0.411016 0.248828 0.176022 -0.046404
C123  C     C_1   0.088994 0.748846 0.823978 -0.046522
C124  C     C_1   0.913236 0.749263 0.175939 -0.047981
C125  C     C_1   0.374450 0.249374 0.250570 -0.172299
C126  C     C_1   0.624788 0.249712 0.749478 -0.172147
C127  C     C_1   0.875220 0.749727 0.250522 -0.172146
C128  C     C_1   0.125551 0.749377 0.749430 -0.172368
H1    H     H_    0.032529 0.244049 0.075474 0.144287
H2    H     H_    0.967491 0.256784 0.924525 0.142603
H3    H     H_    0.532164 0.740841 0.075482 0.143092
H4    H     H_    0.467868 0.759986 0.924517 0.143959
H5    H     H_    0.343266 0.306982 0.585430 0.164072
H6    H     H_    0.656078 0.306763 0.415374 0.163240
H7    H     H_    0.843918 0.806763 0.584630 0.163280
H8    H     H_    0.156698 0.806971 0.414614 0.164071
H9    H     H_    0.399607 0.364261 0.586186 0.158737
H10   H     H_    0.599738 0.364042 0.414624 0.157159
H11   H     H_    0.900258 0.864043 0.585380 0.157219
H12   H     H_    0.100357 0.864250 0.413858 0.158703
H13   H     H_    0.371409 0.471521 0.429031 0.191561
H14   H     H_    0.629568 0.471732 0.569460 0.190527
H15   H     H_    0.870440 0.971731 0.430529 0.190558
H16   H     H_    0.128645 0.971533 0.570888 0.191568
H17   H     H_    0.443933 0.444045 0.336786 0.214429
H18   H     H_    0.557008 0.444560 0.662307 0.216315
H19   H     H_    0.942999 0.944558 0.337687 0.216277
H20   H     H_    0.056119 0.944073 0.663164 0.214522
H21   H     H_    0.313827 0.416192 0.430316 0.211019
H22   H     H_    0.687118 0.416399 0.568206 0.210104
H23   H     H_    0.812889 0.916397 0.431783 0.210126
H24   H     H_    0.186226 0.916204 0.569602 0.211022
H25   H     H_    0.386311 0.388400 0.338737 0.201194
H26   H     H_    0.614602 0.388895 0.660382 0.203384
H27   H     H_    0.885405 0.888893 0.339611 0.203432
H28   H     H_    0.113740 0.888427 0.661214 0.201290
H29   H     H_    0.597837 0.282288 0.922869 0.152525
H30   H     H_    0.521632 0.282076 0.075525 0.149389
H31   H     H_    0.977321 0.780117 0.924496 0.149494
H32   H     H_    0.901118 0.780341 0.077151 0.152527
H33   H     H_    0.083202 0.059567 0.596193 0.161669
H34   H     H_    0.913998 0.058228 0.407261 0.160119
H35   H     H_    0.586018 0.558220 0.592719 0.160153
H36   H     H_    0.416828 0.559591 0.403761 0.161713
H37   H     H_    0.151861 0.132141 0.326075 0.186426
H38   H     H_    0.852827 0.134710 0.669895 0.180801
H39   H     H_    0.647151 0.634722 0.330123 0.180662
H40   H     H_    0.348099 0.632115 0.673963 0.186348
H41   H     H_    0.075873 0.157976 0.409254 0.196126
H42   H     H_    0.929191 0.159207 0.583375 0.196696
H43   H     H_    0.570786 0.659213 0.416658 0.196696
H44   H     H_    0.424081 0.657966 0.590816 0.196195
H45   H     H_    0.200656 0.190756 0.333541 0.100234
H46   H     H_    0.804151 0.193251 0.662011 0.083780
H47   H     H_    0.695828 0.693263 0.338007 0.083639
H48   H     H_    0.299298 0.690731 0.666508 0.100252
H49   H     H_    0.109099 0.244047 0.921959 0.142911
H50   H     H_    0.890921 0.256793 0.078042 0.140872
H51   H     H_    0.608735 0.740840 0.921968 0.141505
H52   H     H_    0.391297 0.759995 0.078034 0.142330
O1    O     O_R   0.178350 0.230070 0.500010 -0.619623
O2    O     O_R   0.821650 0.230070 0.499990 -0.619539
O3    O     O_R   0.678350 0.730070 0.500010 -0.619507
O4    O     O_R   0.321650 0.730070 0.499990 -0.619570
O5    O     O_R   0.511410 0.454120 0.568820 -0.624611
O6    O     O_R   0.488590 0.454120 0.431180 -0.626151
O7    O     O_R   0.011410 0.954120 0.568820 -0.626075
O8    O     O_R   0.988590 0.954120 0.431180 -0.624668
O9    O     O_R   0.080260 0.045800 0.431140 -0.619313
O10   O     O_R   0.919740 0.045800 0.568860 -0.620792
O11   O     O_R   0.580260 0.545800 0.431140 -0.620896
O12   O     O_R   0.419740 0.545800 0.568860 -0.619283
O13   O     O_R   0.011410 0.045760 0.568860 -0.628482
O14   O     O_R   0.988590 0.045760 0.431140 -0.627278
O15   O     O_R   0.511410 0.545760 0.568860 -0.627145
O16   O     O_R   0.488590 0.545760 0.431140 -0.628586
O17   O     O_R   0.230030 0.178320 0.500020 -0.591538
O18   O     O_R   0.769970 0.178320 0.499980 -0.588635
O19   O     O_R   0.730030 0.678320 0.500020 -0.588709
O20   O     O_R   0.269970 0.678320 0.499980 -0.591796
O21   O     O_R   0.285150 0.275890 0.378020 -0.609237
O22   O     O_R   0.714850 0.275890 0.621980 -0.614417
O23   O     O_R   0.785150 0.775890 0.378020 -0.614361
O24   O     O_R   0.214850 0.775890 0.621980 -0.609098
O25   O     O_R   0.336840 0.224130 0.378040 -0.620836
O26   O     O_R   0.663160 0.224130 0.621960 -0.614564
O27   O     O_R   0.836840 0.724130 0.378040 -0.614624
O28   O     O_R   0.163160 0.724130 0.621960 -0.621000
O29   O     O_R   0.269970 0.321680 0.499990 -0.623282
O30   O     O_R   0.730030 0.321680 0.500010 -0.623696
O31   O     O_R   0.769970 0.821680 0.499990 -0.623675
O32   O     O_R   0.230030 0.821680 0.500010 -0.623277
O33   O     O_R   0.321650 0.269930 0.500010 -0.627285
O34   O     O_R   0.678350 0.269930 0.499990 -0.625714
O35   O     O_R   0.821650 0.769930 0.500010 -0.625712
O36   O     O_R   0.178350 0.769930 0.499990 -0.627243
O37   O     O_R   0.163160 0.275870 0.621980 -0.622744
O38   O     O_R   0.836840 0.275870 0.378020 -0.622026
O39   O     O_R   0.663160 0.775870 0.621980 -0.622195
O40   O     O_R   0.336840 0.775870 0.378020 -0.622536
O41   O     O_R   0.214850 0.224110 0.621990 -0.607917
O42   O     O_R   0.785150 0.224110 0.378010 -0.608313
O43   O     O_R   0.714850 0.724110 0.621990 -0.608591
O44   O     O_R   0.285150 0.724110 0.378010 -0.607651
O45   O     O_R   0.580260 0.454160 0.431100 -0.623903
O46   O     O_R   0.419740 0.454160 0.568900 -0.622352
O47   O     O_R   0.080260 0.954160 0.431100 -0.622428
O48   O     O_R   0.919740 0.954160 0.568900 -0.623773
Zn1   Zn    Zn3+2 0.215490 0.284560 0.500000 0.977334
Zn2   Zn    Zn3+2 0.784510 0.284560 0.500000 0.975241
Zn3   Zn    Zn3+2 0.715490 0.784560 0.500000 0.975196
Zn4   Zn    Zn3+2 0.284510 0.784560 0.500000 0.977632
Zn5   Zn    Zn3+2 0.284510 0.215440 0.500020 0.975969
Zn6   Zn    Zn3+2 0.715490 0.215440 0.499980 0.983301
Zn7   Zn    Zn3+2 0.784510 0.715440 0.500020 0.982979
Zn8   Zn    Zn3+2 0.215490 0.715440 0.499980 0.975867
Zn9   Zn    Zn3+2 0.045990 1.000000 0.408050 0.959453
Zn10  Zn    Zn3+2 0.954010 0.000000 0.591950 0.953786
Zn11  Zn    Zn3+2 0.545990 0.500000 0.408050 0.953282
Zn12  Zn    Zn3+2 0.454010 0.500000 0.591950 0.959715
C129  C     C_1   0.381454 0.209104 0.090766 0.174589
N1    N     N_1   0.334436 0.193372 0.127787 -0.208017
C130  C     C_1   0.470955 0.209344 0.911474 0.177519
N2    N     N_1   0.460430 0.193687 0.875357 -0.191206
C131  C     C_1   0.030326 0.711734 0.088499 0.177428
N3    N     N_1   0.041351 0.697017 0.124608 -0.191103
C132  C     C_1   0.119812 0.711460 0.909207 0.174574
N4    N     N_1   0.167323 0.696648 0.872176 -0.207242
O49   O     O_3   0.142817 0.116929 0.609477 -0.595132
C133  C     C_3   0.172556 0.077676 0.596379 -0.279939
H53   H     H_    0.190642 0.080870 0.625428 0.193436
H54   H     H_    0.211752 0.070749 0.528907 0.150594
H55   H     H_    0.140316 0.049853 0.627222 0.153828
O50   O     O_3   0.854053 0.115572 0.394039 -0.593420
C134  C     C_3   0.825670 0.075608 0.406792 -0.282250
H56   H     H_    0.805134 0.078565 0.381065 0.193418
H57   H     H_    0.788428 0.067360 0.474159 0.149370
H58   H     H_    0.859386 0.048753 0.372546 0.155948
O51   O     O_3   0.645965 0.615563 0.605938 -0.593154
C135  C     C_3   0.674357 0.575600 0.593167 -0.282371
H59   H     H_    0.694899 0.578556 0.618886 0.193280
H60   H     H_    0.711595 0.567358 0.525796 0.149261
H61   H     H_    0.640646 0.548743 0.627409 0.156018
O52   O     O_3   0.357253 0.616942 0.390459 -0.595433
C136  C     C_3   0.327165 0.577817 0.403946 -0.279664
H62   H     H_    0.309360 0.580978 0.374519 0.193492
H63   H     H_    0.287738 0.571213 0.471475 0.150823
H64   H     H_    0.359079 0.549799 0.373745 0.153391
O53   O     O_3   0.121038 0.228323 0.416771 -0.582061
C137  C     C_3   0.065302 0.230032 0.501328 -0.219593
H65   H     H_    0.072933 0.230624 0.543323 0.182133
H66   H     H_    0.034404 0.202869 0.518578 0.142704
H67   H     H_    0.041941 0.260847 0.511499 0.176292
O54   O     O_3   0.884602 0.229446 0.574650 -0.585610
C138  C     C_3   0.939313 0.229865 0.489273 -0.220817
H68   H     H_    0.930075 0.229941 0.449070 0.182659
H69   H     H_    0.969773 0.202377 0.472151 0.143953
H70   H     H_    0.963970 0.260455 0.476329 0.176144
O55   O     O_3   0.615374 0.729452 0.425387 -0.585635
C139  C     C_3   0.560668 0.729864 0.510767 -0.220656
H71   H     H_    0.569915 0.729938 0.550962 0.182711
H72   H     H_    0.530210 0.702374 0.527890 0.143998
H73   H     H_    0.536007 0.760452 0.523725 0.176106
O56   O     O_3   0.378907 0.728312 0.583316 -0.581852
C140  C     C_3   0.434651 0.730035 0.498766 -0.219500
H74   H     H_    0.427033 0.730632 0.456756 0.182098
H75   H     H_    0.465553 0.702875 0.481513 0.142615
H76   H     H_    0.457999 0.760852 0.488622 0.176341

loop_
_geom_bond_atom_site_label_1
_geom_bond_atom_site_label_2
_ccdc_geom_bond_type
C97   O45   A    
C134  H57   S    
C37   C50   A    
C29   C33   S    
C109  C110  A    
C14   C18   A    
C83   C87   S    
C111  C112  A    
O10   Zn10  S    
C139  H73   S    
C112  C116  A    
C72   C76   A    
O20   Zn8   S    
O9    Zn9   S    
C88   C96   S    
O27   Zn7   S    
C66   C90   S    
C38   C49   A    
C106  O42   A    
C15   C19   A    
C34   O54   S    
O49   C133  S    
O50   C134  S    
C35   O55   S    
C37   C41   A    
C38   H2    S    
O56   C140  S    
C100  O8    A    
C139  H72   S    
C38   C42   A    
C140  H76   S    
C101  O9    A    
C113  C117  A    
C71   H7    S    
O32   Zn4   S    
C65   C69   A    
C39   H3    S    
O5    Zn12  S    
C35   H47   S    
C21   C101  S    
C109  C130  S    
O38   Zn2   S    
C133  H54   S    
C130  N2    T    
O47   Zn9   S    
C63   C95   S    
C134  H56   S    
C129  N1    T    
C137  H66   S    
C7    C27   A    
C20   H36   S    
O54   C138  S    
C8    C36   S    
C29   H37   S    
C100  O48   A    
C92   O32   A    
C9    C13   A    
C64   C84   A    
C91   O35   A    
O8    Zn9   S    
C86   C94   S    
O37   Zn1   S    
C85   C93   S    
O2    Zn2   S    
C23   C103  S    
C12   C16   A    
C16   O52   S    
O1    Zn1   S    
O52   C136  S    
C45   O25   A    
C87   C95   S    
C70   C74   A    
C3    O19   A    
O55   C139  S    
C94   H26   S    
C69   C73   A    
C120  H32   S    
C23   C27   A    
C4    C12   S    
C33   H45   S    
C136  H62   S    
O28   Zn8   S    
C4    O20   A    
C95   H27   S    
C60   C108  S    
C98   O6    A    
C109  C113  A    
C36   O56   S    
O22   Zn2   S    
C33   O53   S    
C44   C52   A    
C133  H55   S    
O21   Zn1   S    
C39   C52   A    
C40   H4    S    
C134  H58   S    
C45   O21   A    
C18   C22   A    
O53   C137  S    
C25   C29   S    
C137  H67   S    
C48   O28   A    
O34   Zn6   S    
C11   C15   A    
C87   H19   S    
C135  H61   S    
O33   Zn5   S    
C86   H18   S    
C99   O7    A    
C101  O13   A    
C7    C11   A    
C107  O43   A    
C76   H12   S    
C40   C51   A    
O11   Zn11  S    
C112  C131  S    
C63   C67   A    
C71   C75   A    
C96   H24   S    
O46   Zn12  S    
C57   C105  S    
C30   C34   S    
C27   C31   S    
C80   C84   A    
C1    C9    S    
C2    O2    A    
C79   C100  S    
C28   C32   S    
C138  H70   S    
C115  C123  S    
C139  H71   S    
O4    Zn4   S    
C91   O31   A    
O18   Zn6   S    
C85   H13   S    
C103  O15   A    
C62   C66   A    
C19   C23   A    
C68   C92   S    
C89   O29   A    
C133  H53   S    
C82   C86   S    
C117  H29   S    
C1    O1    A    
C116  C120  A    
C59   C107  S    
C6    C34   S    
O40   Zn4   S    
C63   C83   A    
C68   C72   A    
C58   C106  S    
C108  O40   A    
O24   Zn4   S    
C97   O5    A    
C17   C21   A    
O48   Zn10  S    
C140  H74   S    
C34   H46   S    
O19   Zn7   S    
O15   Zn12  S    
C48   C128  S    
C74   H10   S    
C78   C82   A    
O3    Zn3   S    
C14   O50   S    
O39   Zn3   S    
C46   O22   A    
C8    C12   A    
C3    C11   S    
C50   H49   S    
C78   C97   S    
C67   C91   S    
C93   H21   S    
C104  O16   A    
C47   O23   A    
C77   C98   S    
C16   C20   A    
C4    O4    A    
C119  C120  A    
C47   C127  S    
C136  H63   S    
C41   C53   S    
C114  C118  A    
C17   H33   S    
C42   C50   A    
C124  C127  T    
C107  O39   A    
C111  C115  A    
C135  H60   S    
C106  O38   A    
C138  H68   S    
C31   H39   S    
C26   C30   S    
C31   H43   S    
C115  C119  A    
C62   C94   S    
C80   C99   S    
C22   C26   A    
O45   Zn11  S    
C30   H42   S    
C118  H30   S    
C95   H23   S    
O16   Zn11  S    
C113  C121  S    
C51   H52   S    
C2    C10   S    
C64   C68   A    
C110  C114  A    
C90   O34   A    
O7    Zn10  S    
C15   O51   S    
C86   H14   S    
C24   C28   A    
C89   O33   A    
C49   H50   S    
C30   H38   S    
C43   C55   S    
C46   O26   A    
O35   Zn7   S    
C21   C25   A    
C19   H35   S    
O42   Zn6   S    
C69   H5    S    
C116  C124  S    
O41   Zn5   S    
C2    O18   A    
C7    C35   S    
C46   C126  S    
C119  H31   S    
C1    O17   A    
C76   C80   A    
C131  N3    T    
C135  H59   S    
C72   H8    S    
C5    C25   A    
C39   C43   A    
C53   C58   T    
C32   C36   S    
C36   H48   S    
C6    C26   A    
C32   H44   S    
C13   C17   A    
C94   H22   S    
C41   C49   A    
C13   O49   S    
C65   C89   S    
C105  O37   A    
C22   C102  S    
C56   C59   T    
C47   O27   A    
C3    O3    A    
O26   Zn6   S    
C87   H15   S    
C48   O24   A    
C138  H69   S    
C122  C125  T    
O25   Zn5   S    
C88   H20   S    
O44   Zn8   S    
C52   H51   S    
C90   O30   A    
C121  C126  T    
C140  H75   S    
C61   C81   A    
C117  C118  A    
C42   C54   S    
C79   C83   A    
C44   C56   S    
C18   H34   S    
C110  C129  S    
O17   Zn5   S    
C123  C128  T    
C96   H28   S    
C84   C88   S    
C73   H9    S    
C29   H41   S    
C43   C51   A    
C105  O41   A    
C85   H17   S    
C31   C35   S    
C93   H25   S    
C102  O10   A    
O36   Zn8   S    
C37   H1    S    
O23   Zn3   S    
C92   O36   A    
C64   C96   S    
C67   C71   A    
C5    C33   S    
O14   Zn9   S    
C62   C82   A    
O43   Zn7   S    
C20   C24   A    
C136  H64   S    
C99   O47   A    
O13   Zn10  S    
O30   Zn2   S    
O31   Zn3   S    
O12   Zn12  S    
C6    C10   A    
O29   Zn1   S    
O6    Zn11  S    
C114  C122  S    
C102  O14   A    
C61   C65   A    
C40   C44   A    
C103  O11   A    
C66   C70   A    
C8    C28   A    
C111  C132  S    
C77   C81   A    
C74   C78   A    
C45   C125  S    
C70   H6    S    
C32   H40   S    
C73   C77   A    
C137  H65   S    
C75   H11   S    
C5    C9    A    
C24   C104  S    
C55   C60   T    
C61   C93   S    
C75   C79   A    
C88   H16   S    
C81   C85   S    
O51   C135  S    
C132  N4    T    
C10   C14   A    
C108  O44   A    
C98   O46   A    
C54   C57   T    
C104  O12   A    
