data_mof_unit_31223.cif
_audit_creation_date              2013-03-05T16:44:17-0500
_audit_creation_method            fapswitch 2.2
_symmetry_space_group_name_H-M    P1
_symmetry_Int_Tables_number       1
_space_group_crystal_system       triclinic
_cell_length_a                    23.38846
_cell_length_b                    10.662047
_cell_length_c                    9.901582
_cell_angle_alpha                 89.352948
_cell_angle_beta                  88.069397
_cell_angle_gamma                 90.979368
_cell_volume                      2467.21009546

loop_
_atom_site_label
_atom_site_type_symbol
_atom_site_description
_atom_site_fract_x
_atom_site_fract_y
_atom_site_fract_z
_atom_type_partial_charge
O1    O     O_R   0.500010 0.316790 0.614690 -0.627351
O2    O     O_R   0.500000 0.316760 0.385350 -0.572853
C1    C     C_R   0.504070 0.260337 0.500333 0.892064
O3    O     O_R   0.416160 0.499980 0.614700 -0.578733
O4    O     O_R   0.416150 0.499940 0.385360 -0.606700
C2    C     C_R   0.389630 0.497817 0.501629 0.890714
Zn1   Zn    Zn3+2 0.500000 0.500020 0.653130 0.972762
Zn2   Zn    Zn3+2 0.500000 0.499980 0.346870 0.945807
O5    O     O_R   0.500000 0.683240 0.614650 -0.605199
O6    O     O_R   0.499990 0.683210 0.385310 -0.651895
O7    O     O_R   0.583850 0.500060 0.614640 -0.615521
O8    O     O_R   0.583840 0.500020 0.385300 -0.673390
C3    C     C_R   0.501745 0.740001 0.499341 0.899883
C4    C     C_R   0.611085 0.496175 0.498288 0.849482
C5    C     C_R   0.879853 0.551177 0.585293 0.464863
N1    N     N_R   0.852225 0.444347 0.545937 -0.372075
C6    C     C_R   0.880584 0.337191 0.515180 0.491278
C7    C     C_R   0.940158 0.336883 0.514208 -0.015377
C8    C     C_R   0.969897 0.446014 0.554071 -0.009922
C9    C     C_R   0.939660 0.552926 0.598493 -0.099345
C10   C     C_R   0.970474 0.231622 0.470145 -0.117198
C11   C     C_R   0.029893 0.235682 0.460188 -0.139822
C12   C     C_R   0.060050 0.344266 0.496471 -0.027192
C13   C     C_R   0.030071 0.448698 0.546280 -0.019644
C14   C     C_R   0.060238 0.556468 0.585705 -0.061675
C15   C     C_R   0.030544 0.659245 0.637191 -0.127847
C16   C     C_R   0.970693 0.658453 0.646859 -0.032219
C17   C     C_R   0.119706 0.351683 0.483325 0.548609
N2    N     N_R   0.148267 0.457010 0.523732 -0.348951
C18   C     C_R   0.119958 0.558115 0.574931 0.498889
O9    O     O_2   0.849299 0.655833 0.605362 -0.553299
O10   O     O_2   0.851027 0.232913 0.481562 -0.527630
H1    H     H_    0.948367 0.146902 0.439898 0.208837
H2    H     H_    0.052045 0.153855 0.423226 0.200761
O11   O     O_2   0.148999 0.255142 0.429754 -0.557627
O12   O     O_2   0.149721 0.659354 0.616588 -0.545328
H3    H     H_    0.054134 0.740098 0.672756 0.222765
C19   C     C_R   0.236556 0.551971 0.428926 -0.143710
H4    H     H_    0.211566 0.614071 0.367924 0.167746
C20   C     C_R   0.295750 0.564165 0.424561 -0.239956
H5    H     H_    0.316351 0.635864 0.360565 0.157700
C21   C     C_R   0.327978 0.485170 0.504343 -0.017634
C22   C     C_R   0.301425 0.389562 0.582227 -0.234605
H6    H     H_    0.327140 0.322877 0.635152 0.117341
C23   C     C_R   0.241902 0.379719 0.592143 0.269876
C24   C     C_R   0.209331 0.461942 0.514334 0.271277
C25   C     C_R   0.770502 0.466180 0.398886 0.013337
C26   C     C_R   0.711048 0.482625 0.383735 -0.099707
C27   C     C_R   0.673825 0.477825 0.500217 -0.190977
C28   C     C_R   0.696656 0.453424 0.627489 -0.151179
H7    H     H_    0.668849 0.446064 0.717010 0.206759
C29   C     C_R   0.754931 0.439134 0.643411 0.008725
C30   C     C_R   0.791829 0.448165 0.529186 0.130444
C31   C     C_R   0.507520 0.062027 0.622506 0.112776
C32   C     C_R   0.516661 0.129494 0.502379 -0.153547
C33   C     C_R   0.538194 0.066411 0.386693 0.217814
C34   C     C_R   0.533536 0.935777 0.384960 -0.286477
H8    H     H_    0.545647 0.885736 0.294098 0.169469
C35   C     C_R   0.511556 0.871604 0.499967 -0.147378
C36   C     C_R   0.505095 0.934588 0.621111 0.158354
C37   C     C_3   0.458437 0.926295 0.727515 -0.449460
C38   C     C_3   0.461592 0.068226 0.730550 -0.513984
H9    H     H_    0.417521 0.888818 0.688825 0.207057
H10   H     H_    0.472707 0.881160 0.822103 0.216121
H11   H     H_    0.422133 0.113975 0.696263 0.194308
H12   H     H_    0.479158 0.103190 0.825970 0.214105
C39   C     C_R   0.452871 0.462388 0.074737 0.051670
N3    N     N_R   0.499610 0.499140 0.142800 -0.165515
C40   C     C_R   0.541798 0.562973 0.066268 -0.028800
C41   C     C_R   0.543241 0.555363 0.922270 -0.083362
H13   H     H_    0.577858 0.598812 0.862352 0.202969
N4    N     N_R   0.499610 0.499180 0.857150 -0.141263
C42   C     C_R   0.451383 0.468984 0.933985 0.204948
C43   C     C_3   0.413376 0.354213 0.931030 -0.366629
C44   C     C_3   0.417837 0.343955 0.086555 0.330044
H14   H     H_    0.433957 0.278780 0.873002 0.140699
C45   C     C_2   0.689313 0.510203 0.248202 0.538995
H15   H     H_    0.653826 0.456570 0.209731 0.062935
O13   O     O_2   0.711635 0.593156 0.177454 -0.472002
C46   C     C_2   0.777277 0.414782 0.779981 0.511127
H16   H     H_    0.822447 0.398655 0.792767 0.072469
O14   O     O_2   0.745450 0.412087 0.880389 -0.514686
N5    N     N_2   0.562915 0.131980 0.272559 -0.295204
H17   H     H_    0.561089 0.082947 0.183522 0.226498
C47   C     C_3   0.619802 0.181680 0.293274 -0.691820
H18   H     H_    0.649713 0.103978 0.312111 0.255220
H19   H     H_    0.619628 0.246286 0.380324 0.224739
H20   H     H_    0.635233 0.234339 0.201478 0.235225
C48   C     C_2   0.582281 0.651445 0.128292 0.403537
H21   H     H_    0.580743 0.668869 0.234753 0.129718
O15   O     O_2   0.617318 0.711576 0.058624 -0.538377
C49   C     C_2   0.353910 0.380779 0.885996 0.412741
H22   H     H_    0.323735 0.303244 0.877259 0.045995
O16   O     O_2   0.338718 0.487548 0.861715 -0.549669
N6    N     N_2   0.365799 0.365912 0.168876 -0.261119
H23   H     H_    0.346065 0.449887 0.149764 0.234235
C50   C     C_3   0.325825 0.263557 0.198859 -0.712054
H24   H     H_    0.285826 0.300969 0.245439 0.242761
H25   H     H_    0.343797 0.198647 0.273881 0.253360
H26   H     H_    0.314734 0.213345 0.105569 0.220566
N7    N     N_2   0.451577 0.238227 0.132134 -0.245547
H27   H     H_    0.494925 0.249047 0.111514 0.234192
C51   C     C_3   0.431334 0.111764 0.104831 -0.796533
H28   H     H_    0.467490 0.053289 0.068718 0.218373
H29   H     H_    0.398517 0.110308 0.026414 0.238123
H30   H     H_    0.413648 0.067487 0.199427 0.256232
C52   C     C_2   0.942991 0.765585 0.716134 0.502085
H31   H     H_    0.903394 0.752045 0.774903 0.128088
O17   O     O_2   0.965162 0.870187 0.711552 -0.557478
N8    N     N_2   0.215230 0.286455 0.678344 -0.286963
H32   H     H_    0.240214 0.209163 0.694160 0.223863
C53   C     C_3   0.190485 0.333263 0.803486 -0.721148
H33   H     H_    0.170467 0.254206 0.862934 0.242760
H34   H     H_    0.156811 0.402335 0.783684 0.251012
H35   H     H_    0.224030 0.378008 0.864432 0.250866
C54   C     C_2   0.811700 0.466119 0.280660 0.538704
H36   H     H_    0.854866 0.503075 0.290293 0.045044
O18   O     O_2   0.798834 0.419636 0.173468 -0.506138

loop_
_geom_bond_atom_site_label_1
_geom_bond_atom_site_label_2
_geom_bond_distance
_ccdc_geom_bond_type
C32   C33   1.417128 A    
N7    H27   1.031682 S    
C7    C10   1.403575 A    
C42   C43   1.501285 S    
N6    H23   1.032799 S    
C53   H34   1.108179 S    
C50   H24   1.111240 S    
C44   N6    1.465507 S    
C31   C36   1.359224 A    
C45   H15   1.082114 S    
C33   C34   1.395561 A    
Zn1   O7    1.985159 S    
C15   C16   1.399748 A    
C43   H14   1.101690 S    
N5    H17   1.031780 S    
C17   N2    1.367452 A    
C19   H4    1.082968 S    
O7    C4    1.298950 A    
C34   C35   1.400044 A    
C4    C27   1.484427 S    
C10   H1    1.083308 S    
C5    N1    1.366979 A    
C54   H36   1.085054 S    
C7    C8    1.412319 A    
C43   C49   1.505272 S    
C37   H9    1.112336 S    
O5    C3    1.285264 A    
N1    C30   1.429006 S    
N8    H32   1.031907 S    
C1    C32   1.430765 S    
C8    C9    1.418051 A    
C17   O11   1.349890 S    
N1    C6    1.363147 A    
C28   C29   1.388093 A    
C52   H31   1.083679 S    
C41   H13   1.081989 S    
C39   C42   1.396278 A    
C48   O15   1.221625 D    
C37   C38   1.514506 S    
C25   C30   1.411135 A    
C20   C21   1.395845 A    
C35   C36   1.386396 A    
N7    C51   1.452705 S    
C10   C11   1.389808 A    
C52   O17   1.221583 D    
C5    C9    1.409099 A    
O3    Zn1   2.010007 S    
C40   C48   1.478232 S    
C53   H33   1.110367 S    
C50   H25   1.107638 S    
C28   H7    1.082904 S    
C45   O13   1.221118 D    
C25   C54   1.490934 S    
C11   H2    1.083246 S    
C43   C44   1.549738 S    
C38   H12   1.108738 S    
C47   H19   1.109361 S    
C39   N3    1.357823 A    
C13   C14   1.404109 A    
N4    C42   1.370750 A    
C46   O14   1.221521 D    
Zn1   N4    2.019752 S    
C23   N8    1.424847 S    
N3    C40   1.387835 A    
C31   C38   1.493082 S    
C14   C15   1.399210 A    
C47   H18   1.111595 S    
C36   C37   1.491906 S    
O1    C1    1.289783 A    
C26   C45   1.479182 S    
C37   H10   1.111992 S    
C22   H6    1.081347 S    
N2    C18   1.368047 A    
C25   C26   1.417251 A    
C16   C52   1.485951 S    
Zn2   O8    2.010004 S    
C49   O16   1.222038 D    
C6    C7    1.393120 A    
C51   H29   1.110065 S    
C12   C17   1.397762 A    
C22   C23   1.394395 A    
O3    C2    1.298425 A    
C26   C27   1.421353 A    
N5    C47   1.445628 S    
O8    C4    1.306616 A    
Zn2   N3    2.021064 S    
C39   C44   1.494797 S    
C21   C22   1.395654 A    
C50   H26   1.108919 S    
C29   C30   1.400766 A    
C33   N5    1.422849 S    
C47   H20   1.109532 S    
C14   C18   1.397036 A    
Zn1   O5    1.986083 S    
C31   C32   1.391488 A    
C20   H5    1.083512 S    
C38   H11   1.112492 S    
O1    Zn1   1.994556 S    
O2    Zn2   1.986081 S    
C46   H16   1.084628 S    
O6    C3    1.288746 A    
O4    Zn2   1.985159 S    
N6    C50   1.446490 S    
C15   H3    1.084094 S    
C5    O9    1.348317 S    
C3    C35   1.418045 S    
C9    C16   1.424696 A    
C18   O12   1.350396 S    
N2    C24   1.428120 S    
C8    C13   1.406677 A    
C19   C20   1.387504 A    
C34   H8    1.083116 S    
O4    C2    1.288967 A    
C49   H22   1.083855 S    
C54   O18   1.221058 D    
O2    C1    1.288794 A    
C51   H30   1.108376 S    
C40   C41   1.428322 A    
N8    C53   1.447376 S    
C19   C24   1.402309 A    
C12   C13   1.410830 A    
C23   C24   1.410511 A    
Zn2   O6    1.994557 S    
C27   C28   1.408401 A    
C2    C21   1.445252 S    
C51   H28   1.111017 S    
C44   N7    1.462894 S    
C6    O10   1.349965 S    
C11   C12   1.401939 A    
C41   N4    1.359451 A    
C48   H21   1.071961 S    
C29   C46   1.487785 S    
C53   H35   1.110378 S    
