data_mof_unit_58469.cif
_audit_creation_date              2012-12-11T15:36:34-0500
_audit_creation_method            fapswitch 2.2
_symmetry_space_group_name_H-M    P1
_symmetry_Int_Tables_number       1
_space_group_crystal_system       triclinic
_cell_length_a                    15.060012
_cell_length_b                    15.064597
_cell_length_c                    34.792979
_cell_angle_alpha                 91.122708
_cell_angle_beta                  91.538988
_cell_angle_gamma                 60.076595
_cell_volume                      6838.67507931

loop_
_atom_site_label
_atom_site_type_symbol
_atom_type_description
_atom_site_fract_x
_atom_site_fract_y
_atom_site_fract_z
_atom_type_partial_charge
C1    C     C_R   0.610568 0.303911 0.443691 0.543729
C2    C     C_R   0.737680 0.674424 0.180736 0.027477
C3    C     C_R   0.609916 0.164779 0.832438 -0.062549
C4    C     C_R   0.690583 0.169678 0.851070 -0.120998
C5    C     C_R   0.717452 0.138346 0.888972 0.220581
C6    C     C_R   0.598358 0.268424 0.775535 -0.117296
C7    C     C_R   0.601961 0.277315 0.735941 -0.123433
C8    C     C_R   0.598671 0.204658 0.710979 0.024953
C9    C     C_R   0.585500 0.126376 0.726078 -0.119598
C10   C     C_R   0.582657 0.116967 0.765845 -0.115908
C11   C     C_R   0.592127 0.186261 0.790882 0.037420
C12   C     C_R   0.541258 0.207396 0.642800 -0.129670
C13   C     C_R   0.818441 0.604470 0.157830 -0.131026
C14   C     C_R   0.544589 0.228282 0.604110 -0.129454
C15   C     C_R   0.693887 0.245772 0.617671 -0.125885
C16   C     C_R   0.689782 0.225975 0.656349 -0.121653
C17   C     C_R   0.611216 0.210430 0.669400 0.029624
C18   C     C_R   0.618610 0.251596 0.591473 0.022334
C19   C     C_R   0.047101 0.738041 0.048057 0.542661
C20   C     C_R   0.746613 0.745793 0.063764 0.540097
C21   C     C_R   0.750439 0.041177 0.050495 0.532378
C22   C     C_R   0.018983 0.721788 0.940133 0.565100
C23   C     C_R   0.717340 0.729021 0.955190 0.537393
C24   C     C_R   0.818573 0.623755 0.118748 -0.134496
C25   C     C_R   0.720078 0.027878 0.942703 0.555663
C26   C     C_R   0.764084 0.570765 0.239360 -0.116407
C27   C     C_R   0.755072 0.565590 0.278935 -0.116166
C28   C     C_R   0.724838 0.653042 0.302076 0.059587
C29   C     C_R   0.710789 0.743538 0.285758 -0.071007
C30   C     C_R   0.719455 0.748816 0.246282 -0.120131
C31   C     C_R   0.742530 0.663559 0.222705 0.025799
C32   C     C_R   0.595610 0.723134 0.353855 0.271949
C33   C     C_R   0.593019 0.610048 0.449254 0.548894
C34   C     C_R   0.564359 0.711089 0.390088 -0.114123
C35   C     C_R   0.733497 0.566983 0.403395 -0.149389
C36   C     C_R   0.764952 0.577172 0.367287 -0.177879
C37   C     C_R   0.695850 0.653021 0.342057 0.040531
C38   C     C_R   0.632198 0.632185 0.414646 -0.021560
C39   C     C_R   0.114657 0.720839 0.081987 0.019815
C40   C     C_R   0.169173 0.622105 0.097755 -0.128862
C41   C     C_R   0.207493 0.608294 0.135312 -0.124191
C42   C     C_R   0.193387 0.692615 0.157577 0.025810
C43   C     C_R   0.150887 0.789302 0.140391 -0.131606
C44   C     C_R   0.305049 0.591049 0.441943 0.547299
C45   C     C_R   0.110977 0.803589 0.102745 -0.135029
C46   C     C_R   0.264605 0.714119 0.220892 -0.118016
C47   C     C_R   0.272302 0.704557 0.260950 -0.119861
C48   C     C_R   0.217392 0.666615 0.280388 0.028903
C49   C     C_R   0.156219 0.636862 0.258932 -0.116965
C50   C     C_R   0.151045 0.643527 0.219036 -0.127035
C51   C     C_R   0.204786 0.682460 0.199706 0.020229
C52   C     C_R   0.231395 0.568695 0.339661 -0.140089
C53   C     C_R   0.248007 0.553054 0.379127 -0.173545
C54   C     C_R   0.244554 0.715484 0.386379 0.266155
C55   C     C_R   0.605240 0.300898 0.553895 0.541553
C56   C     C_R   0.230945 0.728892 0.346496 -0.098005
C57   C     C_R   0.225840 0.655173 0.322759 -0.012369
C58   C     C_R   0.259585 0.623450 0.402821 0.016315
C59   C     C_R   0.719191 0.103899 0.085876 0.016912
C60   C     C_R   0.787972 0.126282 0.105864 -0.140078
C61   C     C_R   0.769170 0.161180 0.143846 -0.080708
C62   C     C_R   0.681829 0.173471 0.162274 0.047508
C63   C     C_R   0.607865 0.162018 0.141009 -0.138811
C64   C     C_R   0.626330 0.127583 0.103056 -0.130555
C65   C     C_R   0.585667 0.254221 0.222105 -0.185413
C66   C     C_R   0.586625 0.606121 0.559393 0.539604
C67   C     C_R   0.578029 0.257417 0.261970 -0.186387
C68   C     C_R   0.660910 0.188228 0.284998 -0.009346
C69   C     C_R   0.752307 0.113770 0.267775 0.279129
C70   C     C_R   0.757639 0.107498 0.227444 0.269506
C71   C     C_R   0.675858 0.180794 0.204569 -0.015308
C72   C     C_R   0.722872 0.226895 0.345841 -0.094815
C73   C     C_R   0.713270 0.250561 0.384725 -0.131121
C74   C     C_R   0.563818 0.229754 0.386562 -0.134306
C75   C     C_R   0.575643 0.202791 0.347520 -0.122010
C76   C     C_R   0.654794 0.202452 0.326944 0.070770
C77   C     C_R   0.298086 0.588962 0.551770 0.542188
C78   C     C_R   0.631811 0.255523 0.405311 0.021816
C79   C     C_R   0.694147 0.683818 0.920893 0.013156
C80   C     C_R   0.775541 0.601253 0.901770 -0.148463
C81   C     C_R   0.762293 0.575633 0.864262 -0.096993
C82   C     C_R   0.668173 0.633150 0.844894 0.038611
C83   C     C_R   0.583357 0.706484 0.865478 -0.144576
C84   C     C_R   0.596113 0.730542 0.903565 -0.144256
C85   C     C_R   0.583553 0.618961 0.784066 -0.172346
C86   C     C_R   0.576725 0.617634 0.743963 -0.140764
C87   C     C_R   0.650203 0.623106 0.721688 -0.022731
C88   C     C_R   0.737386 0.712704 0.102223 0.015040
C89   C     C_R   0.730148 0.630718 0.739819 -0.095740
C90   C     C_R   0.735409 0.636046 0.779907 0.263724
C91   C     C_R   0.663159 0.627242 0.802451 0.022972
C92   C     C_R   0.719211 0.550151 0.656945 -0.117802
C93   C     C_R   0.705176 0.547398 0.617099 -0.127901
C94   C     C_R   0.538161 0.700010 0.621886 -0.125146
C95   C     C_R   0.551385 0.701337 0.661616 -0.122711
C96   C     C_R   0.640808 0.625195 0.679471 0.029339
C97   C     C_R   0.613281 0.620959 0.599290 0.022218
C98   C     C_R   0.073912 0.695142 0.903580 -0.010828
C99   C     C_R   0.652823 0.777684 0.124703 -0.135603
C100  C     C_R   0.101614 0.761913 0.886655 0.248121
C101  C     C_R   0.137019 0.742701 0.849050 -0.165105
C102  C     C_R   0.141530 0.660933 0.827831 -0.007435
C103  C     C_R   0.119940 0.590149 0.844955 0.263873
C104  C     C_R   0.089377 0.606711 0.883587 -0.184543
C105  C     C_R   0.235665 0.570544 0.768835 -0.069429
C106  C     C_R   0.245770 0.567748 0.729153 -0.091585
C107  C     C_R   0.177298 0.652160 0.706857 0.062140
C108  C     C_R   0.100411 0.740397 0.724467 -0.114355
C109  C     C_R   0.090102 0.743129 0.764113 -0.128513
C110  C     C_R   0.653296 0.758934 0.163656 -0.126564
C111  C     C_R   0.157075 0.657896 0.786383 0.057548
C112  C     C_R   0.210986 0.716904 0.647600 -0.179108
C113  C     C_R   0.238980 0.703249 0.609244 -0.148973
C114  C     C_R   0.208893 0.559496 0.604550 -0.115222
C115  C     C_R   0.185340 0.569609 0.643617 0.277100
C116  C     C_R   0.188098 0.648052 0.665177 0.040851
C117  C     C_R   0.242554 0.621505 0.587979 -0.021038
C118  C     C_R   0.669323 0.091524 0.908029 0.024018
C119  C     C_R   0.580466 0.096747 0.890988 0.216886
C120  C     C_R   0.551584 0.133816 0.853039 -0.133853
Cr1   Cr    Cr6+3 0.426010 0.422500 0.497000 1.004081
Cr2   Cr    Cr6+3 0.651300 0.426310 0.501970 1.006107
Cr3   Cr    Cr6+3 0.422670 0.651170 0.501050 1.030265
Cr4   Cr    Cr6+3 0.905130 0.911420 0.992650 1.030944
Cr5   Cr    Cr6+3 0.911860 0.682710 0.002320 0.999791
Cr6   Cr    Cr6+3 0.682710 0.906840 0.004710 1.032488
H1    H     H_    0.588720 0.846326 0.112774 0.130797
H2    H     H_    0.485032 0.759117 0.397884 0.154300
H3    H     H_    0.883933 0.538502 0.170578 0.101061
H4    H     H_    0.174950 0.556475 0.082211 0.127634
H5    H     H_    0.069529 0.880472 0.091306 0.123483
H6    H     H_    0.224968 0.797105 0.334157 0.108384
H7    H     H_    0.321677 0.726235 0.276684 0.120679
H8    H     H_    0.306393 0.744524 0.206426 0.112529
H9    H     H_    0.241410 0.532882 0.147971 0.106521
H10   H     H_    0.111694 0.608968 0.272992 0.103500
H11   H     H_    0.228530 0.509963 0.322129 0.111615
H12   H     H_    0.258253 0.482184 0.390632 0.136942
H13   H     H_    0.139350 0.855318 0.157247 0.107842
H14   H     H_    0.859754 0.109513 0.093281 0.120823
H15   H     H_    0.521206 0.185802 0.333048 0.098498
H16   H     H_    0.508315 0.316161 0.275012 0.132536
H17   H     H_    0.521325 0.309420 0.204892 0.129131
H18   H     H_    0.826367 0.171313 0.159742 0.132177
H19   H     H_    0.779809 0.233982 0.330024 0.088006
H20   H     H_    0.765710 0.272303 0.397878 0.126742
H21   H     H_    0.539908 0.171303 0.154665 0.102009
H22   H     H_    0.490731 0.760537 0.678589 0.104409
H23   H     H_    0.765848 0.495212 0.291164 0.102982
H24   H     H_    0.514337 0.611887 0.730232 0.120053
H25   H     H_    0.827715 0.516243 0.849289 0.129677
H26   H     H_    0.786240 0.636620 0.722838 0.130889
H27   H     H_    0.789051 0.491078 0.670399 0.108396
H28   H     H_    0.764058 0.485258 0.600538 0.118959
H29   H     H_    0.509217 0.750266 0.851324 0.104402
H30   H     H_    0.466153 0.757617 0.609248 0.125503
H31   H     H_    0.782347 0.504219 0.221577 0.104866
H32   H     H_    0.072880 0.553588 0.897776 0.129648
H33   H     H_    0.307124 0.500078 0.715798 0.104355
H34   H     H_    0.288727 0.504928 0.785801 0.139277
H35   H     H_    0.047706 0.806121 0.707471 0.107681
H36   H     H_    0.264068 0.752498 0.597070 0.133532
H37   H     H_    0.589121 0.812419 0.180790 0.111882
H38   H     H_    0.207318 0.498849 0.587887 0.127630
H39   H     H_    0.745684 0.226751 0.676403 0.105008
H40   H     H_    0.609311 0.339950 0.724786 0.108557
H41   H     H_    0.604090 0.323731 0.794263 0.100677
H42   H     H_    0.484953 0.137183 0.839144 0.115474
H43   H     H_    0.578874 0.052376 0.777061 0.092278
H44   H     H_    0.480441 0.195090 0.652355 0.097828
H45   H     H_    0.688855 0.811184 0.303369 0.116689
H46   H     H_    0.485519 0.232226 0.584580 0.117605
H47   H     H_    0.735405 0.195500 0.835911 0.126734
H48   H     H_    0.705026 0.820413 0.233940 0.091470
O1    O     O_R   0.324990 0.503440 0.453910 -0.530825
O2    O     O_R   0.639980 0.519500 0.542640 -0.502198
O3    O     O_R   0.500750 0.673190 0.545480 -0.523807
O4    O     O_R   0.336260 0.640450 0.538210 -0.505370
O5    O     O_3   0.499990 0.499990 0.500010 -0.238846
O6    O     O_R   0.834210 0.019400 0.034570 -0.527477
O7    O     O_R   0.002210 0.824620 0.031030 -0.496515
O8    O     O_R   0.024400 0.669340 0.039790 -0.521143
O9    O     O_R   0.830490 0.694950 0.045870 -0.502040
O10   O     O_R   0.675430 0.831160 0.051290 -0.519335
O11   O     O_R   0.698870 0.998880 0.039560 -0.503180
O12   O     O_R   0.522030 0.339050 0.458320 -0.500318
O13   O     O_R   0.811290 0.006780 0.950620 -0.499130
O14   O     O_R   0.980960 0.812920 0.953200 -0.457207
O15   O     O_R   0.001480 0.656720 0.955830 -0.535517
O16   O     O_R   0.809240 0.683250 0.968050 -0.506173
O17   O     O_R   0.652500 0.818540 0.967340 -0.514186
O18   O     O_R   0.677620 0.987170 0.961730 -0.455845
O19   O     O_3   0.833240 0.833660 0.999890 -0.246739
O20   O     O_R   0.676180 0.324490 0.458320 -0.521712
O21   O     O_R   0.643570 0.521510 0.464260 -0.501342
O22   O     O_R   0.504630 0.675350 0.460920 -0.502233
O23   O     O_R   0.339850 0.642450 0.459830 -0.452827
O24   O     O_R   0.321120 0.501280 0.538470 -0.523004
O25   O     O_R   0.518440 0.337050 0.536710 -0.501080
O26   O     O_R   0.672300 0.322330 0.542880 -0.519864
H49   H     H_    0.787103 0.505269 0.421805 0.130118
H50   H     H_    0.884609 0.572191 0.102048 0.125095
H51   H     H_    0.103136 0.620134 0.203197 0.105770
O27   O     O_3   0.252855 0.788750 0.408250 -0.569098
C121  C     C_3   0.157538 0.855467 0.425285 0.017233
H52   H     H_    0.173646 0.886972 0.452012 0.151680
H53   H     H_    0.115769 0.815631 0.434255 0.112541
C122  C     C_3   0.089808 0.944803 0.398403 -0.285448
H54   H     H_    0.133183 0.982439 0.389390 0.162739
H55   H     H_    0.068209 0.915667 0.372336 0.157464
C123  C     C_3   0.991916 0.023899 0.417997 -0.472891
H56   H     H_    0.946367 0.988268 0.426642 0.158378
H57   H     H_    0.944889 0.087093 0.397713 0.144621
H58   H     H_    0.010660 0.056436 0.443810 0.144344
H59   H     H_    0.571168 0.112374 0.088167 0.125919
H60   H     H_    0.842178 0.523438 0.358397 0.109355
O28   O     O_3   0.832695 0.041385 0.290194 -0.566503
C124  C     C_3   0.916420 0.059829 0.290838 0.032603
H61   H     H_    0.926393 0.081417 0.320669 0.126490
H62   H     H_    0.906026 0.123149 0.271642 0.119509
C125  C     C_3   0.015432 0.962111 0.280421 -0.236574
H63   H     H_    0.029172 0.899860 0.300513 0.164261
H64   H     H_    0.009079 0.936928 0.250824 0.208434
C126  C     C_3   0.106356 0.980573 0.282708 -0.502961
H65   H     H_    0.093400 0.043666 0.263232 0.148625
H66   H     H_    0.176987 0.910627 0.273808 0.146141
H67   H     H_    0.117759 0.000537 0.312612 0.133674
O29   O     O_3   0.844238 0.030361 0.210413 -0.587601
C127  C     C_3   0.829271 0.946345 0.202755 0.006581
H68   H     H_    0.754829 0.970198 0.187382 0.132220
H69   H     H_    0.831445 0.908124 0.230133 0.158114
C128  C     C_3   0.915513 0.870356 0.177281 -0.261255
H70   H     H_    0.916990 0.909601 0.150774 0.182390
H71   H     H_    0.989564 0.842220 0.193066 0.173705
C129  C     C_3   0.901676 0.779831 0.165968 -0.474062
H72   H     H_    0.901086 0.738642 0.192001 0.149095
H73   H     H_    0.965664 0.725954 0.147515 0.162992
H74   H     H_    0.828629 0.807202 0.149535 0.167439
H75   H     H_    0.499586 0.234372 0.401594 0.116726
H76   H     H_    0.851727 0.561201 0.914595 0.122588
H77   H     H_    0.530790 0.789384 0.918595 0.112772
H78   H     H_    0.526644 0.613765 0.800756 0.113166
O30   O     O_3   0.812064 0.649428 0.796833 -0.590645
C130  C     C_3   0.772791 0.754888 0.804428 0.010413
H79   H     H_    0.696756 0.790476 0.818503 0.131372
H80   H     H_    0.764575 0.795835 0.777104 0.131742
C131  C     C_3   0.847397 0.767546 0.831434 -0.255685
H81   H     H_    0.862695 0.719696 0.857372 0.174731
H82   H     H_    0.920731 0.741341 0.816543 0.177132
C132  C     C_3   0.804299 0.878696 0.844123 -0.482007
H83   H     H_    0.791759 0.928136 0.818949 0.149052
H84   H     H_    0.858911 0.884552 0.864589 0.151882
H85   H     H_    0.730718 0.905912 0.858929 0.147599
O31   O     O_3   0.101049 0.841022 0.907974 -0.559931
C133  C     C_3   0.033246 0.937586 0.891413 0.035130
H86   H     H_    0.978183 0.985329 0.913802 0.219064
H87   H     H_    0.986839 0.934738 0.866336 0.113823
C134  C     C_3   0.092834 0.990180 0.879690 -0.277652
H88   H     H_    0.134370 0.998277 0.905197 0.170514
H89   H     H_    0.150268 0.942832 0.857880 0.153283
C135  C     C_3   0.021339 0.095942 0.862894 -0.477341
H90   H     H_    0.974144 0.090770 0.838806 0.155560
H91   H     H_    0.067290 0.128365 0.851666 0.130226
H92   H     H_    0.970240 0.148283 0.885443 0.182947
O32   O     O_3   0.154534 0.507278 0.660861 -0.563698
C136  C     C_3   0.229768 0.402216 0.657626 0.001140
H93   H     H_    0.252769 0.370997 0.687167 0.151770
H94   H     H_    0.301679 0.387007 0.643362 0.115019
C137  C     C_3   0.183205 0.344613 0.636502 -0.256844
H95   H     H_    0.117277 0.352615 0.652942 0.173930
H96   H     H_    0.154499 0.378329 0.607596 0.160672
C138  C     C_3   0.261595 0.231136 0.631869 -0.491343
H97   H     H_    0.325297 0.221332 0.613616 0.141582
H98   H     H_    0.224313 0.191048 0.617760 0.145200
H99   H     H_    0.292857 0.195843 0.660380 0.143133
H100  H     H_    0.158034 0.793649 0.835668 0.113214
H101  H     H_    0.028804 0.810989 0.777421 0.097129
H102  H     H_    0.213687 0.777066 0.664263 0.109896
O33   O     O_3   0.132608 0.506065 0.823013 -0.568487
C139  C     C_3   0.064510 0.470577 0.831971 0.025718
H103  H     H_    0.037507 0.452910 0.804389 0.176761
H104  H     H_    0.993566 0.528842 0.846409 0.138093
C140  C     C_3   0.121682 0.371159 0.855012 -0.274939
H105  H     H_    0.180838 0.310263 0.836640 0.164342
H106  H     H_    0.161583 0.382021 0.880409 0.170375
C141  C     C_3   0.048977 0.335882 0.868656 -0.498622
H107  H     H_    0.008370 0.323827 0.843751 0.144185
H108  H     H_    0.093418 0.262658 0.884413 0.147512
H109  H     H_    0.991974 0.393691 0.888444 0.140245
O34   O     O_3   0.518972 0.074213 0.913131 -0.553512
C142  C     C_3   0.489894 0.008933 0.893794 0.020982
H110  H     H_    0.507399 0.945879 0.913710 0.173152
H111  H     H_    0.533330 0.972310 0.867104 0.100720
C143  C     C_3   0.374142 0.066082 0.885665 -0.268446
H112  H     H_    0.332993 0.091980 0.913285 0.171492
H113  H     H_    0.351779 0.135007 0.868072 0.157940
C144  C     C_3   0.340851 0.997594 0.864450 -0.498398
H114  H     H_    0.381706 0.969944 0.836856 0.142505
H115  H     H_    0.257332 0.041973 0.858093 0.145877
H116  H     H_    0.357109 0.930836 0.882439 0.146580
O35   O     O_3   0.797249 0.146784 0.905750 -0.590048
C145  C     C_3   0.757671 0.231886 0.931204 0.018489
H117  H     H_    0.819655 0.218761 0.952307 0.151887
H118  H     H_    0.692418 0.239632 0.948271 0.125750
C146  C     C_3   0.726511 0.331323 0.909522 -0.281821
H119  H     H_    0.792147 0.322244 0.892595 0.161807
H120  H     H_    0.661649 0.348276 0.889342 0.159937
C147  C     C_3   0.693307 0.421776 0.937175 -0.476832
H121  H     H_    0.629468 0.430611 0.955135 0.151990
H122  H     H_    0.666242 0.493118 0.920540 0.169960
H123  H     H_    0.758694 0.410410 0.956098 0.145346
H124  H     H_    0.582228 0.069947 0.707237 0.102837
H125  H     H_    0.751680 0.263596 0.608912 0.125993
O36   O     O_3   0.524944 0.790584 0.327203 -0.572875
C148  C     C_3   0.472205 0.892371 0.341569 -0.003577
H126  H     H_    0.487489 0.940658 0.322115 0.143440
H127  H     H_    0.497399 0.902754 0.370975 0.112048
C149  C     C_3   0.356915 0.931211 0.340789 -0.261093
H128  H     H_    0.331643 0.925774 0.310954 0.168170
H129  H     H_    0.340094 0.882725 0.359505 0.190688
C150  C     C_3   0.296523 0.042217 0.354584 -0.489540
H130  H     H_    0.318294 0.048803 0.384820 0.149900
H131  H     H_    0.213267 0.068802 0.353131 0.134654
H132  H     H_    0.311581 0.092342 0.336077 0.142351

loop_
_geom_bond_atom_site_label_1
_geom_bond_atom_site_label_2
_ccdc_geom_bond_type
C133  H87   S    
C142  H110  S    
C44   O1    A    
C19   O7    A    
C114  C115  A    
O35   C145  S    
C66   C97   S    
C70   O29   S    
C21   C59   S    
C106  C107  A    
C132  H84   S    
C130  H79   S    
Cr1   O25   S    
C55   O25   A    
C138  H97   S    
C149  C150  S    
C147  H123  S    
C20   O10   A    
C132  H85   S    
C59   C60   A    
C25   C118  S    
C66   O2    A    
C102  C111  S    
Cr2   O20   S    
Cr3   O4    S    
C100  O31   S    
O29   C127  S    
Cr2   O5    S    
C6    C11   A    
C35   H49   S    
C94   C97   A    
O36   C148  S    
C99   C110  A    
C82   C91   S    
C32   C34   A    
C75   C76   A    
C127  H68   S    
C46   H8    S    
C61   H18   S    
C32   O36   S    
C110  H37   S    
C128  H71   S    
C52   H11   S    
Cr6   O18   S    
C7    H40   S    
C4    H47   S    
C137  H96   S    
Cr3   O22   S    
C120  H42   S    
C131  C132  S    
C141  H109  S    
Cr5   O8    S    
Cr6   O11   S    
C33   C38   S    
C72   C73   A    
C25   O18   A    
C53   C58   A    
C6    C7    A    
C8    C17   S    
C130  C131  S    
C141  H108  S    
Cr6   O19   S    
C30   C31   A    
C138  H99   S    
Cr2   O2    S    
C85   H78   S    
C22   O14   A    
C69   C70   A    
C112  H102  S    
C88   C99   A    
C3    C11   S    
C150  H130  S    
C72   H19   S    
Cr2   O26   S    
C5    O35   S    
C30   H48   S    
C15   C18   A    
C22   C98   S    
C7    C8    A    
Cr1   O1    S    
C85   C86   A    
C108  C109  A    
C10   H43   S    
C29   C30   A    
C36   C37   A    
C142  H111  S    
C127  C128  S    
C109  C111  A    
C79   C84   A    
C105  H34   S    
C83   H29   S    
C106  H33   S    
C92   C96   A    
C128  H70   S    
C149  H129  S    
C75   H15   S    
C124  H62   S    
C89   H26   S    
C33   O22   A    
C146  H120  S    
C107  C108  A    
C92   H27   S    
C9    C10   A    
C39   C45   A    
C140  C141  S    
C144  H115  S    
Cr6   O17   S    
C63   H21   S    
C147  H122  S    
C121  H53   S    
C66   O3    A    
C145  H118  S    
C35   C38   A    
C139  H103  S    
Cr3   O5    S    
C39   C40   A    
Cr4   O14   S    
C122  H54   S    
O28   C124  S    
C81   H25   S    
C46   C51   A    
C125  H63   S    
C114  H38   S    
C83   C84   A    
C16   H39   S    
O33   C139  S    
C150  H132  S    
C32   C37   A    
C29   H45   S    
C43   C45   A    
C70   C71   A    
C136  H94   S    
C18   C55   S    
C60   H14   S    
C113  C117  A    
C82   C83   A    
C129  H74   S    
C3    C4    A    
C93   C97   A    
C41   H9    S    
Cr5   O16   S    
C52   C53   A    
C124  C125  S    
C148  C149  S    
Cr3   O23   S    
C104  H32   S    
C136  C137  S    
C135  H92   S    
C109  H101  S    
C68   C76   S    
C108  H35   S    
C5    C118  A    
C134  H88   S    
C36   H60   S    
C15   H125  S    
C28   C37   S    
C100  C101  A    
C130  H80   S    
C62   C71   S    
C61   C62   A    
Cr1   O24   S    
C114  C117  A    
C10   C11   A    
C63   C64   A    
C115  O32   S    
C4    C5    A    
C123  H58   S    
O27   C121  S    
C34   H2    S    
C49   C50   A    
C140  H105  S    
C13   H3    S    
C23   O16   A    
C101  C102  A    
C41   C42   A    
C64   H59   S    
C35   C36   A    
C139  C140  S    
C112  C116  A    
Cr2   O21   S    
Cr3   O3    S    
C126  H65   S    
Cr1   O5    S    
C50   H51   S    
C26   C27   A    
C69   O28   S    
C28   C29   A    
C125  C126  S    
C143  H112  S    
C65   H17   S    
Cr5   O9    S    
O30   C130  S    
O34   C142  S    
Cr1   O12   S    
C6    H41   S    
C44   C58   S    
C68   C69   A    
C65   C67   A    
C12   C17   A    
C129  H72   S    
C101  H100  S    
C84   H77   S    
C105  C111  A    
C133  C134  S    
C148  H126  S    
C137  H95   S    
C47   H7    S    
C1    C78   S    
C19   O8    A    
C131  H82   S    
C53   H12   S    
C48   C57   S    
C143  C144  S    
C86   C87   A    
C99   H1    S    
C132  H83   S    
C121  H52   S    
C67   C68   A    
C60   C61   A    
C62   C63   A    
C55   O26   A    
C50   C51   A    
C22   O15   A    
C24   C88   A    
C56   H6    S    
C20   O9    A    
C48   C49   A    
C45   H5    S    
C98   C100  A    
C56   C57   A    
C126  H67   S    
C40   H4    S    
C46   C47   A    
C2    C110  A    
C77   O24   A    
C119  C120  A    
C21   O11   A    
C105  C106  A    
C86   H24   S    
C1    O20   A    
Cr4   O7    S    
C127  H69   S    
C90   C91   A    
C135  H90   S    
C122  C123  S    
C54   O27   S    
C20   C88   S    
C92   C93   A    
C94   C95   A    
C52   C57   A    
C33   O21   A    
C94   H30   S    
C146  H119  S    
C74   C78   A    
C137  C138  S    
C103  C104  A    
C89   C90   A    
C67   H16   S    
C115  C116  A    
C140  H106  S    
C144  H114  S    
C14   C18   A    
Cr6   O10   S    
C95   C96   A    
C103  O33   S    
C72   C76   A    
C23   O17   A    
C81   C82   A    
C85   C91   A    
C9    H124  S    
C1    O12   A    
C145  C146  S    
C24   H50   S    
C59   C64   A    
O31   C133  S    
C119  O34   S    
C93   H28   S    
C139  H104  S    
C77   C117  S    
C141  H107  S    
C16   C17   A    
C15   C16   A    
C26   H31   S    
C74   H75   S    
C2    C13   A    
C118  C119  A    
C113  H36   S    
C21   O6    A    
C123  H56   S    
C8    C9    A    
C150  H131  S    
Cr4   O19   S    
C73   C78   A    
C43   H13   S    
Cr5   O19   S    
C25   O13   A    
O32   C136  S    
C42   C51   S    
C44   O23   A    
C27   H23   S    
C90   O30   S    
C129  H73   S    
C102  C103  A    
C112  C113  A    
C107  C116  S    
C54   C56   A    
C148  H127  S    
C74   C75   A    
C142  C143  S    
C14   H46   S    
C136  H93   S    
C135  H91   S    
C12   H44   S    
C65   C71   A    
C128  C129  S    
C13   C24   A    
C2    C31   S    
C134  H89   S    
C149  H128  S    
C47   C48   A    
C146  C147  S    
C87   C96   S    
C19   C39   S    
C138  H98   S    
C40   C41   A    
C123  H57   S    
C49   H10   S    
C12   C14   A    
C144  H116  S    
C134  C135  S    
C133  H86   S    
C147  H121  S    
C54   C58   A    
C121  C122  S    
C145  H117  S    
C34   C38   A    
C95   H22   S    
C80   C81   A    
C126  H66   S    
Cr4   O13   S    
C131  H81   S    
C77   O4    A    
C73   H20   S    
C80   H76   S    
C87   C89   A    
C125  H64   S    
C143  H113  S    
C124  H61   S    
C98   C104  A    
Cr4   O6    S    
C3    C120  A    
C79   C80   A    
C26   C31   A    
C122  H55   S    
C42   C43   A    
C27   C28   A    
Cr5   O15   S    
C23   C79   S    
