data_mof_unit_54836.cif
_audit_creation_date              2012-12-10T17:15:54-0500
_audit_creation_method            fapswitch 2.2
_symmetry_space_group_name_H-M    P1
_symmetry_Int_Tables_number       1
_space_group_crystal_system       triclinic
_cell_length_a                    10.231404
_cell_length_b                    10.726237
_cell_length_c                    10.502751
_cell_angle_alpha                 92.297236
_cell_angle_beta                  95.591588
_cell_angle_gamma                 81.466787
_cell_volume                      1134.05095573

loop_
_atom_site_label
_atom_site_type_symbol
_atom_type_description
_atom_site_fract_x
_atom_site_fract_y
_atom_site_fract_z
_atom_type_partial_charge
C1    C     C_R   0.445336 0.514155 0.266105 0.881026
C2    C     C_2   0.494197 0.601052 0.935347 0.167751
C3    C     C_2   0.079735 0.472052 0.499564 0.506950
C4    C     C_R   0.501897 0.260935 0.507274 0.958840
C5    C     C_2   0.939827 0.476626 0.531822 0.303002
C6    C     C_R   0.554336 0.498154 0.734730 0.995461
C7    C     C_R   0.501048 0.739704 0.502837 0.897079
C8    C     C_R   0.692329 0.109321 0.694701 0.438587
C9    C     C_R   0.792596 0.031143 0.765914 -0.442281
C10   C     C_R   0.792799 0.901707 0.765072 0.489572
C11   C     C_R   0.691933 0.849862 0.692458 0.436815
C12   C     C_R   0.599977 0.055700 0.605839 0.009818
C13   C     C_R   0.599188 0.924014 0.604271 -0.205146
C14   C     C_R   0.504958 0.128929 0.520699 -0.078070
C15   C     C_R   0.411955 0.075964 0.439209 -0.216373
C16   C     C_R   0.412025 0.948679 0.434484 0.173806
C17   C     C_R   0.504507 0.872373 0.515734 -0.094890
C18   C     C_2   0.418933 0.537041 0.130636 -0.048310
C19   C     C_2   0.502128 0.598719 0.072712 0.095362
C20   C     C_2   0.579292 0.518001 0.872083 -0.331346
H1    H     H_    0.341833 0.134104 0.374029 0.189713
H2    H     H_    0.865968 0.072216 0.828961 0.178679
H3    H     H_    0.660886 0.458388 0.923720 0.161748
H4    H     H_    0.192610 0.392671 0.375713 0.374704
H5    H     H_    0.794040 0.407684 0.278132 0.379495
H6    H     H_    0.749731 0.257975 0.783600 0.342083
H7    H     H_    0.948403 0.874765 0.888799 0.354745
H8    H     H_    0.586130 0.732376 0.735543 0.303233
I1    I     I_    0.263771 0.450510 0.029800 -0.211191
I2    I     I_    0.929079 0.490027 0.733522 -0.136155
I3    I     I_    0.070096 0.738361 0.574614 -0.134263
I4    I     I_    0.275855 0.879867 0.291077 -0.213133
I5    I     I_    0.344321 0.743990 0.854698 -0.216461
I6    I     I_    0.646244 0.704989 0.166515 -0.197697
N1    N     N_2   0.157290 0.551390 0.551110 -0.100644
N2    N     N_2   0.842740 0.448550 0.448960 0.040386
O1    O     O_R   0.568950 0.489660 0.307530 -0.630011
O2    O     O_3   0.875027 0.428650 0.328125 -0.632681
O3    O     O_3   0.679628 0.237426 0.717378 -0.766332
O4    O     O_3   0.883677 0.824204 0.843465 -0.652868
O5    O     O_3   0.679996 0.729296 0.720294 -0.691713
O6    O     O_R   0.348880 0.522640 0.340350 -0.613152
O7    O     O_R   0.610060 0.300270 0.483590 -0.577576
O8    O     O_R   0.389990 0.333260 0.516410 -0.614333
O9    O     O_R   0.651120 0.477360 0.659650 -0.544631
O10   O     O_R   0.431050 0.510340 0.692470 -0.585484
O11   O     O_R   0.610010 0.666740 0.483590 -0.565512
O12   O     O_R   0.389940 0.699730 0.516410 -0.583266
O13   O     O_3   0.129973 0.366575 0.431313 -0.706283
Zn1   Zn    Zn3+2 0.646940 0.477980 0.478090 1.061925
Zn2   Zn    Zn3+2 0.353060 0.522020 0.521910 1.049021

loop_
_geom_bond_atom_site_label_1
_geom_bond_atom_site_label_2
_ccdc_geom_bond_type
O7    Zn1   S    
C8    O3    S    
C3    N1    D    
H5    O2    S    
C16   I4    S    
C6    C20   S    
C9    C10   A    
H7    O4    S    
C20   H3    S    
C13   C17   A    
O6    Zn2   S    
C8    C12   A    
C7    O12   A    
N2    O2    S    
C3    O13   S    
C18   I1    S    
N1    Zn2   S    
O1    Zn1   S    
C11   C13   A    
C1    C18   S    
C4    O8    A    
O9    Zn1   S    
C2    I5    S    
C6    O9    A    
C4    O7    A    
C12   C14   A    
C11   O5    S    
O11   Zn1   S    
C4    C14   S    
C9    H2    S    
I3    N1    S    
H6    O3    S    
C10   C11   A    
C2    C20   D    
C15   C16   A    
C5    N2    D    
C1    O6    A    
C15   H1    S    
N2    Zn1   S    
C12   C13   A    
O8    Zn2   S    
C10   O4    S    
C18   C19   D    
C5    I2    S    
H4    O13   S    
C14   C15   A    
C8    C9    A    
C6    O10   A    
C1    O1    A    
C2    C19   S    
O10   Zn2   S    
O12   Zn2   S    
H8    O5    S    
C7    O11   A    
C16   C17   A    
C3    C5    S    
C19   I6    S    
C7    C17   S    
