data_mof_unit_10351.cif
_audit_creation_date              2012-12-10T17:03:56-0500
_audit_creation_method            fapswitch 2.2
_symmetry_space_group_name_H-M    P1
_symmetry_Int_Tables_number       1
_space_group_crystal_system       triclinic
_cell_length_a                    9.827323
_cell_length_b                    11.050674
_cell_length_c                    15.820272
_cell_angle_alpha                 94.821911
_cell_angle_beta                  78.995722
_cell_angle_gamma                 111.621008
_cell_volume                      1567.6336046

loop_
_atom_site_label
_atom_site_type_symbol
_atom_type_description
_atom_site_fract_x
_atom_site_fract_y
_atom_site_fract_z
_atom_type_partial_charge
C1    C     C_R   0.556371 0.745533 0.506254 0.845693
C2    C     C_R   0.443592 0.254463 0.493804 0.854288
C3    C     C_R   0.329006 0.398610 0.072450 -0.295603
C4    C     C_R   0.675165 0.566129 0.921608 -0.311308
C5    C     C_R   0.221023 0.360141 0.019509 0.504210
C6    C     C_R   0.782901 0.605620 0.974858 0.465305
C7    C     C_2   0.588153 0.885016 0.509676 -0.333106
C8    C     C_2   0.411725 0.114975 0.490515 -0.328088
C9    C     C_2   0.484456 0.930443 0.498658 -0.145087
C10   C     C_2   0.515349 0.069539 0.501655 -0.146023
C11   C     C_2   0.918995 0.483369 0.497810 0.164540
C12   C     C_2   0.080105 0.515082 0.503447 0.158320
C13   C     C_R   0.409387 0.481578 0.662677 0.843305
C14   C     C_R   0.590356 0.515960 0.336848 0.836132
C15   C     C_R   0.350437 0.457228 0.755321 -0.175321
C16   C     C_R   0.648243 0.533836 0.243046 -0.172942
C17   C     C_R   0.156588 0.352518 0.875217 0.465442
C18   C     C_R   0.846076 0.615644 0.119845 0.431584
C19   C     C_R   0.203031 0.376449 0.786552 0.161509
C20   C     C_R   0.801245 0.583623 0.207600 0.149547
C21   C     C_R   0.449810 0.508640 0.812769 -0.265211
C22   C     C_R   0.544378 0.505514 0.188033 -0.275993
C23   C     C_R   0.412557 0.471141 0.899515 -0.001239
C24   C     C_R   0.586374 0.519505 0.098280 -0.005320
C25   C     C_R   0.262096 0.394650 0.931903 -0.093206
C26   C     C_R   0.739603 0.580682 0.063934 -0.100490
C27   C     C_R   0.521987 0.507554 0.954172 0.049273
C28   C     C_R   0.478229 0.477202 0.042723 0.044701
Cu1   Cu    Cu3+1 0.362980 0.479380 0.485080 1.007989
Cu2   Cu    Cu3+1 0.637020 0.520620 0.514920 1.007579
H1    H     H_    0.429095 0.475123 0.217174 0.170272
H2    H     H_    0.557440 0.578000 0.787382 0.153825
H3    H     H_    0.293701 0.357756 0.135855 0.138944
H4    H     H_    0.716604 0.575710 0.853584 0.145983
H5    H     H_    0.624214 0.135225 0.513096 0.192534
H6    H     H_    0.375577 0.864754 0.487241 0.193005
H7    H     H_    0.303069 0.049055 0.479025 0.172247
H8    H     H_    0.696818 0.950943 0.521151 0.174468
H9    H     H_    0.135919 0.599062 0.541205 0.125002
H10   H     H_    0.862502 0.398335 0.461095 0.134658
N1    N     N_2   0.842890 0.551600 0.537350 -0.008428
N2    N     N_2   0.157110 0.448400 0.462650 -0.002680
O1    O     O_R   0.426810 0.668300 0.492040 -0.604224
O2    O     O_R   0.573190 0.331700 0.507960 -0.606654
O3    O     O_R   0.658240 0.703130 0.517240 -0.546663
O4    O     O_R   0.341760 0.296870 0.482760 -0.540949
O5    O     O_R   0.319390 0.472820 0.610170 -0.542132
O6    O     O_R   0.680610 0.527180 0.389830 -0.531658
O7    O     O_R   0.550820 0.507640 0.635370 -0.606765
O8    O     O_R   0.449180 0.492360 0.364630 -0.611145
O9    O     O_3   0.077940 0.277218 0.051289 -0.547094
C29   C     C_3   0.012169 0.336982 0.121249 -0.274933
H11   H     H_    0.040727 0.442804 0.111587 0.201504
H12   H     H_    0.043593 0.321884 0.182079 0.152089
H13   H     H_    0.889633 0.289967 0.128034 0.190723
O10   O     O_3   0.932504 0.657143 0.938709 -0.561713
C30   C     C_3   0.963350 0.770591 0.892168 -0.274714
H14   H     H_    0.901509 0.833132 0.924761 0.162011
H15   H     H_    0.939772 0.744748 0.825930 0.140821
H16   H     H_    0.083623 0.829253 0.886658 0.198098
Br1   Br    Br    0.956076 0.612064 0.274503 -0.537410
Br2   Br    Br    0.062520 0.287225 0.711027 -0.475208
O11   O     O_3   0.009740 0.277248 0.904551 -0.523496
C31   C     C_3   0.926755 0.359727 0.921868 -0.162245
H17   H     H_    0.971660 0.438132 0.968993 0.184353
H18   H     H_    0.810927 0.301231 0.950662 0.171977
H19   H     H_    0.922871 0.403243 0.861913 0.182620
O12   O     O_3   0.995981 0.676378 0.088466 -0.537134
C32   C     C_3   0.033875 0.812133 0.101269 -0.171315
H20   H     H_    0.028338 0.839175 0.170752 0.174234
H21   H     H_    0.961762 0.849479 0.073051 0.144256
H22   H     H_    0.149984 0.861630 0.068640 0.182138
O13   O     O_3   0.075895 0.329717 0.434514 -0.500855
C33   C     C_3   0.141505 0.313472 0.349427 -0.116350
H23   H     H_    0.237657 0.283386 0.348023 0.176099
H24   H     H_    0.174003 0.402479 0.310633 0.139793
H25   H     H_    0.058644 0.233645 0.318558 0.126220
O14   O     O_3   0.925147 0.671548 0.562993 -0.502096
C34   C     C_3   0.862584 0.690789 0.648216 -0.123657
H26   H     H_    0.835170 0.604547 0.688837 0.126783
H27   H     H_    0.763617 0.717097 0.650395 0.181379
H28   H     H_    0.945611 0.774279 0.676283 0.133000

loop_
_geom_bond_atom_site_label_1
_geom_bond_atom_site_label_2
_ccdc_geom_bond_type
Cu1   N2    S    
O13   C33   S    
Cu2   O3    S    
C18   C26   A    
C14   O8    A    
C2    O4    A    
C15   C19   A    
C33   H24   S    
Cu1   O5    S    
Cu2   O6    S    
C3    C28   A    
C24   C26   A    
C30   H15   S    
C3    H3    S    
C19   Br2   S    
C18   O12   S    
O10   C30   S    
C20   Br1   S    
C32   H21   S    
C12   N2    D    
C1    O1    A    
C2    O2    A    
O12   C32   S    
C33   H25   S    
C9    H6    S    
Cu2   N1    S    
C10   H5    S    
C23   C27   A    
C9    C10   S    
C18   C20   A    
C29   H13   S    
Cu1   O1    S    
Cu2   O2    S    
C11   H10   S    
C29   H12   S    
Cu1   O8    S    
C21   H2    S    
C4    H4    S    
C22   H1    S    
O9    C29   S    
C31   H19   S    
C4    C6    A    
C33   H23   S    
N1    O14   S    
C34   H27   S    
O14   C34   S    
C30   H16   S    
C14   O6    A    
O11   C31   S    
C31   H18   S    
C32   H22   S    
Cu1   Cu2   S    
C16   C20   A    
C13   O7    A    
C5    C25   A    
Cu2   O7    S    
C21   C23   A    
C14   C16   S    
C8    H7    S    
C4    C27   A    
C29   H11   S    
C13   O5    A    
C7    C9    D    
N2    O13   S    
C16   C22   A    
C1    C7    S    
C2    C8    S    
C24   C28   A    
C6    O10   S    
C3    C5    A    
C34   H28   S    
C11   C12   S    
Cu1   O4    S    
C17   C25   A    
C31   H17   S    
C12   H9    S    
C13   C15   S    
C17   O11   S    
C1    O3    A    
C30   H14   S    
C6    C26   A    
C17   C19   A    
C7    H8    S    
C11   N1    D    
C22   C24   A    
C23   C25   A    
C32   H20   S    
C34   H26   S    
C15   C21   A    
C8    C10   D    
C27   C28   A    
C5    O9    S    
