data_mof_unit_40458.cif
_audit_creation_date              2012-12-11T14:08:27-0500
_audit_creation_method            fapswitch 2.2
_symmetry_space_group_name_H-M    P1
_symmetry_Int_Tables_number       1
_space_group_crystal_system       triclinic
_cell_length_a                    10.878726
_cell_length_b                    11.053405
_cell_length_c                    18.69581
_cell_angle_alpha                 89.965001
_cell_angle_beta                  90.153366
_cell_angle_gamma                 59.775801
_cell_volume                      1942.49889025

loop_
_atom_site_label
_atom_site_type_symbol
_atom_type_description
_atom_site_fract_x
_atom_site_fract_y
_atom_site_fract_z
_atom_type_partial_charge
C1    C     C_R   0.235810 0.645887 0.608288 0.546921
C2    C     C_2   0.805021 0.092397 0.696882 -0.167374
C3    C     C_2   0.176133 0.665561 0.679832 -0.135474
C4    C     C_R   0.626213 0.584193 0.609522 0.574800
C5    C     C_2   0.188231 0.665981 0.837879 -0.040231
C6    C     C_2   0.180321 0.568658 0.798358 -0.130391
C7    C     C_2   0.210863 0.553966 0.721677 -0.161510
C8    C     C_2   0.669554 0.688257 0.332915 0.122546
C9    C     C_2   0.671453 0.680198 0.172375 -0.057687
C10   C     C_2   0.783819 0.638155 0.216702 -0.096147
C11   C     C_2   0.778997 0.605669 0.291087 -0.119335
C12   C     C_3   0.721410 0.506165 0.811100 0.153964
C13   C     C_2   0.616947 0.230324 0.315034 0.249750
C14   C     C_2   0.624562 0.221825 0.154677 -0.040251
C15   C     C_2   0.515496 0.243814 0.195638 -0.118719
C16   C     C_R   0.629771 0.225381 0.600835 0.546099
C17   C     C_2   0.507425 0.291198 0.268472 -0.189386
C18   C     C_2   0.188169 0.662466 0.326255 -0.058578
C19   C     C_2   0.184476 0.643211 0.173258 -0.116541
C20   C     C_2   0.243249 0.707341 0.206659 -0.150500
C21   C     C_2   0.272355 0.684777 0.282106 -0.145686
C22   C     C_R   0.729221 0.043616 0.889895 0.554557
C23   C     C_3   0.682884 0.662190 0.817967 0.014146
C24   C     C_R   0.717986 0.686007 0.890621 0.597613
C25   C     C_R   0.117216 0.707564 0.906983 0.553138
C26   C     C_R   0.669319 0.120990 0.097371 0.593322
C27   C     C_R   0.697075 0.691313 0.097594 0.571959
C28   C     C_R   0.224594 0.648620 0.400471 0.565002
C29   C     C_R   0.099250 0.705569 0.110708 0.560059
C30   C     C_R   0.645014 0.627509 0.396289 0.551572
C31   C     C_R   0.585646 0.284114 0.386789 0.551552
C32   C     C_3   0.525772 0.759318 0.795454 -0.231030
C33   C     C_3   0.501929 0.710656 0.722257 -0.266607
C34   C     C_3   0.648097 0.608492 0.685456 0.055924
C35   C     C_3   0.775685 0.694496 0.767041 -0.265336
C36   C     C_3   0.972400 0.263045 0.747358 -0.326779
C37   C     C_3   0.560129 0.935700 0.357755 -0.213495
C38   C     C_3   0.593847 0.911333 0.642239 -0.265132
C39   C     C_3   0.754741 0.664849 0.689157 0.051121
C40   C     C_3   0.716799 0.467602 0.730621 -0.022461
C41   C     C_2   0.674975 0.150132 0.667988 -0.121736
C42   C     C_2   0.719032 0.097616 0.818461 -0.048386
C43   C     C_2   0.827208 0.041513 0.771678 -0.186235
Cr1   Cr    Cr6+3 0.393010 0.398050 0.501480 1.004714
Cr2   Cr    Cr6+3 0.398820 0.707980 0.501630 1.008305
Cr3   Cr    Cr6+3 0.708140 0.393940 0.496850 1.045440
Cr4   Cr    Cr6+3 0.937950 0.938450 0.008940 1.063808
Cr5   Cr    Cr6+3 0.626180 0.937030 0.994750 1.043931
Cr6   Cr    Cr6+3 0.937790 0.625760 0.001410 1.035949
H1    H     H_    0.501523 0.869529 0.791864 0.116385
H2    H     H_    0.228042 0.729824 0.814790 0.104886
H3    H     H_    0.449390 0.760135 0.834740 0.187930
H4    H     H_    0.121038 0.770815 0.701739 0.091414
H5    H     H_    0.888201 0.610953 0.196413 0.141192
H6    H     H_    0.863089 0.503968 0.309439 0.139366
H7    H     H_    0.566457 0.706074 0.190776 0.092433
H8    H     H_    0.440340 0.211486 0.179499 0.159102
H9    H     H_    0.403309 0.372441 0.286556 0.098230
H10   H     H_    0.694535 0.260565 0.170620 0.151842
H11   H     H_    0.254569 0.789602 0.181176 0.167900
H12   H     H_    0.890074 0.628029 0.781510 0.100512
H13   H     H_    0.442406 0.654299 0.730314 0.138797
H14   H     H_    0.358331 0.698084 0.302640 0.137676
H15   H     H_    0.183285 0.554103 0.197252 0.092473
H16   H     H_    0.100987 0.648971 0.307971 0.089887
H17   H     H_    0.429216 0.803308 0.690070 0.136433
H18   H     H_    0.750104 0.804777 0.773610 0.126337
H19   H     H_    0.829825 0.442447 0.832201 0.164307
H20   H     H_    0.647107 0.421614 0.724941 0.170751
H21   H     H_    0.851157 0.316256 0.656184 0.294354
H22   H     H_    0.053061 0.175464 0.714387 0.128419
H23   H     H_    0.860377 0.577508 0.672069 0.185266
H24   H     H_    0.932192 0.218884 0.788240 0.198338
H25   H     H_    0.027642 0.313176 0.773050 0.144168
H26   H     H_    0.468348 0.840840 0.301409 0.243301
H27   H     H_    0.496149 0.039034 0.331276 0.173406
H28   H     H_    0.668239 0.917924 0.368763 0.221370
H29   H     H_    0.508551 0.937441 0.409234 0.141060
H30   H     H_    0.869563 0.887955 0.237176 0.362596
H31   H     H_    0.813227 0.792234 0.633844 0.249731
H32   H     H_    0.601496 0.985264 0.605252 0.155550
H33   H     H_    0.570154 0.954542 0.697028 0.117640
H34   H     H_    0.932169 0.959577 0.788460 0.119318
H35   H     H_    0.504191 0.903548 0.620714 0.175940
H36   H     H_    0.679796 0.326862 0.962302 0.373984
H37   H     H_    0.894097 0.082544 0.666214 0.142019
H38   H     H_    0.615332 0.183183 0.803514 0.173448
H39   H     H_    0.589926 0.147370 0.696363 0.095136
H40   H     H_    0.146523 0.500198 0.821755 0.144649
H41   H     H_    0.263679 0.448720 0.699765 0.163413
N1    N     N_2   0.857459 0.363647 0.702134 -0.550158
N2    N     N_2   0.567648 0.827547 0.311401 -0.505945
N3    N     N_2   0.726318 0.779151 0.639976 -0.491273
O1    O     O_R   0.507110 0.256280 0.580300 -0.524495
O2    O     O_R   0.837080 0.593860 0.915300 -0.522349
O3    O     O_R   0.064770 0.636080 0.932550 -0.507976
O4    O     O_R   0.280830 0.527190 0.577940 -0.493875
O5    O     O_R   0.068250 0.829200 0.092940 -0.488469
O6    O     O_R   0.799650 0.057040 0.080330 -0.470019
O7    O     O_R   0.586130 0.079760 0.077080 -0.508857
O8    O     O_R   0.627700 0.809630 0.066580 -0.476298
O9    O     O_R   0.816140 0.597180 0.075920 -0.506104
O10   O     O_R   0.045360 0.639170 0.081440 -0.509171
O11   O     O_3   0.833980 0.833750 0.001700 -0.287954
O12   O     O_R   0.524640 0.695370 0.425100 -0.508384
O13   O     O_R   0.261360 0.738990 0.584270 -0.527929
O14   O     O_R   0.532590 0.694780 0.574370 -0.497983
O15   O     O_R   0.744470 0.503750 0.577000 -0.511427
O16   O     O_R   0.698520 0.277230 0.571620 -0.520600
O17   O     O_R   0.498530 0.256920 0.419280 -0.536632
O18   O     O_R   0.272880 0.527780 0.428680 -0.520021
O19   O     O_R   0.252780 0.739630 0.423250 -0.483771
O20   O     O_2   0.881458 0.125709 0.262340 -0.294702
O21   O     O_2   0.855509 0.007329 0.366543 -0.281577
O22   O     O_3   0.771142 0.966534 0.243923 -0.532424
O23   O     O_R   0.735890 0.504390 0.415980 -0.521551
O24   O     O_2   0.532952 0.579245 0.923404 -0.318385
O25   O     O_2   0.513842 0.435825 0.829863 -0.335231
O26   O     O_3   0.729777 0.321485 0.917144 -0.512745
O27   O     O_R   0.690560 0.277820 0.422350 -0.438235
O28   O     O_3   0.499990 0.499990 0.499980 -0.299074
O29   O     O_R   0.089190 0.825870 0.932320 -0.521825
O30   O     O_R   0.819070 0.053960 0.931440 -0.460865
O31   O     O_R   0.607070 0.076440 0.916460 -0.516964
O32   O     O_R   0.647110 0.806550 0.917690 -0.516833
S1    S     S_3+6 0.787173 0.080194 0.297440 -0.004619
S2    S     S_3+6 0.615919 0.464068 0.870517 -0.047429

loop_
_geom_bond_atom_site_label_1
_geom_bond_atom_site_label_2
_ccdc_geom_bond_type
H30   O22   S    
C18   C21   D    
C43   H34   S    
H21   N1    S    
Cr6   O11   S    
Cr2   O19   S    
C22   O30   A    
C12   S2    S    
C30   O23   A    
C28   O19   A    
C18   H16   S    
C14   H10   S    
C12   H19   S    
C12   C23   S    
Cr4   O5    S    
C29   O5    A    
C34   C40   S    
C3    C7    D    
C5    C6    D    
O21   S1    D    
C2    C41   D    
Cr5   O11   S    
Cr1   O28   S    
Cr4   O6    S    
C29   O10   A    
H36   O26   S    
C32   H3    S    
Cr5   O32   S    
C39   N3    S    
C19   C20   D    
C33   H13   S    
Cr3   O15   S    
C16   O16   A    
C39   H23   S    
Cr3   O28   S    
C8    N2    S    
C20   H11   S    
C9    C10   D    
C19   H15   S    
C36   H22   S    
C1    O13   A    
Cr6   O3    S    
C38   H33   S    
C15   H8    S    
Cr2   O12   S    
C33   H17   S    
C28   O18   A    
Cr5   O7    S    
C4    O14   A    
C4    C34   S    
C40   H20   S    
C34   C39   S    
C18   C28   S    
C10   C11   S    
C24   O2    A    
C1    O4    A    
Cr6   O9    S    
Cr4   O29   S    
O20   S1    D    
Cr2   O28   S    
C7    H41   S    
C37   H28   S    
C27   O8    A    
Cr6   O2    S    
C1    C3    S    
C12   C40   S    
C35   C39   S    
Cr5   O31   S    
O24   S2    D    
Cr1   O4    S    
Cr4   O30   S    
C35   H18   S    
C2    C43   S    
C23   C24   S    
C33   C34   S    
Cr3   O27   S    
C35   H12   S    
C9    H7    S    
C14   C26   S    
O22   S1    S    
C32   H1    S    
C36   H25   S    
H26   N2    S    
C5    C25   S    
C13   S1    S    
C36   N1    S    
C37   H27   S    
C23   C35   S    
C38   H32   S    
C24   O32   A    
C42   C43   D    
C19   C29   S    
C11   H6    S    
Cr2   O13   S    
C9    C27   S    
C25   O29   A    
C15   C17   S    
C41   H39   S    
Cr4   O11   S    
C37   N2    S    
C38   H35   S    
C13   C31   S    
Cr6   O10   S    
C22   O31   A    
C6    C7    S    
Cr3   O23   S    
C6    H40   S    
C37   H29   S    
C17   H9    S    
C27   O9    A    
C16   O1    A    
C13   C17   D    
C8    C30   S    
C23   C32   S    
C30   O12   A    
Cr1   O17   S    
C32   C33   S    
C3    H4    S    
C22   C42   S    
C8    C11   D    
Cr5   O8    S    
C38   N3    S    
C31   O17   A    
C2    H37   S    
C40   N1    S    
C10   H5    S    
C31   O27   A    
C21   H14   S    
Cr1   O1    S    
C36   H24   S    
Cr1   O18   S    
C20   C21   S    
C25   O3    A    
O25   S2    D    
Cr3   O16   S    
C26   O6    A    
C14   C15   D    
C5    H2    S    
C42   H38   S    
C4    O15   A    
H31   N3    S    
C16   C41   S    
Cr2   O14   S    
C26   O7    A    
O26   S2    S    
