data_mof_unit_6566.cif
_audit_creation_date              2012-12-11T18:13:29-0500
_audit_creation_method            fapswitch 2.2
_symmetry_space_group_name_H-M    P1
_symmetry_Int_Tables_number       1
_space_group_crystal_system       triclinic
_cell_length_a                    8.225477
_cell_length_b                    12.662144
_cell_length_c                    18.678163
_cell_angle_alpha                 99.170789
_cell_angle_beta                  90.987384
_cell_angle_gamma                 98.228614
_cell_volume                      1899.13609727

loop_
_atom_site_label
_atom_site_type_symbol
_atom_type_description
_atom_site_fract_x
_atom_site_fract_y
_atom_site_fract_z
_atom_type_partial_charge
Ba1   Ba    Ba6+2 0.852780 0.548340 0.465070 1.643802
Ba2   Ba    Ba6+2 0.337060 0.451750 0.534940 1.627804
C1    C     C_3   0.624868 0.924734 0.275755 -0.337972
C2    C     C_R   0.891099 0.403527 0.096684 0.034400
C3    C     C_R   0.728220 0.359814 0.074259 -0.079024
C4    C     C_3   0.111957 0.760424 0.265223 0.393496
C5    C     C_R   0.665808 0.369269 0.005822 -0.089079
C6    C     C_R   0.766088 0.420629 0.957691 0.026722
C7    C     C_R   0.929792 0.464981 0.979424 0.014308
C8    C     C_R   0.705765 0.425874 0.887802 -0.094991
C9    C     C_R   0.808370 0.471157 0.837251 -0.035010
C10   C     C_R   0.971912 0.518788 0.859627 -0.006489
C11   C     C_R   0.031633 0.515742 0.930995 -0.008184
C12   C     C_3   0.566585 0.804035 0.266711 0.308627
C13   C     C_R   0.755606 0.465398 0.763891 0.014665
C14   C     C_R   0.864520 0.502952 0.714409 -0.309302
C15   C     C_R   0.023036 0.553966 0.735736 0.048115
C16   C     C_3   0.106151 0.789918 0.189543 -0.358857
C17   C     C_R   0.078096 0.565000 0.809771 -0.044082
C18   C     C_R   0.154670 0.502653 0.071999 -0.009711
C19   C     C_R   0.214115 0.499830 0.143501 -0.002027
C20   C     C_R   0.109823 0.449668 0.192467 -0.047249
C21   C     C_R   0.952940 0.395584 0.165968 -0.034342
C22   C     C_R   0.237545 0.615645 0.834959 -0.046540
C23   C     C_3   0.461057 0.282862 0.312544 0.289012
C24   C     C_R   0.297926 0.610225 0.904951 0.032910
C25   C     C_R   0.195283 0.559576 0.953084 0.006022
C26   C     C_R   0.256752 0.553001 0.023432 0.014284
C27   C     C_R   0.461416 0.652677 0.927061 -0.086003
C28   C     C_3   0.236611 0.783377 0.614883 0.288363
C29   C     C_R   0.522452 0.645468 0.996187 -0.090186
C30   C     C_R   0.420778 0.596596 0.044966 0.034914
C31   C     C_R   0.377376 0.547924 0.165844 -0.043192
C32   C     C_R   0.480451 0.592315 0.115099 -0.115778
C33   C     C_R   0.431169 0.552586 0.238813 -0.022162
C34   C     C_3   0.443059 0.250767 0.230157 -0.275871
C35   C     C_R   0.322946 0.511244 0.288048 -0.288882
C36   C     C_R   0.165037 0.457478 0.266358 0.051505
C37   C     C_R   0.770317 0.179233 0.516864 -0.305594
C38   C     C_R   0.432340 0.805999 0.466776 -0.273869
C39   C     C_R   0.404536 0.982766 0.440375 -0.096311
C40   C     C_3   0.270313 0.905873 0.630335 -0.386805
C41   C     C_R   0.340879 0.874514 0.437673 -0.017464
C42   C     C_R   0.581091 0.846778 0.505463 0.085009
C43   C     C_R   0.647084 0.958144 0.509604 -0.062969
C44   C     C_R   0.557199 0.026280 0.475895 -0.057112
C45   C     C_3   0.154516 0.203193 0.730018 0.386802
C46   C     C_R   0.620081 0.137256 0.481028 0.045020
C47   C     C_R   0.864062 0.112604 0.545317 0.025062
C48   C     C_R   0.799600 0.004190 0.545727 -0.079219
C49   C     C_3   0.962887 0.206031 0.373992 0.261343
C50   C     C_3   0.000331 0.091103 0.359333 -0.310833
C51   C     C_3   0.732486 0.716387 0.685119 0.316054
C52   C     C_3   0.750001 0.759197 0.766176 -0.402373
C53   C     C_1   0.301424 0.166125 0.208915 0.315025
C54   C     C_3   0.075449 0.295531 0.770340 -0.329614
C55   C     C_3   0.204871 0.134281 0.784426 -0.343146
C56   C     C_3   0.625251 0.196341 0.702518 0.294947
C57   C     C_3   0.659458 0.100526 0.737404 -0.355299
C58   C     C_R   0.991812 0.457495 0.049509 0.005666
H1    H     H_    0.500578 0.788861 0.316324 -0.017783
H2    H     H_    0.852686 0.696876 0.665823 0.016490
H3    H     H_    0.638170 0.642942 0.675632 0.051131
H4    H     H_    0.694638 0.951437 0.328368 0.110528
H5    H     H_    0.847676 0.830701 0.777035 0.128727
H6    H     H_    0.783151 0.696330 0.796418 0.057953
H7    H     H_    0.631961 0.783338 0.785921 0.116408
H8    H     H_    0.481329 0.780925 0.218252 -0.000234
H9    H     H_    0.517166 0.968649 0.276138 0.091865
H10   H     H_    0.344875 0.307427 0.333899 0.007208
H11   H     H_    0.561396 0.352537 0.325127 0.056955
H12   H     H_    0.372174 0.932051 0.671690 0.106869
H13   H     H_    0.425932 0.322090 0.204875 0.017582
H14   H     H_    0.556272 0.220398 0.209350 0.085100
H15   H     H_    0.703458 0.943948 0.230433 0.122545
H16   H     H_    0.123629 0.719228 0.148554 0.067576
H17   H     H_    0.264796 0.236119 0.703475 0.129175
H18   H     H_    0.293047 0.183651 0.826729 0.109615
H19   H     H_    0.095278 0.098896 0.811234 0.109487
H20   H     H_    0.264094 0.067277 0.756160 0.108153
H21   H     H_    0.745717 0.240189 0.689753 -0.008933
H22   H     H_    0.550681 0.165436 0.651293 0.045779
H23   H     H_    0.306115 0.938785 0.580737 0.094289
H24   H     H_    0.740949 0.128729 0.786669 0.120220
H25   H     H_    0.719622 0.044073 0.698527 0.113295
H26   H     H_    0.014584 0.691448 0.267849 0.112298
H27   H     H_    0.543776 0.056475 0.753836 0.105892
H28   H     H_    0.648282 0.319102 0.109935 0.060511
H29   H     H_    0.539356 0.335132 0.990193 0.070729
H30   H     H_    0.824451 0.492535 0.657881 0.066563
H31   H     H_    0.579223 0.391894 0.873030 0.112587
H32   H     H_    0.874395 0.349794 0.199369 0.099598
H33   H     H_    0.318377 0.657264 0.800183 0.094376
H34   H     H_    0.157894 0.938194 0.650219 0.150478
H35   H     H_    0.542836 0.690718 0.890635 0.061330
H36   H     H_    0.649317 0.678707 0.011634 0.072500
H37   H     H_    0.607013 0.626239 0.129922 0.098324
H38   H     H_    0.232463 0.734707 0.274811 -0.113481
H39   H     H_    0.364926 0.517459 0.343984 0.069088
H40   H     H_    0.331155 0.032364 0.416165 0.091454
H41   H     H_    0.870438 0.958048 0.574688 0.118164
H42   H     H_    0.817531 0.264350 0.520720 0.066161
H43   H     H_    0.381102 0.721760 0.463966 0.064250
H44   H     H_    0.985345 0.814616 0.178137 0.147098
H45   H     H_    0.829295 0.204414 0.379008 0.004887
H46   H     H_    0.205428 0.857700 0.185261 0.120395
H47   H     H_    0.349612 0.751504 0.596967 0.012858
H48   H     H_    0.138677 0.758643 0.571492 0.080448
H49   H     H_    0.041249 0.345623 0.731050 0.103336
H50   H     H_    0.963406 0.264712 0.797149 0.089312
H51   H     H_    0.162239 0.345924 0.812635 0.112612
H52   H     H_    0.030515 0.247173 0.425133 0.061136
H53   H     H_    0.943851 0.049153 0.306219 0.146290
H54   H     H_    0.952351 0.046839 0.402795 0.091286
H55   H     H_    0.134833 0.092317 0.356741 0.128973
N1    N     N_1   0.189840 0.099374 0.192069 -0.296843
O1    O     O_2   0.873090 0.425890 0.325140 -0.473506
O2    O     O_2   0.205617 0.118131 0.559862 -0.500444
O3    O     O_3   0.040391 0.137985 0.679298 -0.638754
O4    O     O_3   0.122420 0.434370 0.414380 -0.492926
O5    O     O_3   0.578370 0.633800 0.536380 -0.488855
O6    O     O_2   0.341510 0.231850 0.465510 -0.470684
O7    O     O_3   0.499277 0.194705 0.342866 -0.656361
O8    O     O_2   0.409779 0.441716 0.759059 -0.509174
O9    O     O_3   0.536721 0.262138 0.750335 -0.630221
O10   O     O_3   0.659500 0.627100 0.368810 -0.456998
O11   O     O_2   0.772466 0.550343 0.242722 -0.505995
O12   O     O_3   0.684721 0.796999 0.650055 -0.643907
O13   O     O_3   0.009216 0.254054 0.313999 -0.632592
O14   O     O_3   0.701456 0.747137 0.256661 -0.584620
O15   O     O_2   0.848200 0.768190 0.534530 -0.476999
O16   O     O_3   0.081160 0.685950 0.404810 -0.487262
O17   O     O_2   0.007359 0.880226 0.451783 -0.482555
O18   O     O_3   0.086066 0.849936 0.316305 -0.594616
O19   O     O_2   0.316610 0.574140 0.674900 -0.470316
O20   O     O_3   0.067290 0.565720 0.585630 -0.495128
O21   O     O_3   0.530210 0.372990 0.631200 -0.469626
O22   O     O_3   0.188584 0.746593 0.678956 -0.638536
O23   O     O_3   0.611340 0.366290 0.463630 -0.475342
O24   O     O_3   0.108550 0.314140 0.595200 -0.484888
P1    P     P_3+3 0.041040 0.394770 0.336330 0.975477
P2    P     P_3+3 0.672880 0.754030 0.556100 0.970288
P3    P     P_3+3 0.129563 0.823656 0.403225 0.955934
P4    P     P_3+3 0.148670 0.605320 0.663680 0.973502
P5    P     P_3+3 0.060568 0.172975 0.592123 0.925173
P6    P     P_3+3 0.639643 0.616310 0.274997 0.947486
P7    P     P_3+3 0.519914 0.231236 0.437234 0.935169
P8    P     P_3+3 0.556907 0.390916 0.725662 0.916330

loop_
_geom_bond_atom_site_label_1
_geom_bond_atom_site_label_2
_ccdc_geom_bond_type
C14   H30   S    
C49   H52   S    
C28   O22   S    
C28   H47   S    
O14   P6    S    
Ba2   P4    S    
C55   H19   S    
O21   P8    S    
C41   P3    S    
Ba1   O16   S    
C57   H25   S    
C49   O13   S    
C5    C6    A    
C52   H5    S    
C1    H4    S    
C10   C11   A    
O8    P8    D    
O23   P7    S    
C24   C25   A    
C15   P4    S    
Ba2   O23   S    
C4    H38   S    
C1    H9    S    
C22   C24   A    
C56   H22   S    
C13   P8    S    
O20   P4    S    
Ba2   O5    S    
C19   C31   A    
C53   N1    T    
C13   C14   A    
C20   C36   A    
C46   P7    S    
C32   H37   S    
O15   P2    D    
Ba1   Ba2   S    
C7    C11   A    
Ba1   P2    S    
C31   C33   A    
O18   P3    S    
C3    H28   S    
C9    C13   A    
C38   C41   A    
C6    C7    A    
C39   C44   A    
C23   H11   S    
C18   C58   A    
Ba1   O20   S    
C1    H15   S    
O11   P6    D    
C54   H51   S    
Ba1   O23   S    
C37   C46   A    
C28   H48   S    
O16   P3    S    
C45   O3    S    
C19   C20   A    
C39   C41   A    
C55   H20   S    
O5    P2    S    
C54   H50   S    
Ba1   O5    S    
Ba2   O6    S    
O10   P6    S    
C4    C16   S    
C44   C46   A    
O17   P3    D    
C40   H23   S    
C49   C50   S    
C26   C30   A    
Ba1   O10   S    
C34   H13   S    
C56   H21   S    
C3    C5    A    
C2    C21   A    
Ba2   O4    S    
C14   C15   A    
C16   H44   S    
C52   H7    S    
C18   C26   A    
C56   C57   S    
C51   C52   S    
C12   H1    S    
Ba2   O20   S    
C33   P6    S    
C30   C32   A    
O1    P1    D    
C16   H46   S    
C35   C36   A    
C51   O12   S    
C45   C55   S    
C51   H2    S    
C29   C30   A    
C38   C42   A    
C49   H45   S    
C2    C58   A    
C40   H12   S    
C31   C32   A    
C39   H40   S    
C47   P5    S    
Ba1   O1    S    
O6    P7    D    
C57   H24   S    
C23   O7    S    
C1    C12   S    
C34   H14   S    
C56   O9    S    
C42   P2    S    
O19   P4    D    
C37   C47   A    
O7    P7    S    
C8    H31   S    
C36   P1    S    
C45   H17   S    
C54   H49   S    
C35   H39   S    
C42   C43   A    
C37   H42   S    
C27   H35   S    
C12   O14   S    
C50   H55   S    
C21   H32   S    
C16   H16   S    
C33   C35   A    
C40   H34   S    
Ba2   O21   S    
C55   H18   S    
O2    P5    D    
C28   C40   S    
O4    P1    S    
C2    C3    A    
Ba1   O15   S    
O9    P8    S    
O24   P5    S    
C9    C10   A    
C52   H6    S    
C50   H54   S    
O3    P5    S    
Ba2   O19   S    
C4    H26   S    
C48   H41   S    
C7    C58   A    
Ba2   O24   S    
C17   C22   A    
C27   C29   A    
C34   C53   S    
O22   P4    S    
C22   H33   S    
C38   H43   S    
C51   H3    S    
C43   C48   A    
C50   H53   S    
C10   C17   A    
C15   C17   A    
C57   H27   S    
Ba1   P1    S    
C8    C9    A    
C23   C34   S    
C43   C44   A    
C4    O18   S    
O13   P1    S    
C18   C19   A    
C24   C27   A    
C6    C8    A    
C47   C48   A    
C25   C26   A    
C12   H8    S    
C20   C21   A    
C11   C25   A    
C23   H10   S    
O12   P2    S    
Ba1   O4    S    
C29   H36   S    
C45   C54   S    
C5    H29   S    
