data_mof_unit_67670.cif
_audit_creation_date              2012-10-26T20:16:51-0400
_audit_creation_method            fapswitch 2.2
_symmetry_space_group_name_H-M    P1
_symmetry_Int_Tables_number       1
_space_group_crystal_system       triclinic
_cell_length_a                    11.133892
_cell_length_b                    11.236195
_cell_length_c                    10.474542
_cell_angle_alpha                 90.587957
_cell_angle_beta                  91.767808
_cell_angle_gamma                 89.399136
_cell_volume                      1309.63179623

loop_
_atom_site_label
_atom_site_type_symbol
_atom_type_description
_atom_site_fract_x
_atom_site_fract_y
_atom_site_fract_z
_atom_type_partial_charge
C1    C     C_R   0.498975 0.261331 0.499195 0.588764
C2    C     C_R   0.498294 0.871912 0.828417 0.072362
C3    C     C_R   0.581739 0.120529 0.277267 0.030681
C4    C     C_R   0.418261 0.879471 0.722733 0.030681
C5    C     C_R   0.700130 0.161220 0.267085 0.076878
C6    C     C_R   0.299870 0.838780 0.732914 0.076878
C7    C     C_R   0.738720 0.201061 0.147386 0.156372
C8    C     C_R   0.261279 0.798939 0.852614 0.156372
C9    C     C_R   0.654083 0.214432 0.045402 0.123466
C10   C     C_R   0.345917 0.785568 0.954598 0.123466
C11   C     C_R   0.548038 0.934167 0.396993 0.159219
C12   C     C_R   0.501025 0.738669 0.500804 0.588765
C13   C     C_R   0.451962 0.065833 0.603007 0.159219
C14   C     C_R   0.503040 0.872494 0.502180 0.053056
C15   C     C_R   0.496960 0.127506 0.497820 0.053056
C16   C     C_R   0.261266 0.498983 0.497915 0.562037
C17   C     C_R   0.738734 0.501017 0.502085 0.562037
C18   C     C_R   0.457351 0.939553 0.606105 0.013663
C19   C     C_R   0.542649 0.060446 0.393895 0.013663
C20   C     C_1   0.500203 0.499783 0.072063 0.129089
C21   C     C_1   0.499796 0.500217 0.927937 0.129089
C22   C     C_R   0.128824 0.515466 0.036216 -0.097935
C23   C     C_R   0.872492 0.501541 0.504742 0.040269
C24   C     C_R   0.871176 0.484534 0.963784 -0.097935
C25   C     C_R   0.088409 0.541282 0.158473 -0.086071
C26   C     C_R   0.911591 0.458717 0.841527 -0.086071
C27   C     C_R   0.103995 0.458124 0.256157 0.048822
C28   C     C_R   0.896005 0.541876 0.743843 0.048822
C29   C     C_R   0.149683 0.344432 0.227319 0.132463
C30   C     C_R   0.850317 0.655568 0.772681 0.132463
C31   C     C_R   0.186494 0.319086 0.103007 -0.084545
C32   C     C_R   0.813506 0.680914 0.896993 -0.084545
C33   C     C_R   0.178990 0.405138 0.008769 -0.141681
C34   C     C_R   0.127508 0.498459 0.495258 0.040269
C35   C     C_R   0.821010 0.594862 0.991231 -0.141681
C36   C     C_R   0.929901 0.487190 0.388537 -0.128518
C37   C     C_R   0.070099 0.512810 0.611463 -0.128518
C38   C     C_3   0.924702 0.114704 0.080162 -0.271763
C39   C     C_3   0.075298 0.885296 0.919838 -0.271762
C40   C     C_3   0.717992 0.826502 0.308350 -0.257313
C41   C     C_3   0.282008 0.173498 0.691650 -0.257313
C42   C     C_R   0.944864 0.515254 0.617755 0.004831
C43   C     C_R   0.055136 0.484746 0.382245 0.004831
C44   C     C_R   0.535777 0.181366 0.060097 -0.103906
C45   C     C_R   0.464223 0.818634 0.939903 -0.103906
C46   C     C_R   0.501706 0.128087 0.171583 0.072362
Cu1   Cu    Cu3+1 0.500000 0.500000 0.625300 1.060541
Cu2   Cu    Cu3+1 0.500000 0.500000 0.374700 1.060541
H1    H     H_    0.207375 0.385003 0.913074 0.110531
H2    H     H_    0.123119 0.525213 0.699129 0.124364
H3    H     H_    0.471772 0.189343 0.981069 0.148440
H4    H     H_    0.528228 0.810657 0.018930 0.148440
H5    H     H_    0.907791 0.260889 0.201057 0.279350
H6    H     H_    0.018333 0.137540 0.058355 0.156288
H7    H     H_    0.880415 0.080578 0.990982 0.196987
H8    H     H_    0.926453 0.043911 0.153567 0.179140
H9    H     H_    0.092209 0.739111 0.798942 0.279350
H10   H     H_    0.981667 0.862460 0.941644 0.156288
H11   H     H_    0.073547 0.956088 0.846433 0.179140
H12   H     H_    0.792624 0.614996 0.086926 0.110531
H13   H     H_    0.119585 0.919421 0.009018 0.196987
H14   H     H_    0.580285 0.905787 0.203099 0.270892
H15   H     H_    0.724328 0.759660 0.385113 0.191780
H16   H     H_    0.779347 0.901448 0.330688 0.191019
H17   H     H_    0.747058 0.782737 0.218920 0.119571
H18   H     H_    0.419715 0.094213 0.796901 0.270892
H19   H     H_    0.275671 0.240340 0.614887 0.191781
H20   H     H_    0.252942 0.217263 0.781080 0.119571
H21   H     H_    0.220653 0.098552 0.669312 0.191019
H22   H     H_    0.117276 0.579421 0.961164 0.166452
H23   H     H_    0.882724 0.420579 0.038836 0.166452
H24   H     H_    0.045791 0.626596 0.177100 0.146833
H25   H     H_    0.954209 0.373404 0.822900 0.146833
H26   H     H_    0.215921 0.232108 0.075643 0.151879
H27   H     H_    0.784078 0.767892 0.924357 0.151879
H28   H     H_    0.876881 0.474787 0.300871 0.124364
I1    I     I_    0.818880 0.154905 0.430823 -0.313303
I2    I     I_    0.181120 0.845095 0.569177 -0.313303
I3    I     I_    0.148131 0.208182 0.365763 -0.355464
I4    I     I_    0.851869 0.791818 0.634236 -0.355464
I5    I     I_    0.696526 0.270012 0.860332 -0.302280
I6    I     I_    0.303474 0.729987 0.139668 -0.302279
I7    I     I_    0.337743 0.039490 0.164843 -0.415210
I8    I     I_    0.662257 0.960510 0.835156 -0.415210
N1    N     N_1   0.500010 0.499990 0.186410 -0.179766
N2    N     N_1   0.499990 0.500010 0.813590 -0.179766
N3    N     N_2   0.862339 0.219388 0.126369 -0.518535
N4    N     N_2   0.137661 0.780612 0.873631 -0.518535
N5    N     N_2   0.595612 0.868906 0.291465 -0.480913
N6    N     N_2   0.404388 0.131094 0.708535 -0.480912
O1    O     O_R   0.499990 0.319650 0.605810 -0.448630
O2    O     O_R   0.500010 0.680350 0.394190 -0.448630
O3    O     O_R   0.499990 0.319640 0.394190 -0.503297
O4    O     O_R   0.500010 0.680360 0.605810 -0.503297
O5    O     O_R   0.319640 0.500010 0.605810 -0.528383
O6    O     O_R   0.680360 0.499990 0.394190 -0.528383
O7    O     O_R   0.319650 0.500010 0.394190 -0.468528
O8    O     O_R   0.680350 0.499990 0.605810 -0.468528

loop_
_geom_bond_atom_site_label_1
_geom_bond_atom_site_label_2
_ccdc_geom_bond_type
C17   O6    A    
C13   N6    S    
C27   C29   A    
C34   C37   A    
C14   C18   A    
C2    I8    S    
C32   H27   S    
H18   N6    S    
C15   C19   A    
Cu2   O7    S    
C11   C19   A    
C17   C23   S    
Cu1   O8    S    
C13   C18   A    
C24   C26   A    
C11   C14   A    
C16   O7    A    
C6    I2    S    
C33   H1    S    
H14   N5    S    
C26   H25   S    
C37   C42   A    
C36   H28   S    
C16   C34   S    
C7    N3    S    
C38   H7    S    
C9    C44   A    
C22   C25   A    
C38   H6    S    
C31   C33   A    
C3    C19   S    
C1    C15   S    
C40   N5    S    
C17   O8    A    
C30   I4    S    
C41   N6    S    
C1    O1    A    
C12   O4    A    
C39   N4    S    
C44   C46   A    
C41   H20   S    
C2    C45   A    
C39   H13   S    
C24   C35   A    
Cu2   O3    S    
C32   C35   A    
C41   H19   S    
C4    C6    A    
C5    C7    A    
C31   H26   S    
C6    C8    A    
C45   H4    S    
C39   H10   S    
C10   I6    S    
C35   H12   S    
C8    N4    S    
C2    C4    A    
Cu1   N2    S    
C11   N5    S    
C23   C42   A    
Cu1   Cu2   S    
C29   I3    S    
C39   H11   S    
C20   N1    T    
C10   C45   A    
H5    N3    S    
C25   H24   S    
C40   H15   S    
C44   H3    S    
C1    O3    A    
C12   C14   S    
C40   H17   S    
C13   C15   A    
C5    I1    S    
C41   H21   S    
C7    C9    A    
C22   C33   A    
C21   N2    T    
C16   O5    A    
Cu2   O6    S    
Cu1   O1    S    
C12   O2    A    
C34   C43   A    
C3    C5    A    
C25   C27   A    
C3    C46   A    
C26   C28   A    
C40   H16   S    
H9    N4    S    
C38   N3    S    
C28   C30   A    
C4    C18   S    
C29   C31   A    
C30   C32   A    
C37   H2    S    
C28   C42   S    
Cu1   O4    S    
C46   I7    S    
C27   C43   S    
C38   H8    S    
C20   C21   S    
C8    C10   A    
C23   C36   A    
Cu2   O2    S    
Cu1   O5    S    
Cu2   N1    S    
C36   C43   A    
C22   H22   S    
C24   H23   S    
C9    I5    S    
