data_mof_unit_12827.cif
_audit_creation_date              2012-12-10T17:02:57-0500
_audit_creation_method            fapswitch 2.2
_symmetry_space_group_name_H-M    P1
_symmetry_Int_Tables_number       1
_space_group_crystal_system       triclinic
_cell_length_a                    9.778892
_cell_length_b                    10.933144
_cell_length_c                    13.435455
_cell_angle_alpha                 94.039102
_cell_angle_beta                  81.457052
_cell_angle_gamma                 110.819706
_cell_volume                      1327.50558756

loop_
_atom_site_label
_atom_site_type_symbol
_atom_type_description
_atom_site_fract_x
_atom_site_fract_y
_atom_site_fract_z
_atom_type_partial_charge
C1    C     C_R   0.555033 0.746163 0.509449 0.805846
C2    C     C_R   0.439295 0.513429 0.972574 0.053005
C3    C     C_R   0.481358 0.547799 0.869734 0.089427
C4    C     C_R   0.550634 0.546452 0.037408 0.094068
C5    C     C_R   0.697631 0.624561 0.001296 0.152913
C6    C     C_R   0.732071 0.671685 0.903743 -0.207948
C7    C     C_R   0.625354 0.635548 0.839386 -0.171252
C8    C     C_R   0.520800 0.502835 0.136705 -0.229800
C9    C     C_R   0.775890 0.617761 0.163577 -0.025400
C10   C     C_R   0.377266 0.495235 0.800537 -0.144630
C11   C     C_2   0.580945 0.886068 0.522772 0.013187
C12   C     C_R   0.423645 0.495320 0.690821 0.789713
C13   C     C_2   0.464105 0.925751 0.542941 -0.256979
C14   C     C_2   0.411807 0.113322 0.499237 -0.367379
C15   C     C_2   0.479447 0.063283 0.556984 0.011709
C16   C     C_2   0.922409 0.489049 0.491815 -0.010857
C17   C     C_2   0.076637 0.509228 0.509409 -0.044045
C18   C     C_R   0.442527 0.253902 0.496635 0.859382
C19   C     C_R   0.579100 0.515448 0.309447 0.804879
C20   C     C_R   0.808747 0.657418 0.063671 -0.192175
C21   C     C_R   0.629262 0.542154 0.201461 -0.102009
C22   C     C_R   0.228153 0.431341 0.837028 -0.211160
C23   C     C_R   0.183226 0.412647 0.939599 0.208090
C24   C     C_R   0.287405 0.449737 0.006603 -0.207452
Cu1   Cu    Cu3+1 0.362000 0.479240 0.482530 0.968529
Cu2   Cu    Cu3+1 0.638000 0.520760 0.517470 0.984168
H1    H     H_    0.352351 0.855469 0.544970 0.164180
H2    H     H_    0.339022 0.050018 0.448268 0.167974
H3    H     H_    0.124642 0.577103 0.568326 0.149410
H4    H     H_    0.873644 0.419749 0.433886 0.168030
H5    H     H_    0.106943 0.384825 0.400283 0.210686
H6    H     H_    0.894385 0.617804 0.597937 0.194872
H7    H     H_    0.842423 0.736646 0.876775 0.150112
H8    H     H_    0.921012 0.716852 0.034999 0.144456
H9    H     H_    0.412623 0.438007 0.166099 0.157578
H10   H     H_    0.146287 0.393812 0.785815 0.186236
H11   H     H_    0.245234 0.431163 0.084921 0.153260
H12   H     H_    0.656938 0.680607 0.766527 0.169447
N1    N     N_2   0.845330 0.551960 0.543750 -0.279125
N2    N     N_2   0.154690 0.448120 0.456210 -0.274436
O1    O     O_R   0.426290 0.668220 0.490680 -0.588932
O2    O     O_R   0.659360 0.703290 0.520190 -0.551281
O3    O     O_R   0.326580 0.473880 0.629020 -0.579112
O4    O     O_R   0.559660 0.508940 0.658530 -0.571571
O5    O     O_R   0.340640 0.296710 0.479810 -0.553674
O6    O     O_R   0.573710 0.331780 0.509320 -0.563564
O7    O     O_R   0.440340 0.491060 0.341470 -0.571262
O8    O     O_R   0.673420 0.526120 0.370980 -0.569639
C25   C     C_1   0.893907 0.660641 0.225391 0.293720
N3    N     N_1   0.988698 0.695108 0.274732 -0.263663
I1    I     I_    0.804558 0.017398 0.506031 -0.346821
I2    I     I_    0.956975 0.323107 0.993358 -0.369653
C26   C     C_1   0.558571 0.138517 0.637302 0.354153
N4    N     N_1   0.621390 0.198489 0.701388 -0.245211

loop_
_geom_bond_atom_site_label_1
_geom_bond_atom_site_label_2
_ccdc_geom_bond_type
C2    C4    A    
C23   C24   A    
C9    C25   S    
C6    C7    A    
Cu1   O5    S    
C22   H10   S    
C14   C18   S    
C9    C20   A    
C1    C11   S    
C6    H7    S    
Cu2   O8    S    
C4    C8    A    
C20   H8    S    
Cu1   O3    S    
C24   H11   S    
Cu2   O4    S    
C12   O4    A    
C3    C10   A    
C26   N4    T    
C10   C22   A    
C11   C13   D    
C9    C21   A    
C23   I2    S    
C16   C17   S    
C10   C12   S    
C18   O6    A    
C1    O1    A    
C19   C21   S    
C7    H12   S    
C2    C3    A    
C12   O3    A    
C3    C7    A    
C13   C15   S    
Cu1   N2    S    
C2    C24   A    
C5    C6    A    
C19   O7    A    
Cu2   N1    S    
C11   I1    S    
Cu2   O6    S    
C16   N1    D    
C16   H4    S    
C18   O5    A    
C15   C26   S    
C1    O2    A    
C17   H3    S    
H5    N2    S    
Cu2   O2    S    
C25   N3    T    
H6    N1    S    
Cu1   O1    S    
C5    C20   A    
Cu1   O7    S    
C14   C15   D    
C13   H1    S    
C14   H2    S    
Cu1   Cu2   S    
C19   O8    A    
C17   N2    D    
C22   C23   A    
C4    C5    A    
C8    H9    S    
C8    C21   A    
