data_mof_unit_31667.cif
_audit_creation_date              2012-12-10T21:11:38-0500
_audit_creation_method            fapswitch 2.2
_symmetry_space_group_name_H-M    P1
_symmetry_Int_Tables_number       1
_space_group_crystal_system       triclinic
_cell_length_a                    17.643741
_cell_length_b                    16.681265
_cell_length_c                    10.629549
_cell_angle_alpha                 89.998751
_cell_angle_beta                  89.961019
_cell_angle_gamma                 90.00076
_cell_volume                      3128.48727788

loop_
_atom_site_label
_atom_site_type_symbol
_atom_type_description
_atom_site_fract_x
_atom_site_fract_y
_atom_site_fract_z
_atom_type_partial_charge
C1    C     C_R   0.353228 0.500000 0.499846 0.897416
C2    C     C_R   0.461322 0.167610 0.406658 -0.276870
C3    C     C_R   0.461745 0.748021 0.408661 -0.000727
C4    C     C_R   0.538089 0.251978 0.591531 -0.000797
C5    C     C_R   0.538254 0.748019 0.591341 -0.000732
C6    C     C_R   0.461911 0.251979 0.408468 -0.000800
C7    C     C_R   0.499999 0.875572 0.500002 0.165266
C8    C     C_R   0.500000 0.124426 0.500000 0.165316
C9    C     C_1   0.499999 0.963394 0.500001 -0.054476
C10   C     C_1   0.499999 0.036605 0.500001 -0.054485
C11   C     C_R   0.512143 0.500001 0.260130 0.900692
C12   C     C_R   0.646771 0.500000 0.500140 0.897419
C13   C     C_R   0.487858 0.500000 0.739870 0.900695
C14   C     C_R   0.541881 0.647545 0.110464 -0.131909
C15   C     C_R   0.458124 0.352457 0.889540 -0.132013
C16   C     C_R   0.458134 0.647547 0.889526 -0.131907
C17   C     C_R   0.541877 0.352458 0.110473 -0.132004
C18   C     C_R   0.522197 0.720028 0.053987 -0.166453
C19   C     C_R   0.477814 0.279975 0.946014 -0.166514
C20   C     C_R   0.477828 0.720029 0.945991 -0.166466
C21   C     C_R   0.522185 0.279975 0.054007 -0.166521
C22   C     C_R   0.483073 0.573627 0.940604 0.089324
C23   C     C_R   0.886246 0.500002 0.499743 0.112298
C24   C     C_R   0.516934 0.426376 0.059396 0.089377
C25   C     C_R   0.516937 0.573627 0.059392 0.089317
C26   C     C_R   0.483068 0.426375 0.940611 0.089367
C27   C     C_R   0.476250 0.500001 0.875738 -0.265940
C28   C     C_R   0.523754 0.500001 0.124263 -0.265936
C29   C     C_R   0.847238 0.573583 0.499800 0.188470
C30   C     C_R   0.152762 0.426419 0.499849 0.188454
C31   C     C_R   0.152764 0.573581 0.499879 0.188468
C32   C     C_R   0.847236 0.426421 0.499778 0.188456
C33   C     C_R   0.768428 0.572850 0.499924 -0.209057
C34   C     C_R   0.113754 0.500000 0.499837 0.112297
C35   C     C_R   0.231572 0.427152 0.499875 -0.209030
C36   C     C_R   0.231574 0.572848 0.499904 -0.209051
C37   C     C_R   0.768426 0.427154 0.499902 -0.209039
C38   C     C_R   0.729059 0.500002 0.499992 -0.136110
C39   C     C_R   0.270941 0.499999 0.499888 -0.136100
C40   C     C_3   0.888782 0.652647 0.499760 -0.922445
C41   C     C_3   0.111217 0.347356 0.499818 -0.922428
C42   C     C_3   0.111223 0.652645 0.499880 -0.922445
C43   C     C_3   0.888778 0.347357 0.499713 -0.922429
C44   C     C_1   0.966406 0.500002 0.499738 -0.027894
C45   C     C_1   0.033594 0.500001 0.499773 -0.027894
C46   C     C_R   0.461149 0.832390 0.406859 -0.276877
C47   C     C_R   0.538678 0.167609 0.593341 -0.276868
C48   C     C_R   0.538849 0.832388 0.593145 -0.276881
H1    H     H_    0.540072 0.223839 0.095571 0.138020
H2    H     H_    0.262188 0.370826 0.499858 0.167382
H3    H     H_    0.262192 0.629173 0.499910 0.167355
H4    H     H_    0.737809 0.370828 0.499951 0.167385
H5    H     H_    0.430534 0.863579 0.333375 0.139198
H6    H     H_    0.569154 0.136420 0.666985 0.139181
H7    H     H_    0.569462 0.863576 0.666630 0.139197
H8    H     H_    0.430846 0.136423 0.333014 0.139181
H9    H     H_    0.431514 0.715117 0.336782 0.140675
H10   H     H_    0.568192 0.284878 0.663562 0.140751
H11   H     H_    0.568484 0.715114 0.663222 0.140680
H12   H     H_    0.459944 0.776166 0.904427 0.138038
H13   H     H_    0.431808 0.284881 0.336437 0.140753
H14   H     H_    0.849117 0.704360 0.499802 0.238278
H15   H     H_    0.924962 0.657061 0.584895 0.245440
H16   H     H_    0.924968 0.657065 0.414549 0.245024
H17   H     H_    0.150881 0.295642 0.499821 0.238285
H18   H     H_    0.074990 0.342932 0.584980 0.245016
H19   H     H_    0.075079 0.342948 0.414633 0.245446
H20   H     H_    0.150889 0.704359 0.499894 0.238277
H21   H     H_    0.075080 0.657068 0.414702 0.245445
H22   H     H_    0.075000 0.657055 0.585049 0.245019
H23   H     H_    0.459926 0.223838 0.904455 0.138019
H24   H     H_    0.849112 0.295644 0.499748 0.238285
H25   H     H_    0.924960 0.342950 0.414496 0.245024
H26   H     H_    0.924962 0.342932 0.584843 0.245438
H27   H     H_    0.540088 0.776164 0.095544 0.138038
H28   H     H_    0.577337 0.649801 0.193428 0.152038
H29   H     H_    0.422667 0.350200 0.806578 0.152036
H30   H     H_    0.422675 0.649806 0.806565 0.152042
H31   H     H_    0.577335 0.350202 0.193434 0.152036
H32   H     H_    0.737811 0.629175 0.499993 0.167356
N1    N     N_R   0.500000 0.707230 0.500000 -0.094543
N2    N     N_R   0.500000 0.292770 0.500000 -0.094518
O1    O     O_R   0.389110 0.566570 0.499990 -0.627182
O2    O     O_R   0.610890 0.433430 0.500010 -0.627124
O3    O     O_R   0.610890 0.566570 0.500010 -0.627180
O4    O     O_R   0.389110 0.433430 0.499990 -0.627123
O5    O     O_R   0.499990 0.566540 0.316770 -0.623351
O6    O     O_R   0.500010 0.433460 0.683230 -0.623402
O7    O     O_R   0.500010 0.566540 0.683230 -0.623353
O8    O     O_R   0.499990 0.433460 0.316770 -0.623409
Zn1   Zn    Zn3+2 0.500000 0.588860 0.500000 0.931650
Zn2   Zn    Zn3+2 0.500000 0.411140 0.500000 0.931665

loop_
_geom_bond_atom_site_label_1
_geom_bond_atom_site_label_2
_ccdc_geom_bond_type
C43   H25   S    
C48   H7    S    
C18   H27   S    
C6    N2    A    
C31   C42   S    
O5    Zn1   S    
C14   C18   A    
C19   H23   S    
C42   H22   S    
C21   H1    S    
O3    Zn1   S    
C40   H14   S    
C41   H19   S    
C25   C28   A    
C15   C19   A    
C26   C27   A    
C43   H24   S    
C40   H15   S    
C12   O3    A    
C23   C29   A    
C6    H13   S    
C19   C21   A    
C24   C26   A    
C29   C33   A    
C17   H31   S    
N2    Zn2   S    
C12   O2    A    
O6    Zn2   S    
C11   O5    A    
C22   C25   A    
C3    N1    A    
C30   C41   S    
C20   H12   S    
C9    C10   T    
C16   H30   S    
C43   H26   S    
C42   H20   S    
C2    C6    A    
C5    C48   A    
C17   C24   A    
C5    H11   S    
C7    C46   A    
C37   H4    S    
C30   C34   A    
C15   C26   A    
C41   H17   S    
C42   H21   S    
C17   C21   A    
C23   C44   S    
C14   H28   S    
C35   C39   A    
C37   C38   A    
C5    N1    A    
O8    Zn2   S    
C16   C20   A    
C35   H2    S    
C46   H5    S    
C31   C34   A    
C34   C45   S    
C32   C37   A    
C36   H3    S    
C47   H6    S    
C30   C35   A    
C22   C27   A    
O7    Zn1   S    
C3    H9    S    
C44   C45   T    
C1    O4    A    
C7    C9    S    
C16   C22   A    
C13   O7    A    
C36   C39   A    
C2    C8    A    
C24   C28   A    
C33   H32   S    
C41   H18   S    
C1    O1    A    
O1    Zn1   S    
C3    C46   A    
C33   C38   A    
C40   H16   S    
C23   C32   A    
C8    C47   A    
C2    H8    S    
C7    C48   A    
C11   O8    A    
C15   H29   S    
C11   C28   S    
C13   O6    A    
C32   C43   S    
C18   C20   A    
C14   C25   A    
C12   C38   S    
C1    C39   S    
N1    Zn1   S    
C4    N2    A    
C8    C10   S    
C4    H10   S    
C31   C36   A    
C13   C27   S    
O4    Zn2   S    
O2    Zn2   S    
C29   C40   S    
C4    C47   A    
