data_mof_unit_56387.cif
_audit_creation_date              2012-12-11T15:34:43-0500
_audit_creation_method            fapswitch 2.2
_symmetry_space_group_name_H-M    P1
_symmetry_Int_Tables_number       1
_space_group_crystal_system       triclinic
_cell_length_a                    17.115502
_cell_length_b                    17.115666
_cell_length_c                    17.361199
_cell_angle_alpha                 89.998006
_cell_angle_beta                  89.99823
_cell_angle_gamma                 89.998268
_cell_volume                      5085.84545484

loop_
_atom_site_label
_atom_site_type_symbol
_atom_type_description
_atom_site_fract_x
_atom_site_fract_y
_atom_site_fract_z
_atom_type_partial_charge
C1    C     C_R   0.801195 0.108567 0.401248 0.508192
C2    C     C_R   0.171167 0.079080 0.356128 0.457202
C3    C     C_R   0.920906 0.171177 0.643865 0.457284
C4    C     C_R   0.108570 0.801196 0.401251 0.508147
C5    C     C_R   0.198804 0.108554 0.598753 0.508229
C6    C     C_R   0.828819 0.920901 0.356131 0.457333
C7    C     C_R   0.079077 0.828828 0.643867 0.457251
C8    C     C_R   0.891436 0.198808 0.401246 0.508116
C9    C     C_R   0.301197 0.608570 0.901246 0.508121
C10   C     C_R   0.671187 0.420909 0.143861 0.457259
C11   C     C_R   0.420914 0.328836 0.856126 0.457196
C12   C     C_R   0.171151 0.920917 0.643880 0.457230
C13   C     C_R   0.608554 0.698803 0.098753 0.508241
C14   C     C_R   0.698809 0.391438 0.901250 0.508160
C15   C     C_R   0.328826 0.579077 0.143866 0.457221
C16   C     C_R   0.579080 0.671160 0.856124 0.457247
C17   C     C_R   0.391428 0.301196 0.098732 0.508484
C18   C     C_R   0.301195 0.391446 0.098758 0.508136
C19   C     C_R   0.671172 0.579081 0.856128 0.457224
C20   C     C_R   0.420916 0.671150 0.143880 0.457252
C21   C     C_R   0.608576 0.301192 0.901276 0.508335
C22   C     C_R   0.698803 0.608559 0.098758 0.508160
C23   C     C_R   0.920908 0.828821 0.356132 0.457305
C24   C     C_R   0.328812 0.420901 0.856139 0.457321
C25   C     C_R   0.579075 0.328859 0.143889 0.457067
C26   C     C_R   0.391441 0.698810 0.901263 0.508260
C27   C     C_R   0.240492 0.240491 0.658893 -0.284417
C28   C     C_R   0.845037 0.845034 0.227555 -0.238246
C29   C     C_R   0.845057 0.154943 0.772441 -0.238351
C30   C     C_R   0.240532 0.759488 0.341154 -0.284358
C31   C     C_R   0.759465 0.759496 0.658848 -0.284376
C32   C     C_R   0.154965 0.154948 0.227551 -0.238311
C33   C     C_R   0.154917 0.845047 0.772454 -0.238275
C34   C     C_R   0.108559 0.198801 0.598762 0.508148
C35   C     C_R   0.759483 0.240534 0.341152 -0.284338
C36   C     C_R   0.740493 0.740492 0.158890 -0.284424
C37   C     C_R   0.345026 0.345046 0.727556 -0.238253
C38   C     C_R   0.345042 0.654914 0.272452 -0.238276
C39   C     C_R   0.740524 0.259478 0.841160 -0.284368
C40   C     C_R   0.259493 0.259497 0.158868 -0.284394
C41   C     C_R   0.654946 0.654939 0.727542 -0.238288
C42   C     C_R   0.654957 0.345100 0.272458 -0.238285
C43   C     C_R   0.259492 0.740530 0.841146 -0.284364
C44   C     C_R   0.816950 0.183054 0.373350 -0.102065
C45   C     C_R   0.198812 0.891438 0.401267 0.508247
C46   C     C_R   0.134260 0.865717 0.691258 -0.162838
C47   C     C_R   0.865705 0.865702 0.308749 -0.162876
C48   C     C_R   0.183044 0.183035 0.626659 -0.102114
C49   C     C_R   0.183063 0.816956 0.373365 -0.102090
C50   C     C_R   0.865706 0.134292 0.691244 -0.162818
C51   C     C_R   0.134287 0.134281 0.308745 -0.162800
C52   C     C_R   0.816937 0.816963 0.626644 -0.102071
C53   C     C_R   0.316960 0.683061 0.873357 -0.102072
C54   C     C_R   0.634307 0.365719 0.191253 -0.162895
C55   C     C_R   0.365691 0.365700 0.808755 -0.162900
C56   C     C_R   0.828821 0.079092 0.643867 0.457317
C57   C     C_R   0.683037 0.683043 0.126655 -0.102115
C58   C     C_R   0.683055 0.316951 0.873362 -0.102112
C59   C     C_R   0.365715 0.634259 0.191256 -0.162814
C60   C     C_R   0.634280 0.634272 0.808741 -0.162779
C61   C     C_R   0.316955 0.316964 0.126657 -0.102137
C62   C     C_R   0.275353 0.372911 0.697034 0.404119
C63   C     C_R   0.819269 0.718536 0.174912 0.424795
C64   C     C_R   0.718573 0.180686 0.825149 0.424755
C65   C     C_R   0.372954 0.724539 0.303037 0.404127
C66   C     C_R   0.724615 0.627076 0.697007 0.404087
C67   C     C_R   0.079089 0.171173 0.356128 0.457255
C68   C     C_R   0.180713 0.281446 0.174888 0.424830
C69   C     C_R   0.281406 0.819331 0.825156 0.424825
C70   C     C_R   0.627053 0.275479 0.303044 0.404072
C71   C     C_R   0.275363 0.627063 0.302972 0.404136
C72   C     C_R   0.819312 0.281430 0.825127 0.424766
C73   C     C_R   0.718549 0.819276 0.174900 0.424722
C74   C     C_R   0.372915 0.275407 0.696996 0.404113
C75   C     C_R   0.724633 0.372968 0.302978 0.404122
C76   C     C_R   0.180728 0.718546 0.825088 0.424716
C77   C     C_R   0.281444 0.180707 0.174879 0.424681
C78   C     C_R   0.891427 0.801199 0.598747 0.508151
C79   C     C_R   0.627036 0.724567 0.696970 0.404118
C80   C     C_R   0.775389 0.872913 0.197012 0.404134
C81   C     C_R   0.319287 0.218557 0.674884 0.424697
C82   C     C_R   0.218547 0.680725 0.325095 0.424702
C83   C     C_R   0.872948 0.224593 0.802989 0.404106
C84   C     C_R   0.224613 0.127066 0.197007 0.404172
C85   C     C_R   0.680658 0.781419 0.674839 0.424717
C86   C     C_R   0.781461 0.319313 0.325104 0.424719
C87   C     C_R   0.127065 0.775367 0.802975 0.404115
C88   C     C_R   0.775420 0.127049 0.803005 0.404083
C89   C     C_R   0.801191 0.891452 0.598750 0.508144
C90   C     C_R   0.319333 0.781400 0.325166 0.424818
C91   C     C_R   0.218523 0.319263 0.674928 0.424773
C92   C     C_R   0.872910 0.775371 0.197021 0.404103
C93   C     C_R   0.224547 0.872956 0.803034 0.404143
C94   C     C_R   0.680675 0.218611 0.325167 0.424752
C95   C     C_R   0.781440 0.680725 0.674889 0.424747
C96   C     C_R   0.127082 0.224604 0.197003 0.404046
Cl1   Cl    Cl    0.718878 0.092898 0.460330 -0.349390
Cl2   Cl    Cl    0.270954 0.055868 0.352140 -0.338087
Cl3   Cl    Cl    0.944049 0.270980 0.647820 -0.337938
Cl4   Cl    Cl    0.092866 0.718876 0.460299 -0.349403
Cl5   Cl    Cl    0.281118 0.092864 0.539683 -0.349400
Cl6   Cl    Cl    0.729048 0.944118 0.352136 -0.338081
Cl7   Cl    Cl    0.055922 0.729038 0.647813 -0.337991
Cl8   Cl    Cl    0.907125 0.281114 0.460312 -0.349475
Cl9   Cl    Cl    0.218870 0.592871 0.960289 -0.349397
Cl10  Cl    Cl    0.770989 0.444061 0.147805 -0.337961
Cl11  Cl    Cl    0.444324 0.229062 0.852067 -0.338008
Cl12  Cl    Cl    0.270934 0.944119 0.647897 -0.338095
Cl13  Cl    Cl    0.592861 0.781117 0.039690 -0.349428
Cl14  Cl    Cl    0.781108 0.407128 0.960326 -0.349471
Cl15  Cl    Cl    0.229030 0.555933 0.147808 -0.337994
Cl16  Cl    Cl    0.555890 0.770944 0.852134 -0.338104
Cl17  Cl    Cl    0.407005 0.218931 0.039547 -0.349691
Cl18  Cl    Cl    0.218886 0.407134 0.039687 -0.349440
Cl19  Cl    Cl    0.770968 0.555918 0.852167 -0.337977
Cl20  Cl    Cl    0.444107 0.770932 0.147891 -0.338101
Cl21  Cl    Cl    0.592976 0.218913 0.960454 -0.349671
Cl22  Cl    Cl    0.781121 0.592884 0.039697 -0.349441
Cl23  Cl    Cl    0.944077 0.729035 0.352165 -0.337990
Cl24  Cl    Cl    0.229024 0.444069 0.852183 -0.337974
Cl25  Cl    Cl    0.555583 0.229087 0.148007 -0.338035
Cl26  Cl    Cl    0.407123 0.781094 0.960361 -0.349503
Cl27  Cl    Cl    0.262493 0.473834 0.679874 -0.350725
Cl28  Cl    Cl    0.847738 0.622217 0.198154 -0.243783
Cl29  Cl    Cl    0.622212 0.152187 0.801998 -0.243619
Cl30  Cl    Cl    0.473883 0.737302 0.320239 -0.350967
Cl31  Cl    Cl    0.737487 0.526145 0.679872 -0.350791
Cl32  Cl    Cl    0.152221 0.377762 0.198103 -0.243754
Cl33  Cl    Cl    0.377704 0.847852 0.801965 -0.243763
Cl34  Cl    Cl    0.092878 0.281124 0.539709 -0.349439
Cl35  Cl    Cl    0.526107 0.262740 0.320344 -0.350791
Cl36  Cl    Cl    0.262471 0.526133 0.320106 -0.350720
Cl37  Cl    Cl    0.847808 0.377754 0.801932 -0.243724
Cl38  Cl    Cl    0.622228 0.847779 0.198091 -0.243760
Cl39  Cl    Cl    0.473857 0.262626 0.679762 -0.350744
Cl40  Cl    Cl    0.737506 0.473905 0.320086 -0.350773
Cl41  Cl    Cl    0.152312 0.622222 0.801814 -0.243875
Cl42  Cl    Cl    0.377785 0.152188 0.198003 -0.243654
Cl43  Cl    Cl    0.526081 0.737362 0.679864 -0.350935
Cl44  Cl    Cl    0.762559 0.973847 0.179857 -0.350869
Cl45  Cl    Cl    0.281097 0.907116 0.460376 -0.349478
Cl46  Cl    Cl    0.347817 0.122238 0.698069 -0.243725
Cl47  Cl    Cl    0.122224 0.652304 0.301844 -0.243893
Cl48  Cl    Cl    0.973890 0.237431 0.820089 -0.350881
Cl49  Cl    Cl    0.237445 0.026127 0.179863 -0.350828
Cl50  Cl    Cl    0.652093 0.877734 0.697982 -0.243640
Cl51  Cl    Cl    0.877794 0.347769 0.301875 -0.243755
Cl52  Cl    Cl    0.026135 0.762476 0.820116 -0.350720
Cl53  Cl    Cl    0.762575 0.026112 0.820107 -0.350991
Cl54  Cl    Cl    0.347863 0.877701 0.301992 -0.243756
Cl55  Cl    Cl    0.122199 0.347713 0.698185 -0.243798
Cl56  Cl    Cl    0.729031 0.055955 0.647828 -0.338043
Cl57  Cl    Cl    0.973833 0.762530 0.179856 -0.350787
Cl58  Cl    Cl    0.237323 0.973879 0.820240 -0.350965
Cl59  Cl    Cl    0.652159 0.122300 0.301942 -0.243775
Cl60  Cl    Cl    0.877765 0.652269 0.698124 -0.243830
Cl61  Cl    Cl    0.026145 0.237450 0.179880 -0.350858
Cl62  Cl    Cl    0.055936 0.270971 0.352168 -0.337975
Cl63  Cl    Cl    0.907114 0.718888 0.539680 -0.349457
Cl64  Cl    Cl    0.718903 0.907152 0.539653 -0.349496
N1    N     N_R   0.868470 0.074730 0.422590 -0.158374
N2    N     N_R   0.131530 0.074730 0.422590 -0.123757
N3    N     N_R   0.925270 0.131530 0.577410 -0.123772
N4    N     N_R   0.074730 0.868470 0.422590 -0.158376
N5    N     N_R   0.131530 0.074730 0.577410 -0.158389
N6    N     N_R   0.868470 0.925270 0.422590 -0.123766
N7    N     N_R   0.074730 0.868470 0.577410 -0.123768
N8    N     N_R   0.925270 0.131530 0.422590 -0.158379
N9    N     N_R   0.368470 0.574730 0.922590 -0.158372
N10   N     N_R   0.631530 0.425270 0.077410 -0.123773
N11   N     N_R   0.425270 0.368470 0.922590 -0.123746
N12   N     N_R   0.131530 0.925270 0.577410 -0.123741
N13   N     N_R   0.574730 0.631530 0.077410 -0.158388
N14   N     N_R   0.631530 0.425270 0.922590 -0.158392
N15   N     N_R   0.368470 0.574730 0.077410 -0.123772
N16   N     N_R   0.574730 0.631530 0.922590 -0.123753
N17   N     N_R   0.425270 0.368470 0.077410 -0.158377
N18   N     N_R   0.368470 0.425270 0.077410 -0.158404
N19   N     N_R   0.631530 0.574730 0.922590 -0.123760
N20   N     N_R   0.425270 0.631530 0.077410 -0.123741
N21   N     N_R   0.574730 0.368470 0.922590 -0.158373
N22   N     N_R   0.631530 0.574730 0.077410 -0.158384
N23   N     N_R   0.925270 0.868470 0.422590 -0.123768
N24   N     N_R   0.368470 0.425270 0.922590 -0.123775
N25   N     N_R   0.574730 0.368470 0.077410 -0.123724
N26   N     N_R   0.425270 0.631530 0.922590 -0.158398
N27   N     N_R   0.074730 0.131530 0.577410 -0.158380
N28   N     N_R   0.131530 0.925270 0.422590 -0.158399
N29   N     N_R   0.868470 0.074730 0.577410 -0.123772
N30   N     N_R   0.074730 0.131530 0.422590 -0.123761
N31   N     N_R   0.925270 0.868470 0.577410 -0.158375
N32   N     N_R   0.868470 0.925270 0.577410 -0.158397
Ni1   Ni    Ni4+2 0.869670 0.000000 0.500000 0.327423
Ni2   Ni    Ni4+2 0.130330 0.000000 0.500000 0.327435
Ni3   Ni    Ni4+2 1.000000 0.869670 0.500000 0.327433
Ni4   Ni    Ni4+2 1.000000 0.130330 0.500000 0.327431
Ni5   Ni    Ni4+2 0.369670 0.500000 0.000000 0.327425
Ni6   Ni    Ni4+2 0.630330 0.500000 0.000000 0.327426
Ni7   Ni    Ni4+2 0.500000 0.369670 0.000000 0.327448
Ni8   Ni    Ni4+2 0.500000 0.630330 0.000000 0.327440

loop_
_geom_bond_atom_site_label_1
_geom_bond_atom_site_label_2
_ccdc_geom_bond_type
C27   C48   S    
C79   Cl43  S    
C37   C74   A    
C6    N6    A    
C28   C47   S    
C11   N11   A    
C31   C85   A    
N27   Ni4   S    
C24   N24   A    
C88   Cl53  S    
N12   Ni2   S    
N22   Ni6   S    
N6    Ni1   S    
C79   C85   A    
C31   C52   S    
C30   C90   A    
N5    Ni2   S    
C18   Cl18  S    
C22   C57   A    
C37   C62   A    
C67   N30   A    
C17   Cl17  S    
C20   N20   A    
C76   Cl41  S    
C24   C55   A    
C21   N21   A    
C39   C64   A    
C42   C75   A    
N5    N27   A    
C93   Cl58  S    
C70   C94   A    
N9    N26   A    
C29   C83   A    
C69   C93   A    
C23   Cl23  S    
C83   Cl48  S    
C35   C86   A    
C28   C80   A    
C13   C57   A    
C9    Cl9   S    
C42   C70   A    
C66   Cl31  S    
C14   Cl14  S    
C95   Cl60  S    
C16   C60   A    
N15   Ni5   S    
C29   C88   A    
N11   Ni7   S    
C8    N8    A    
C17   C61   A    
C71   Cl36  S    
C38   C71   A    
C9    N9    A    
C43   C53   S    
N16   N19   A    
C94   Cl59  S    
C63   C92   A    
C13   Cl13  S    
C39   C72   A    
C4    N4    A    
C27   C91   A    
C92   Cl57  S    
C19   Cl19  S    
C56   Cl56  S    
C36   C63   A    
C68   Cl32  S    
C90   Cl54  S    
C71   C82   A    
C16   N16   A    
C96   Cl61  S    
C1    N1    A    
C43   C69   A    
C7    Cl7   S    
C86   Cl51  S    
N13   Ni8   S    
C45   Cl45  S    
C33   C46   S    
N26   Ni8   S    
C52   C89   A    
N7    Ni3   S    
N16   Ni8   S    
C52   C78   A    
N14   N21   A    
C62   Cl27  S    
C3    C50   A    
C73   C80   A    
C63   Cl28  S    
C29   C50   S    
C65   C90   A    
C14   C58   A    
C5    C48   A    
C5    Cl5   S    
C24   Cl24  S    
C23   C47   A    
C87   Cl52  S    
N6    N23   A    
C40   C68   A    
N31   N32   A    
C72   C83   A    
C7    C46   A    
C15   Cl15  S    
N11   N24   A    
C27   C81   A    
C77   Cl42  S    
C41   C60   S    
C12   N12   A    
C36   C57   S    
C6    C47   A    
C1    Cl1   S    
C12   Cl12  S    
C75   Cl40  S    
C77   C84   A    
C84   Cl49  S    
C39   C58   S    
C74   Cl39  S    
C50   C56   A    
C40   C61   S    
C37   C55   S    
C30   C82   A    
C13   N13   A    
C32   C51   S    
C23   N23   A    
C45   N28   A    
N20   Ni8   S    
C3    Cl3   S    
C8    Cl8   S    
C75   C86   A    
N23   Ni3   S    
C38   C65   A    
C45   C49   A    
C1    C44   A    
C62   C91   A    
N2    Ni2   S    
N1    Ni1   S    
N3    N29   A    
C51   C67   A    
C21   Cl21  S    
C85   Cl50  S    
C20   C59   A    
C35   C44   S    
N25   Ni7   S    
C76   C87   A    
C18   N18   A    
N7    N12   A    
C25   N25   A    
C25   C54   A    
C12   C46   A    
C81   Cl46  S    
C32   C96   A    
N18   Ni5   S    
N13   N22   A    
C64   Cl29  S    
N14   Ni6   S    
C5    N5    A    
C4    Cl4   S    
C11   Cl11  S    
C10   Cl10  S    
C34   C48   A    
C74   C81   A    
N21   Ni7   S    
C26   C53   A    
C19   N19   A    
N2    N30   A    
C11   C55   A    
C16   Cl16  S    
C89   Cl64  S    
N9    Ni5   S    
C35   C94   A    
C17   N17   A    
C43   C76   A    
C22   Cl22  S    
C7    N7    A    
C56   N29   A    
C15   C59   A    
C30   C49   S    
C78   N31   A    
C8    C44   A    
C32   C84   A    
C20   Cl20  S    
C82   Cl47  S    
N4    N28   A    
C33   C93   A    
C41   C79   A    
N4    Ni3   S    
C18   C61   A    
C41   C66   A    
N19   Ni6   S    
C3    N3    A    
C19   C60   A    
C10   N10   A    
C68   C96   A    
C15   N15   A    
C4    C49   A    
N32   Ni1   S    
C33   C87   A    
C21   C58   A    
C14   N14   A    
C2    Cl2   S    
C80   Cl44  S    
C65   Cl30  S    
N10   Ni6   S    
C91   Cl55  S    
N30   Ni4   S    
C26   N26   A    
C72   Cl37  S    
N3    Ni4   S    
N24   Ni5   S    
C69   Cl33  S    
C31   C95   A    
N10   N25   A    
C70   Cl35  S    
C89   N32   A    
C67   Cl62  S    
C6    Cl6   S    
C34   N27   A    
C10   C54   A    
N31   Ni3   S    
N1    N8    A    
C2    C51   A    
N17   Ni7   S    
N15   N20   A    
N28   Ni2   S    
C38   C59   S    
C28   C92   A    
N29   Ni1   S    
C78   Cl63  S    
C9    C53   A    
C73   Cl38  S    
C34   Cl34  S    
C22   N22   A    
N17   N18   A    
N8    Ni4   S    
C40   C77   A    
C66   C95   A    
C26   Cl26  S    
C25   Cl25  S    
C36   C73   A    
C64   C88   A    
C42   C54   S    
C2    N2    A    
