data_mof_unit_51393.cif
_audit_creation_date              2013-03-05T16:30:50-0500
_audit_creation_method            fapswitch 2.2
_symmetry_space_group_name_H-M    P1
_symmetry_Int_Tables_number       1
_space_group_crystal_system       triclinic
_cell_length_a                    11.060531
_cell_length_b                    10.826389
_cell_length_c                    9.5617
_cell_angle_alpha                 90.905006
_cell_angle_beta                  102.608517
_cell_angle_gamma                 90.175831
_cell_volume                      1117.19554692

loop_
_atom_site_label
_atom_site_type_symbol
_atom_site_description
_atom_site_fract_x
_atom_site_fract_y
_atom_site_fract_z
_atom_type_partial_charge
O1    O     O_R   0.500000 0.319640 0.618810 -0.587088
O2    O     O_R   0.500010 0.319680 0.381230 -0.585322
C1    C     C_R   0.499361 0.262675 0.498913 0.818673
O3    O     O_R   0.320680 0.500000 0.575130 -0.592843
O4    O     O_R   0.320690 0.500040 0.337550 -0.554374
C2    C     C_R   0.263038 0.497751 0.442009 0.899027
Cu1   Cu    Cu3+1 0.499990 0.499980 0.640670 0.968545
Cu2   Cu    Cu3+1 0.500010 0.500020 0.359330 1.011285
O5    O     O_R   0.499990 0.680320 0.618770 -0.582033
O6    O     O_R   0.500000 0.680360 0.381190 -0.562350
O7    O     O_R   0.679310 0.499960 0.662450 -0.580954
O8    O     O_R   0.679320 0.500000 0.424870 -0.579391
C3    C     C_R   0.496755 0.737514 0.500012 0.862442
C4    C     C_R   0.737022 0.495555 0.557470 0.855280
H1    H     H_    0.117836 0.481708 0.627221 0.181610
C5    C     C_2   0.128874 0.485636 0.409476 -0.277035
C6    C     C_2   0.068388 0.473953 0.515821 -0.194461
H2    H     H_    0.922586 0.526421 0.690780 0.154481
C7    C     C_2   0.872270 0.491407 0.587096 -0.334338
C8    C     C_2   0.934325 0.454910 0.486864 0.026971
H3    H     H_    0.080004 0.482436 0.297788 0.169027
C9    C     C_R   0.546351 0.066032 0.620000 0.071964
C10   C     C_R   0.493315 0.129765 0.497047 -0.140355
C11   C     C_R   0.425197 0.064210 0.378041 -0.245737
H4    H     H_    0.376533 0.113566 0.285332 0.206430
C12   C     C_R   0.418517 0.934640 0.378822 0.318780
C13   C     C_R   0.485891 0.870847 0.499681 -0.204558
C14   C     C_R   0.543176 0.939126 0.621715 0.024728
C15   C     C_3   0.670413 0.933320 0.717647 -0.269656
C16   C     C_3   0.673377 0.074861 0.714598 -0.256014
H5    H     H_    0.669384 0.900291 0.826137 0.156551
H6    H     H_    0.672371 0.119365 0.819937 0.163766
C17   C     C_R   0.592876 0.557614 0.098302 0.219834
N1    N     N_R   0.500780 0.500930 0.148120 -0.213625
C18   C     C_R   0.416678 0.430769 0.050803 0.051388
C19   C     C_R   0.416741 0.431561 0.902273 -0.088361
H7    H     H_    0.348240 0.378231 0.826878 0.145819
N2    N     N_R   0.500790 0.500890 0.852210 -0.191061
C20   C     C_R   0.592820 0.557331 0.951007 0.256183
C21   C     C_3   0.627005 0.690497 0.956030 -0.541493
C22   C     C_3   0.627302 0.691046 0.115180 -0.276321
H8    H     H_    0.719412 0.704349 0.930258 0.196548
H9    H     H_    0.550941 0.746996 0.893494 0.226094
H10   H     H_    0.554818 0.750676 0.144522 0.212700
C23   C     C_1   0.873863 0.394209 0.352705 0.345567
N3    N     N_1   0.826085 0.345813 0.246047 -0.284777
C24   C     C_1   0.765946 0.130231 0.643415 0.307015
N4    N     N_1   0.838586 0.173354 0.587747 -0.275157
C25   C     C_1   0.324779 0.356097 0.095629 0.307730
N5    N     N_1   0.249975 0.295859 0.129963 -0.286808
C26   C     C_1   0.751227 0.709943 0.207286 0.317566
N6    N     N_1   0.848842 0.724775 0.279605 -0.228957
N7    N     N_R   0.342962 0.870513 0.257866 0.127490
O9    O     O_R   0.270543 0.780547 0.277643 -0.346759
O10   O     O_R   0.331665 0.913880 0.129528 -0.361354
C27   C     C_1   0.761240 0.867732 0.651308 0.291880
N8    N     N_1   0.832459 0.816199 0.599663 -0.254188

loop_
_geom_bond_atom_site_label_1
_geom_bond_atom_site_label_2
_geom_bond_distance
_ccdc_geom_bond_type
C18   C25   1.437551 S    
O4    Cu2   1.948543 S    
Cu1   O7    1.948545 S    
C10   C11   1.401100 A    
H1    C6    1.087809 S    
C5    H3    1.086531 S    
C15   C27   1.477875 S    
C15   C16   1.533499 S    
C1    C10   1.439933 S    
C18   C19   1.420505 A    
Cu2   O8    1.945113 S    
C17   C22   1.490061 S    
C21   H9    1.111122 S    
C25   N5    1.157444 T    
C19   N2    1.363114 A    
C17   N1    1.363217 A    
Cu1   Cu2   2.690145 S    
C15   H5    1.104959 S    
C9    C14   1.374721 A    
C23   N3    1.157576 T    
C11   H4    1.081427 S    
C16   H6    1.111922 S    
C14   C15   1.504877 S    
C12   C13   1.421324 A    
C17   C20   1.408212 A    
O3    Cu1   1.945112 S    
C21   H8    1.112672 S    
C21   C22   1.520949 S    
C22   H10   1.110805 S    
Cu1   N2    2.020636 S    
C11   C12   1.404720 A    
O2    C1    1.293271 A    
N7    O10   1.301354 A    
O4    C2    1.297526 A    
N1    C18   1.379702 A    
O7    C4    1.302198 A    
O2    Cu2   1.966914 S    
C2    C5    1.453266 S    
C26   N6    1.157203 T    
C12   N7    1.437733 S    
C16   C24   1.477919 S    
C13   C14   1.398768 A    
C6    C8    1.461145 S    
N2    C20   1.363833 A    
C27   N8    1.157346 T    
O3    C2    1.293015 A    
H2    C7    1.087305 S    
C8    C23   1.456292 S    
C20   C21   1.486714 S    
Cu1   O5    1.966915 S    
O5    C3    1.295656 A    
C9    C10   1.389009 A    
C19   H7    1.082970 S    
Cu2   N1    2.021581 S    
C9    C16   1.497632 S    
O1    C1    1.291812 A    
O1    Cu1   1.960305 S    
C4    C7    1.461455 S    
C22   C26   1.470306 S    
Cu2   O6    1.960306 S    
C3    C13   1.448869 S    
C7    C8    1.350044 D    
N7    O9    1.301221 A    
O8    C4    1.290742 A    
C5    C6    1.340927 D    
C24   N4    1.157173 T    
O6    C3    1.292563 A    
