data_mof_unit_34930.cif
_audit_creation_date              2012-12-11T14:49:22-0500
_audit_creation_method            fapswitch 2.2
_symmetry_space_group_name_H-M    P1
_symmetry_Int_Tables_number       1
_space_group_crystal_system       triclinic
_cell_length_a                    16.985166
_cell_length_b                    16.71998
_cell_length_c                    19.699957
_cell_angle_alpha                 116.493192
_cell_angle_beta                  63.082339
_cell_angle_gamma                 100.153833
_cell_volume                      4462.32773442

loop_
_atom_site_label
_atom_site_type_symbol
_atom_type_description
_atom_site_fract_x
_atom_site_fract_y
_atom_site_fract_z
_atom_type_partial_charge
C1    C     C_R   0.023842 0.760636 0.025594 -0.007856
C2    C     C_R   0.237601 0.575685 0.833898 0.010920
C3    C     C_R   0.191908 0.439321 0.041925 -0.187512
C4    C     C_R   0.749567 0.475373 0.169719 -0.140615
C5    C     C_R   0.043574 0.327294 0.754086 -0.134811
C6    C     C_R   0.273719 0.455998 0.989217 -0.036978
C7    C     C_R   0.026744 0.242526 0.750212 -0.094543
C8    C     C_R   0.234793 0.552588 0.759134 0.047174
C9    C     C_R   0.982422 0.235088 0.050786 0.081499
C10   C     C_R   0.109544 0.122578 0.616427 -0.142707
C11   C     C_R   0.030787 0.170259 0.675383 0.143955
C12   C     C_R   0.744128 0.531992 0.248471 0.095399
C13   C     C_R   0.955239 0.154769 0.661941 -0.138130
C14   C     C_R   0.956122 0.087035 0.589333 0.123541
C15   C     C_R   0.034532 0.034896 0.528930 0.084902
C16   C     C_R   0.816126 0.508237 0.912012 -0.048425
C17   C     C_R   0.112625 0.052620 0.541979 -0.017933
C18   C     C_R   0.879199 0.070837 0.577200 -0.177858
C19   C     C_R   0.878070 0.000996 0.505747 -0.057035
C20   C     C_R   0.954294 0.946976 0.445490 -0.017951
C21   C     C_R   0.033929 0.965142 0.456369 -0.041124
C22   C     C_R   0.112046 0.912693 0.395376 0.000177
C23   C     C_R   0.744367 0.454935 0.932917 0.097666
C24   C     C_R   0.190763 0.931276 0.406595 0.421108
C25   C     C_R   0.191161 0.001217 0.480442 -0.241573
C26   C     C_R   0.952593 0.874312 0.375077 0.461834
C27   C     C_R   0.029725 0.822558 0.317043 -0.104537
C28   C     C_R   0.994749 0.666759 0.244777 -0.065981
C29   C     C_R   0.108643 0.841418 0.325050 -0.196339
C30   C     C_R   0.357967 0.472821 0.627432 -0.139397
C31   C     C_R   0.309152 0.553302 0.685891 -0.091743
C32   C     C_R   0.329143 0.632042 0.673924 0.485840
C33   C     C_R   0.400371 0.630987 0.600604 -0.082184
C34   C     C_R   0.028489 0.747875 0.246029 0.132671
C35   C     C_R   0.450749 0.550895 0.541115 0.004102
C36   C     C_R   0.430118 0.471753 0.554967 0.057904
C37   C     C_R   0.423796 0.708730 0.586653 -0.164050
C38   C     C_R   0.494966 0.708543 0.514272 0.456622
C39   C     C_R   0.543460 0.627655 0.451418 -0.087481
C40   C     C_R   0.753205 0.427489 0.985587 -0.130780
C41   C     C_R   0.522749 0.549790 0.467930 0.049960
C42   C     C_R   0.575012 0.470336 0.411599 0.168317
C43   C     C_R   0.555667 0.393589 0.426343 -0.193836
C44   C     C_R   0.483641 0.393966 0.497130 -0.105495
C45   C     C_R   0.261748 0.523032 0.970773 0.452098
C46   C     C_R   0.613761 0.620915 0.374059 -0.139614
C47   C     C_R   0.666720 0.542221 0.323098 -0.019336
C48   C     C_R   0.647796 0.468439 0.341447 -0.225657
C49   C     C_R   0.672848 0.425753 0.905090 -0.013539
C50   C     C_R   0.356748 0.415880 0.965409 0.138308
C51   C     C_R   0.444312 0.365872 0.007591 -0.164978
C52   C     C_R   0.062016 0.745651 0.167768 -0.022461
C53   C     C_R   0.362566 0.383404 0.017505 -0.143971
C54   C     C_R   0.432284 0.417215 0.895314 -0.129836
C55   C     C_R   0.515028 0.405825 0.888586 0.075428
C56   C     C_R   0.968350 0.248090 0.828844 0.463125
C57   C     C_R   0.520038 0.384347 0.947923 0.178783
C58   C     C_R   0.598369 0.392977 0.954616 -0.277842
C59   C     C_R   0.671559 0.434887 0.837496 0.467752
C60   C     C_R   0.591984 0.424914 0.829887 -0.230652
C61   C     C_R   0.771325 0.164282 0.160031 0.056212
C62   C     C_R   0.926207 0.862160 0.024736 -0.049029
C63   C     C_R   0.874731 0.950675 0.982373 -0.122869
C64   C     C_R   0.827747 0.543632 0.246133 -0.037087
C65   C     C_R   0.916432 0.874181 0.963049 -0.179795
C66   C     C_R   0.894654 0.929839 0.107939 0.460705
C67   C     C_R   0.157657 0.510096 0.760454 -0.119087
C68   C     C_R   0.857067 0.011737 0.127307 -0.139955
C69   C     C_R   0.844232 0.018834 0.063440 0.074946
C70   C     C_R   0.800106 0.093915 0.081022 -0.204322
C71   C     C_R   0.786829 0.161134 0.222218 -0.271687
C72   C     C_R   0.830097 0.086888 0.207114 0.544742
C73   C     C_R   0.944215 0.691552 0.951293 -0.083888
C74   C     C_R   0.964028 0.775178 0.001298 0.102140
C75   C     C_2   0.114095 0.504583 0.708470 1.016135
C76   C     C_2   0.273258 0.018534 0.493272 1.122747
C77   C     C_2   0.332378 0.390079 0.642400 1.000715
C78   C     C_R   0.023871 0.314107 0.078328 -0.127587
C79   C     C_2   0.626788 0.688039 0.340164 1.132990
C80   C     C_R   0.944918 0.247296 0.006381 -0.077161
Cl1   Cl    Cl    0.896639 0.163292 0.848190 -0.704608
Cl2   Cl    Cl    0.855010 0.846535 0.358315 -0.503271
Cl3   Cl    Cl    0.288337 0.864370 0.330472 -0.556769
Cl4   Cl    Cl    0.262440 0.730186 0.750761 -0.632263
Cl5   Cl    Cl    0.525398 0.815119 0.514084 -0.547413
Cl6   Cl    Cl    0.765784 0.456527 0.760173 -0.648954
Cl7   Cl    Cl    0.854637 0.099634 0.289258 -0.517115
Cl8   Cl    Cl    0.888733 0.902369 0.187130 -0.511147
Cl9   Cl    Cl    0.341849 0.599677 0.945239 -0.667177
H1    H     H_    0.056083 0.811221 0.061250 0.129396
H2    H     H_    0.695703 0.448514 0.151828 0.117306
H3    H     H_    0.816841 0.989654 0.498948 0.206341
H4    H     H_    0.166103 0.798433 0.276439 0.206015
H5    H     H_    0.388449 0.771622 0.633097 0.228282
H6    H     H_    0.836047 0.535042 0.866247 0.180478
H7    H     H_    0.689959 0.408314 0.299453 0.133018
H8    H     H_    0.596523 0.332991 0.382976 0.142865
H9    H     H_    0.471669 0.333148 0.506484 0.162721
H10   H     H_    0.596395 0.383772 0.006230 0.139605
H11   H     H_    0.448034 0.347202 0.052206 0.138302
H12   H     H_    0.049341 0.332058 0.124377 0.112162
H13   H     H_    0.589249 0.437356 0.781484 0.187859
H14   H     H_    0.305171 0.378665 0.070369 0.130895
H15   H     H_    0.427225 0.435876 0.851337 0.177656
H16   H     H_    0.787825 0.098366 0.033426 0.156628
H17   H     H_    0.973587 0.644135 0.293787 0.103075
H18   H     H_    0.765907 0.217971 0.282598 0.168613
H19   H     H_    0.866299 0.956591 0.933423 0.163424
H20   H     H_    0.939718 0.822878 0.899454 0.166285
H21   H     H_    0.720257 0.373458 0.002742 0.116237
H22   H     H_    0.101517 0.795221 0.146710 0.116521
H23   H     H_    0.895170 0.205091 0.989983 0.166424
H24   H     H_    0.844409 0.577966 0.298804 0.115345
H25   H     H_    0.901077 0.678032 0.920796 0.119965
H26   H     H_    0.999840 0.496287 0.697954 0.355749
H27   H     H_    0.333285 0.025629 0.563660 0.349289
H28   H     H_    0.289845 0.264068 0.604234 0.323314
H29   H     H_    0.573143 0.758042 0.309543 0.363392
H30   H     H_    0.282948 0.621514 0.855259 0.185641
H31   H     H_    0.177196 0.393480 0.070511 0.126578
H32   H     H_    0.080679 0.344938 0.701888 0.150999
H33   H     H_    0.167097 0.141183 0.629652 0.141962
H34   H     H_    0.895714 0.195991 0.708619 0.157411
H35   H     H_    0.819475 0.111511 0.623607 0.157405
N1    N     N_R   0.036080 0.671900 0.995420 -0.063888
N2    N     N_R   0.867430 0.509300 0.948100 -0.048546
N3    N     N_R   0.003360 0.617250 0.167070 -0.051369
N4    N     N_R   0.825450 0.461270 0.995400 -0.047334
N5    N     N_R   0.045340 0.665280 0.119770 -0.055557
N6    N     N_R   0.883740 0.497640 0.167070 -0.059363
N7    N     N_R   0.987050 0.628910 0.948110 -0.046081
N8    N     N_R   0.174550 0.538730 0.004600 -0.087642
N9    N     N_R   0.954660 0.334720 0.880230 -0.090066
N10   N     N_R   0.116260 0.502360 0.832930 -0.064621
N11   N     N_R   0.012950 0.371090 0.051890 -0.050545
N12   N     N_R   0.963920 0.328100 0.004580 -0.055382
N13   N     N_R   0.165290 0.545350 0.880240 -0.068084
N14   N     N_R   0.132570 0.490700 0.051900 -0.066451
N15   N     N_R   0.996640 0.382750 0.832930 -0.048245
N16   N     N_R   0.834710 0.454650 0.119760 -0.048935
Ni1   Ni    Ni4+2 0.104370 0.604370 0.000010 0.270970
Ni2   Ni    Ni4+2 0.895630 0.395630 0.999990 0.245600
Ni3   Ni    Ni4+2 0.991920 0.505780 0.891500 0.278470
Ni4   Ni    Ni4+2 0.008080 0.494220 0.108500 0.221082
O1    O     O_2   0.157867 0.506412 0.639982 -0.598287
O2    O     O_R   0.022231 0.499309 0.738771 -0.810421
O3    O     O_2   0.340499 0.037452 0.443754 -0.563690
O4    O     O_R   0.273602 0.012412 0.561633 -0.773439
O5    O     O_2   0.333390 0.387618 0.703116 -0.637859
O6    O     O_R   0.306370 0.315836 0.587237 -0.782988
O7    O     O_2   0.699268 0.719908 0.315343 -0.544740
O8    O     O_R   0.556269 0.712503 0.334313 -0.744223

loop_
_geom_bond_atom_site_label_1
_geom_bond_atom_site_label_2
_ccdc_geom_bond_type
C61   C70   A    
C66   C68   A    
C63   C65   A    
C1    H1    S    
C6    C45   A    
C71   H18   S    
C27   C29   A    
C41   C42   A    
C14   C18   A    
C35   C36   A    
C3    C6    A    
N6    N16   A    
N10   N13   A    
C73   N7    A    
C56   N9    A    
N7    Ni3   S    
C56   Cl1   S    
C39   C41   A    
C75   O1    D    
C7    C11   S    
H26   O2    S    
C26   C27   A    
C50   C54   A    
C1    C74   A    
C54   H15   S    
C22   C29   A    
C24   Cl3   S    
N16   Ni2   S    
C66   Cl8   S    
C30   C31   A    
C13   H34   S    
C23   C49   S    
N5    Ni1   S    
C10   C17   A    
N8    N14   A    
C23   C40   A    
C40   N4    A    
C5    H32   S    
N2    Ni3   S    
N8    Ni1   S    
C18   C19   A    
C73   C74   A    
N12   Ni2   S    
C19   H3    S    
N10   Ni3   S    
C46   C47   A    
C30   C77   S    
N15   Ni3   S    
C46   C79   S    
C63   C69   A    
C76   O3    D    
C28   H17   S    
C68   C69   A    
H28   O6    S    
C51   C57   A    
C4    C12   A    
N6    Ni4   S    
C78   N11   A    
C28   N3    A    
N3    Ni4   S    
C4    H2    S    
C55   C60   A    
C61   C71   A    
C28   C34   A    
C59   C60   A    
C75   O2    S    
C21   C22   A    
C78   H12   S    
C8    C31   S    
C16   N2    A    
C44   H9    S    
C7    C56   A    
C12   C47   S    
C60   H13   S    
C5    N15   A    
C27   C34   S    
C32   Cl4   S    
C50   C53   A    
C62   C66   A    
C38   Cl5   S    
N11   N12   A    
C67   N10   A    
C24   C25   A    
C3    H31   S    
N1    Ni1   S    
C5    C7    A    
C40   H21   S    
C52   H22   S    
C33   C37   A    
C73   H25   S    
C51   C53   A    
C9    C80   A    
C43   C44   A    
N3    N5    A    
C37   C38   A    
C4    N16   A    
N1    N7    A    
C47   C48   A    
C68   C72   A    
C80   H23   S    
N9    Ni2   S    
C3    N14   A    
C42   C48   A    
C6    C50   S    
H29   O8    S    
C65   H20   S    
C8    C67   A    
C39   C46   A    
N11   Ni4   S    
C64   N6    A    
N9    N15   A    
C16   C23   A    
C55   C57   A    
C22   C24   A    
C36   C44   A    
C67   C75   S    
C42   C43   A    
C52   N5    A    
C77   O5    D    
C72   Cl7   S    
C45   Cl9   S    
H27   O4    S    
C79   O7    D    
C51   H11   S    
C15   C17   A    
N13   Ni1   S    
C54   C55   A    
C16   H6    S    
N2    N4    A    
C64   H24   S    
C48   H7    S    
C62   C65   A    
C2    N13   A    
C31   C32   A    
C2    C8    A    
C58   H10   S    
C43   H8    S    
C1    N1    A    
C10   H33   S    
C70   H16   S    
C80   N12   A    
C77   O6    S    
C2    H30   S    
C34   C52   A    
C49   C59   A    
C30   C36   A    
C25   C76   S    
C17   C25   A    
C32   C33   A    
C19   C20   A    
C59   Cl6   S    
C71   C72   A    
N14   Ni4   S    
C29   H4    S    
C11   C13   A    
C57   C58   A    
C38   C39   A    
C20   C26   A    
C53   H14   S    
C12   C64   A    
C33   C35   A    
C37   H5    S    
C9    C78   A    
C69   C70   A    
C35   C41   A    
C10   C11   A    
C49   C58   A    
C15   C21   A    
C20   C21   A    
C76   O4    S    
C45   N8    A    
C26   Cl2   S    
C14   C15   A    
C62   C74   S    
C63   H19   S    
C13   C14   A    
N4    Ni2   S    
C18   H35   S    
C79   O8    S    
