data_mof_unit_30648.cif
_audit_creation_date              2012-12-10T18:43:46-0500
_audit_creation_method            fapswitch 2.2
_symmetry_space_group_name_H-M    P1
_symmetry_Int_Tables_number       1
_space_group_crystal_system       triclinic
_cell_length_a                    10.72354
_cell_length_b                    10.607393
_cell_length_c                    9.888966
_cell_angle_alpha                 89.427923
_cell_angle_beta                  103.856827
_cell_angle_gamma                 90.536296
_cell_volume                      1092.03897909

loop_
_atom_site_label
_atom_site_type_symbol
_atom_type_description
_atom_site_fract_x
_atom_site_fract_y
_atom_site_fract_z
_atom_type_partial_charge
C1    C     C_R   0.499945 0.260631 0.500493 0.981080
C2    C     C_2   0.879468 0.520917 0.592385 0.232873
C3    C     C_2   0.069239 0.564344 0.508404 -0.110331
C4    C     C_2   0.932625 0.564340 0.491797 -0.210398
C5    C     C_R   0.381820 0.064516 0.451457 0.034224
C6    C     C_R   0.618325 0.935629 0.548215 0.050788
C7    C     C_R   0.383385 0.933614 0.450242 0.370469
C8    C     C_R   0.616750 0.066546 0.549494 0.371720
C9    C     C_R   0.500889 0.872043 0.498646 -0.189586
C10   C     C_R   0.499208 0.128055 0.501281 -0.205702
C11   C     C_3   0.258148 0.138086 0.401952 -0.658401
C12   C     C_R   0.500106 0.739410 0.499507 0.960575
C13   C     C_3   0.742097 0.862140 0.596985 -0.700812
C14   C     C_R   0.258541 0.503530 0.441750 0.857488
C15   C     C_R   0.741575 0.504067 0.558344 0.879676
C16   C     C_R   0.574673 0.583711 0.088976 0.465743
C17   C     C_R   0.423785 0.417558 0.910392 0.462167
C18   C     C_R   0.574998 0.582802 0.945874 -0.139322
C19   C     C_R   0.424563 0.417486 0.053906 -0.139927
C20   C     C_2   0.121058 0.519969 0.408287 0.262112
Cl1   Cl    Cl    0.670575 0.696644 0.194426 -0.555970
Cl2   Cl    Cl    0.321564 0.310439 0.802265 -0.505998
Cl3   Cl    Cl    0.970178 0.479588 0.760782 -0.441314
Cl4   Cl    Cl    0.029149 0.476604 0.241555 -0.475689
Cl5   Cl    Cl    0.240042 0.844673 0.390028 -0.575249
Cl6   Cl    Cl    0.760124 0.155708 0.609108 -0.522050
H1    H     H_    0.874298 0.588794 0.389632 0.245547
H2    H     H_    0.828680 0.922106 0.630908 0.296665
H3    H     H_    0.128577 0.590576 0.609687 0.210282
H4    H     H_    0.634738 0.649089 0.905627 0.194133
H5    H     H_    0.364123 0.351771 0.093902 0.196779
H6    H     H_    0.264791 0.199013 0.311951 0.229630
H7    H     H_    0.171476 0.078159 0.368485 0.295811
H8    H     H_    0.242809 0.198561 0.487473 0.242294
H9    H     H_    0.735662 0.800459 0.686474 0.224875
H10   H     H_    0.757382 0.802504 0.510811 0.231411
N1    N     N_R   0.499970 0.499970 0.857200 -0.146133
N2    N     N_R   0.500030 0.500030 0.142800 -0.141805
O1    O     O_R   0.499990 0.316750 0.614620 -0.548817
O2    O     O_R   0.500010 0.683250 0.385380 -0.551033
O3    O     O_R   0.499990 0.316780 0.385290 -0.618465
O4    O     O_R   0.500010 0.683220 0.614710 -0.629768
O5    O     O_R   0.317810 0.500000 0.571850 -0.604727
O6    O     O_R   0.682190 0.500000 0.428150 -0.599376
O7    O     O_R   0.317810 0.500030 0.342520 -0.570720
O8    O     O_R   0.682190 0.499970 0.657480 -0.571586
Zn1   Zn    Zn3+2 0.500000 0.499980 0.653120 1.055883
Zn2   Zn    Zn3+2 0.500000 0.500020 0.346880 1.060951

loop_
_geom_bond_atom_site_label_1
_geom_bond_atom_site_label_2
_ccdc_geom_bond_type
C11   H6    S    
C2    C4    D    
C13   H2    S    
C13   H9    S    
C16   Cl1   S    
C18   H4    S    
C19   N2    A    
N1    Zn1   S    
C8    Cl6   S    
N2    Zn2   S    
C17   Cl2   S    
C7    Cl5   S    
C19   H5    S    
C20   Cl4   S    
C6    C9    A    
C3    C20   D    
C16   C18   A    
C17   N1    A    
C6    C13   S    
C2    C15   S    
C6    C8    A    
C1    O3    A    
C17   C19   A    
O3    Zn2   S    
C15   O6    A    
C5    C11   S    
C14   O7    A    
C5    C7    A    
O4    Zn1   S    
C8    C10   A    
C9    C12   S    
C1    O1    A    
C5    C10   A    
C3    C4    S    
C14   C20   S    
C11   H7    S    
C4    H1    S    
C13   H10   S    
C7    C9    A    
O7    Zn2   S    
C2    Cl3   S    
C3    H3    S    
O2    Zn2   S    
O8    Zn1   S    
C12   O4    A    
C12   O2    A    
C15   O8    A    
O1    Zn1   S    
O5    Zn1   S    
C18   N1    A    
C11   H8    S    
C1    C10   S    
O6    Zn2   S    
C16   N2    A    
C14   O5    A    
