data_mof_unit_55925.cif
_audit_creation_date              2012-12-10T17:14:24-0500
_audit_creation_method            fapswitch 2.2
_symmetry_space_group_name_H-M    P1
_symmetry_Int_Tables_number       1
_space_group_crystal_system       triclinic
_cell_length_a                    15.179564
_cell_length_b                    14.394819
_cell_length_c                    10.188917
_cell_angle_alpha                 90.043311
_cell_angle_beta                  84.779178
_cell_angle_gamma                 90.128712
_cell_volume                      2217.10828298

loop_
_atom_site_label
_atom_site_type_symbol
_atom_type_description
_atom_site_fract_x
_atom_site_fract_y
_atom_site_fract_z
_atom_type_partial_charge
C1    C     C_R   0.383949 0.119092 0.553356 1.027180
C2    C     C_2   0.509478 0.983156 0.071126 -0.020933
C3    C     C_2   0.990613 0.482849 0.928929 -0.007300
C4    C     C_2   0.009342 0.482896 0.071062 -0.012651
C5    C     C_2   0.334905 0.790934 0.569000 -0.301943
C6    C     C_2   0.693161 0.179008 0.417764 -0.292950
C7    C     C_2   0.666974 0.792796 0.430375 -0.294111
C8    C     C_2   0.306938 0.178980 0.582627 -0.208568
C9    C     C_2   0.833525 0.292210 0.569302 -0.327719
C10   C     C_2   0.193170 0.679006 0.417587 -0.294733
C11   C     C_2   0.167190 0.293821 0.429324 -0.298644
C12   C     C_R   0.611060 0.875452 0.449085 0.851947
C13   C     C_2   0.807119 0.678768 0.582910 -0.284011
C14   C     C_2   0.341322 0.724179 0.473350 -0.138272
C15   C     C_2   0.770332 0.155259 0.467658 -0.108032
C16   C     C_2   0.659269 0.724696 0.524011 -0.041169
C17   C     C_2   0.229934 0.156587 0.530743 0.019625
C18   C     C_2   0.840922 0.224508 0.474991 -0.105229
C19   C     C_2   0.270602 0.655004 0.466503 -0.100420
C20   C     C_2   0.160004 0.225626 0.522968 -0.178078
C21   C     C_2   0.729807 0.655680 0.531920 -0.044275
C22   C     C_2   0.362413 0.027315 0.148261 0.644525
C23   C     C_R   0.615861 0.119364 0.446819 0.937554
C24   C     C_2   0.636362 0.031887 0.851766 0.601968
C25   C     C_2   0.863189 0.530001 0.148240 0.575897
C26   C     C_2   0.136864 0.530308 0.851714 0.546093
C27   C     C_2   0.788287 0.059789 0.514903 0.525234
C28   C     C_2   0.417388 0.717612 0.370417 0.546597
C29   C     C_2   0.208784 0.062720 0.481662 0.515248
C30   C     C_2   0.581133 0.715839 0.623072 0.636630
C31   C     C_2   0.288619 0.559474 0.513423 0.507776
C32   C     C_2   0.917941 0.216990 0.373795 0.514296
C33   C     C_2   0.711751 0.560391 0.483370 0.481001
C34   C     C_R   0.389900 0.874528 0.550473 0.959354
C35   C     C_2   0.082361 0.216948 0.623119 0.479837
C36   C     C_2   0.682228 0.268240 0.347343 0.530565
C37   C     C_2   0.268573 0.785179 0.685708 0.547585
C38   C     C_2   0.318208 0.267681 0.654430 0.475992
C39   C     C_2   0.736151 0.790183 0.317202 0.489933
C40   C     C_2   0.182014 0.768453 0.347803 0.513831
C41   C     C_2   0.765254 0.288415 0.683660 0.504079
C42   C     C_2   0.821383 0.766189 0.656422 0.526419
C43   C     C_2   0.234522 0.294785 0.313581 0.479536
C44   C     C_R   0.884064 0.619182 0.553319 0.823704
C45   C     C_R   0.111201 0.375787 0.448928 0.762411
C46   C     C_R   0.115877 0.619353 0.446797 0.932923
C47   C     C_R   0.889004 0.375337 0.550798 0.883028
C48   C     C_2   0.490799 0.982279 0.928953 -0.006133
H1    H     H_    0.575858 0.966824 0.095031 0.203812
H2    H     H_    0.477450 0.756551 0.379062 0.024186
H3    H     H_    0.163750 0.055595 0.405366 0.090698
H4    H     H_    0.521602 0.755102 0.613413 -0.015183
H5    H     H_    0.246358 0.501866 0.492051 0.026736
H6    H     H_    0.977697 0.256368 0.382678 0.040978
H7    H     H_    0.753162 0.502463 0.505624 0.067941
H8    H     H_    0.022393 0.255524 0.613506 0.060407
H9    H     H_    0.738325 0.313784 0.322526 0.073786
H10   H     H_    0.227829 0.723650 0.703512 0.085700
H11   H     H_    0.262450 0.313564 0.678583 0.082734
H12   H     H_    0.424885 0.963603 0.905098 0.195308
H13   H     H_    0.777463 0.729306 0.298709 0.102463
H14   H     H_    0.238061 0.814023 0.322790 0.085996
H15   H     H_    0.724510 0.226978 0.702385 0.106606
H16   H     H_    0.888189 0.786306 0.674461 0.092902
H17   H     H_    0.244595 0.357868 0.255766 0.086199
H18   H     H_    0.075490 0.465460 0.094874 0.174690
H19   H     H_    0.924415 0.465295 0.905109 0.198725
H20   H     H_    0.309216 0.009752 0.222408 0.046752
H21   H     H_    0.690406 0.015983 0.778284 0.087430
H22   H     H_    0.809385 0.513111 0.221725 0.062278
H23   H     H_    0.190582 0.513795 0.777969 0.065632
H24   H     H_    0.746383 0.002037 0.492838 0.071944
N1    N     N_2   0.549450 1.000000 0.831550 -0.178401
N2    N     N_2   0.450550 0.000000 0.168450 -0.191981
N3    N     N_2   0.049450 0.500000 0.831550 -0.178544
N4    N     N_2   0.950550 0.500000 0.168450 -0.178560
O1    O     O_R   0.398960 0.091100 0.433300 -0.600552
O2    O     O_R   0.569290 0.908910 0.353790 -0.598220
O3    O     O_R   0.569290 0.091090 0.353790 -0.537375
O4    O     O_R   0.430710 0.908910 0.646210 -0.592221
O5    O     O_R   0.930710 0.591090 0.646210 -0.558789
O6    O     O_R   0.069290 0.408910 0.353790 -0.614727
O7    O     O_R   0.069290 0.591090 0.353790 -0.536052
O8    O     O_R   0.930710 0.408910 0.646210 -0.572353
O9    O     O_2   0.346278 0.076118 0.055363 -0.528334
O10   O     O_2   0.650272 0.082745 0.943765 -0.554302
O11   O     O_2   0.848542 0.580312 0.056179 -0.550674
O12   O     O_R   0.601040 0.908900 0.566700 -0.632906
O13   O     O_2   0.151653 0.580499 0.944013 -0.561488
O14   O     O_2   0.851729 0.044670 0.577309 -0.534144
O15   O     O_2   0.413894 0.666572 0.275216 -0.505987
O16   O     O_2   0.236151 0.992930 0.531751 -0.577753
O17   O     O_2   0.582397 0.662659 0.716224 -0.486032
O18   O     O_2   0.352516 0.544136 0.574768 -0.510798
O19   O     O_2   0.915539 0.164736 0.279688 -0.512692
O20   O     O_2   0.648794 0.545588 0.419662 -0.518304
O21   O     O_2   0.084499 0.164704 0.717176 -0.498194
O22   O     O_2   0.609834 0.291716 0.315803 -0.482241
O23   O     O_R   0.601040 0.091100 0.566700 -0.659926
O24   O     O_2   0.259103 0.849418 0.764027 -0.497225
O25   O     O_2   0.390457 0.290352 0.687822 -0.488930
O26   O     O_2   0.747464 0.856429 0.242735 -0.518379
O27   O     O_2   0.109478 0.792083 0.317009 -0.522707
O28   O     O_2   0.754049 0.354311 0.758830 -0.517732
O29   O     O_2   0.759974 0.815007 0.700431 -0.542471
O30   O     O_2   0.277471 0.225966 0.279301 -0.531466
O31   O     O_R   0.398960 0.908900 0.433300 -0.649519
O32   O     O_R   0.898960 0.591100 0.433300 -0.627581
O33   O     O_R   0.101040 0.408900 0.566700 -0.636807
O34   O     O_R   0.101040 0.591100 0.566700 -0.649339
O35   O     O_R   0.898960 0.408900 0.433300 -0.659756
O36   O     O_R   0.430710 0.091090 0.646210 -0.553508
Zn1   Zn    Zn3+2 0.478810 0.000000 0.357840 1.011855
Zn2   Zn    Zn3+2 0.521190 0.000000 0.642160 1.005492
Zn3   Zn    Zn3+2 0.978810 0.500000 0.357840 0.965413
Zn4   Zn    Zn3+2 0.021190 0.500000 0.642160 0.969889

loop_
_geom_bond_atom_site_label_1
_geom_bond_atom_site_label_2
_ccdc_geom_bond_type
C33   H7    S    
C15   C18   S    
C23   O23   A    
C16   C21   S    
C5    C37   S    
C1    C8    S    
C1    O1    A    
C45   O6    A    
C19   C31   S    
N4    Zn3   S    
O23   Zn2   S    
O36   Zn2   S    
C26   O13   D    
C34   O31   A    
O32   Zn3   S    
O6    Zn3   S    
C38   O25   D    
C1    O36   A    
C45   O33   A    
C24   N1    S    
C21   C33   S    
C16   C30   S    
C25   O11   D    
C17   C20   S    
C40   H14   S    
C27   O14   D    
C10   C40   S    
C22   O9    D    
O31   Zn1   S    
O33   Zn4   S    
C34   O4    A    
C6    C15   D    
C20   C35   S    
C28   H2    S    
C12   O2    A    
C10   C46   S    
C11   C43   S    
C3    N3    D    
C37   H10   S    
C2    N2    D    
O8    Zn4   S    
C26   H23   S    
C8    C38   S    
O1    Zn1   S    
C14   C19   S    
C32   H6    S    
C13   C42   S    
C24   H21   S    
C48   H12   S    
C44   O32   A    
C7    C12   S    
C39   H13   S    
C11   C20   D    
C12   O12   A    
O7    Zn3   S    
C44   O5    A    
C2    C48   S    
N2    Zn1   S    
N1    Zn2   S    
C46   O7    A    
C43   O30   D    
C2    H1    S    
C15   C27   S    
C10   C19   D    
C43   H17   S    
C5    C34   S    
C26   N3    S    
C13   C21   D    
C47   O8    A    
C31   H5    S    
C22   H20   S    
C5    C14   D    
C7    C16   D    
O4    Zn2   S    
C36   H9    S    
C46   O34   A    
C11   C45   S    
O2    Zn1   S    
C18   C32   S    
C41   H15   S    
C3    C4    S    
C33   O20   D    
O34   Zn4   S    
C39   O26   D    
C29   H3    S    
C30   H4    S    
C35   H8    S    
C48   N1    D    
C3    H19   S    
C42   H16   S    
C36   O22   D    
C9    C47   S    
C25   H22   S    
C30   O17   D    
C31   O18   D    
C9    C41   S    
C8    C17   D    
C41   O28   D    
C25   N4    S    
C23   O3    A    
O3    Zn1   S    
C17   C29   S    
C40   O27   D    
C4    H18   S    
C47   O35   A    
C6    C23   S    
O5    Zn4   S    
C6    C36   S    
C28   O15   D    
C37   O24   D    
C13   C44   S    
O12   Zn2   S    
C42   O29   D    
C4    N4    D    
C38   H11   S    
C9    C18   D    
C32   O19   D    
C22   N2    S    
C7    C39   S    
O35   Zn3   S    
N3    Zn4   S    
C14   C28   S    
C35   O21   D    
C24   O10   D    
C29   O16   D    
C27   H24   S    
