data_mof_unit_44510.cif
_audit_creation_date              2013-03-05T16:48:41-0500
_audit_creation_method            fapswitch 2.2
_symmetry_space_group_name_H-M    P1
_symmetry_Int_Tables_number       1
_space_group_crystal_system       triclinic
_cell_length_a                    27.75434
_cell_length_b                    8.936709
_cell_length_c                    8.092455
_cell_angle_alpha                 89.999659
_cell_angle_beta                  89.999407
_cell_angle_gamma                 89.93773
_cell_volume                      2007.19033607

loop_
_atom_site_label
_atom_site_type_symbol
_atom_site_description
_atom_site_fract_x
_atom_site_fract_y
_atom_site_fract_z
_atom_type_partial_charge
O1    O     O_R   0.500000 0.285350 0.636850 -0.612584
O2    O     O_R   0.500000 0.714650 0.363150 -0.622954
O3    O     O_R   0.500000 0.714650 0.636850 -0.612578
O4    O     O_R   0.500000 0.285350 0.363150 -0.622958
C1    C     C_R   0.500012 0.217936 0.499997 0.920970
C2    C     C_R   0.499988 0.782064 0.499996 0.921000
O5    O     O_R   0.428760 0.500000 0.636860 -0.558268
O6    O     O_R   0.571240 0.500000 0.363140 -0.613616
O7    O     O_R   0.571240 0.500000 0.636860 -0.558295
O8    O     O_R   0.428760 0.500000 0.363140 -0.613591
C3    C     C_R   0.405726 0.503546 0.499887 0.937119
C4    C     C_R   0.594273 0.496449 0.499887 0.937157
Zn1   Zn    Zn3+2 0.500000 0.500000 0.682780 1.068226
Zn2   Zn    Zn3+2 0.500000 0.500000 0.317220 1.033716
C5    C     C_R   0.178034 0.375807 0.435609 0.558594
C6    C     C_R   0.821966 0.623991 0.435627 0.558579
C7    C     C_R   0.176172 0.638907 0.487476 0.554873
C8    C     C_R   0.823827 0.360894 0.487516 0.554881
O9    O     O_2   0.203900 0.249645 0.411593 -0.542717
O10   O     O_2   0.796102 0.750154 0.411602 -0.542722
O11   O     O_2   0.200119 0.766885 0.520476 -0.544298
O12   O     O_2   0.799879 0.232919 0.520530 -0.544290
N1    N     N_R   0.201008 0.508036 0.466753 -0.315793
N2    N     N_R   0.798991 0.491766 0.466791 -0.315795
C9    C     C_R   0.279176 0.578668 0.353117 0.081322
C10   C     C_R   0.720820 0.421145 0.353177 0.081331
C11   C     C_R   0.275116 0.444615 0.615309 -0.005100
C12   C     C_R   0.724886 0.555254 0.615331 -0.005079
C13   C     C_R   0.329200 0.586817 0.365884 0.307377
C14   C     C_R   0.670794 0.413059 0.365927 0.307342
C15   C     C_R   0.326018 0.443507 0.624842 0.356549
C16   C     C_R   0.673983 0.556435 0.624839 0.356546
C17   C     C_R   0.252401 0.509629 0.478025 0.209472
C18   C     C_R   0.747599 0.490184 0.478073 0.209460
C19   C     C_R   0.101406 0.504663 0.448559 -0.053898
C20   C     C_R   0.898594 0.495131 0.448574 -0.053897
C21   C     C_R   0.127721 0.370981 0.429385 -0.036501
C22   C     C_R   0.872279 0.628813 0.429394 -0.036498
C23   C     C_R   0.125944 0.640326 0.475051 -0.034813
C24   C     C_R   0.874056 0.359471 0.475080 -0.034819
C25   C     C_R   0.103352 0.236136 0.404141 -0.132246
C26   C     C_R   0.896649 0.763656 0.404134 -0.132249
C27   C     C_R   0.099898 0.773458 0.491190 -0.133397
C28   C     C_R   0.900101 0.226338 0.491219 -0.133399
C29   C     C_R   0.352922 0.513186 0.498213 -0.250243
C30   C     C_R   0.647076 0.486761 0.498218 -0.250229
H1    H     H_    0.122838 0.132655 0.384150 0.187984
H2    H     H_    0.877163 0.867137 0.384138 0.187987
H3    H     H_    0.117942 0.878669 0.514902 0.186375
H4    H     H_    0.882057 0.121128 0.514938 0.186378
C31   C     C_R   0.975460 0.360892 0.449453 0.047166
C32   C     C_R   0.024539 0.638899 0.449441 0.047167
C33   C     C_R   0.973864 0.636192 0.432914 0.047007
C34   C     C_R   0.026136 0.363599 0.432921 0.047005
C35   C     C_R   0.949455 0.497339 0.442948 0.077475
C36   C     C_R   0.050545 0.502453 0.442941 0.077475
C37   C     C_R   0.949952 0.226642 0.477213 -0.215637
C38   C     C_R   0.050047 0.773151 0.477193 -0.215640
C39   C     C_R   0.946649 0.767655 0.406971 -0.216671
C40   C     C_R   0.053352 0.232135 0.406987 -0.216667
H5    H     H_    0.967938 0.121105 0.496211 0.132356
H6    H     H_    0.032061 0.878687 0.496192 0.132355
H7    H     H_    0.963294 0.874466 0.383487 0.134253
H8    H     H_    0.036707 0.125323 0.383514 0.134249
C41   C     C_1   0.500006 0.065172 0.499986 -0.160618
C42   C     C_1   0.499995 0.934828 0.499985 -0.160616
N3    N     N_1   0.500000 0.500000 0.073640 -0.002408
N4    N     N_1   0.500000 0.500000 0.926360 -0.000456
O13   O     O_3   0.350638 0.373683 0.752286 -0.723368
H9    H     H_    0.327981 0.329426 0.832579 0.340185
O14   O     O_3   0.649366 0.626340 0.752237 -0.723397
H10   H     H_    0.672024 0.670458 0.832605 0.340208
O15   O     O_3   0.353560 0.668731 0.247808 -0.731296
H11   H     H_    0.381303 0.718441 0.301711 0.342521
O16   O     O_3   0.646430 0.331138 0.247869 -0.731314
H12   H     H_    0.618671 0.281501 0.301772 0.342518
N5    N     N_3   0.245565 0.380237 0.742213 -0.429688
H13   H     H_    0.253297 0.266028 0.751394 0.223238
H14   H     H_    0.253251 0.432872 0.854465 0.187156
N6    N     N_3   0.754439 0.619636 0.742221 -0.429686
H15   H     H_    0.746715 0.733855 0.751373 0.223287
H16   H     H_    0.746747 0.567029 0.854489 0.187124
N7    N     N_3   0.254791 0.643684 0.214297 -0.414294
H17   H     H_    0.262846 0.757910 0.210822 0.252380
H18   H     H_    0.268333 0.594518 0.106657 0.214052
N8    N     N_3   0.745202 0.356077 0.214380 -0.414272
H19   H     H_    0.737134 0.241859 0.210928 0.252391
H20   H     H_    0.731669 0.405239 0.106723 0.214045

loop_
_geom_bond_atom_site_label_1
_geom_bond_atom_site_label_2
_geom_bond_distance
_ccdc_geom_bond_type
C38   H6    1.077647 S    
O15   H11   0.990591 S    
O3    C2    1.260744 A    
C33   C39   1.411719 A    
C34   C40   1.411722 A    
N5    H13   1.045379 S    
C11   C17   1.403026 A    
C5    O9    1.350012 S    
C7    N1    1.367253 A    
C2    C42   1.365209 S    
O1    C1    1.260744 A    
C19   C21   1.408143 A    
C22   C26   1.397561 A    
N6    H15   1.045401 S    
N8    H20   1.045343 S    
C13   O15   1.380973 S    
C7    C23   1.397716 A    
C8    C24   1.397735 A    
C5    C21   1.398038 A    
C20   C24   1.407629 A    
O7    Zn1   2.011830 S    
C27   C38   1.388220 A    
C10   C18   1.398436 A    
N1    C17   1.429374 S    
Zn2   N3    1.971160 S    
C31   C37   1.411710 A    
C24   C28   1.397600 A    
O3    Zn1   1.953939 S    
C6    O10   1.350020 S    
N5    H14   1.045074 S    
C12   C18   1.403032 A    
C6    N2    1.366802 A    
C21   C25   1.397557 A    
O2    C2    1.260690 A    
C12   N6    1.435013 S    
O5    C3    1.279964 A    
C16   O14   1.385293 S    
C33   C35   1.416757 A    
C9    C13   1.394197 A    
C34   C36   1.416762 A    
C11   C15   1.414898 A    
N3    N4    1.191856 T    
C12   C16   1.414914 A    
C4    C30   1.468041 S    
O8    Zn2   2.011833 S    
N8    H19   1.045618 S    
C27   H3    1.082915 S    
C23   C27   1.397592 A    
C10   N8    1.434160 S    
C7    O11   1.350105 S    
C13   C29   1.418554 A    
C19   C23   1.407629 A    
O16   H12   0.990622 S    
N7    H17   1.045612 S    
O5    Zn1   2.011840 S    
C28   C37   1.388226 A    
O6    C4    1.278372 A    
C1    C41   1.365209 S    
C25   H1    1.082952 S    
C26   H2    1.082951 S    
C32   C38   1.411713 A    
N6    H16   1.045089 S    
N7    H18   1.045339 S    
C10   C14   1.394199 A    
C8    N2    1.367257 A    
C3    C29   1.468053 S    
O1    Zn1   1.953944 S    
C32   C33   1.413031 A    
C28   H4    1.082913 S    
O6    Zn2   2.011838 S    
C19   C36   1.412486 A    
C8    O12   1.350107 S    
C16   C30   1.412928 A    
C14   C30   1.418563 A    
C25   C40   1.388413 A    
O4    C1    1.260690 A    
C11   N5    1.435030 S    
C26   C39   1.388403 A    
C37   H5    1.077655 S    
C39   H7    1.077791 S    
C40   H8    1.077782 S    
C31   C34   1.413043 A    
C20   C22   1.408142 A    
O14   H10   0.987146 S    
C20   C35   1.412492 A    
C14   O16   1.380982 S    
C5    N1    1.366796 A    
C31   C35   1.417285 A    
O4    Zn2   1.953940 S    
O13   H9    0.987206 S    
O2    Zn2   1.953944 S    
O7    C4    1.279945 A    
N2    C18   1.429371 S    
O8    C3    1.278376 A    
C15   O13   1.385276 S    
C41   C42   1.164844 T    
C15   C29   1.412936 A    
C9    C17   1.398434 A    
C9    N7    1.434164 S    
C32   C36   1.417290 A    
C6    C22   1.398036 A    
Zn1   N4    1.971160 S    
