data_mof_unit_20862.cif
_audit_creation_date              2012-12-10T17:03:00-0500
_audit_creation_method            fapswitch 2.2
_symmetry_space_group_name_H-M    P1
_symmetry_Int_Tables_number       1
_space_group_crystal_system       triclinic
_cell_length_a                    10.038477
_cell_length_b                    11.002633
_cell_length_c                    13.473475
_cell_angle_alpha                 96.807001
_cell_angle_beta                  82.687624
_cell_angle_gamma                 111.275141
_cell_volume                      1371.22447017

loop_
_atom_site_label
_atom_site_type_symbol
_atom_type_description
_atom_site_fract_x
_atom_site_fract_y
_atom_site_fract_z
_atom_type_partial_charge
C1    C     C_R   0.557697 0.745120 0.503515 0.870802
C2    C     C_R   0.437915 0.433464 0.964747 0.079368
C3    C     C_R   0.481523 0.444384 0.861057 0.033589
C4    C     C_R   0.546053 0.473050 0.033634 -0.082506
C5    C     C_R   0.692084 0.536063 0.997753 -0.094279
C6    C     C_R   0.731087 0.510625 0.896004 0.233928
C7    C     C_R   0.625602 0.460017 0.830023 -0.181329
C8    C     C_R   0.516765 0.449887 0.136015 0.347172
C9    C     C_R   0.751388 0.611781 0.169011 0.339440
C10   C     C_R   0.378812 0.431401 0.792264 -0.138363
C11   C     C_2   0.587214 0.885037 0.506098 -0.385566
C12   C     C_R   0.422835 0.473367 0.688015 0.820735
C13   C     C_2   0.509089 0.933399 0.458813 0.207919
C14   C     C_2   0.418424 0.114601 0.474416 -0.297303
C15   C     C_2   0.524081 0.070328 0.483281 -0.160183
C16   C     C_2   0.927506 0.492217 0.492029 0.213029
C17   C     C_2   0.081766 0.515001 0.509845 0.267187
C18   C     C_R   0.444287 0.254503 0.490415 0.821492
C19   C     C_R   0.575265 0.512003 0.310866 0.866894
C20   C     C_R   0.792277 0.614016 0.065749 0.151622
C21   C     C_R   0.617213 0.523072 0.203697 -0.268407
C22   C     C_R   0.232406 0.374884 0.824218 -0.166951
C23   C     C_R   0.188966 0.346806 0.924115 0.210727
C24   C     C_R   0.289176 0.386974 0.994740 -0.145560
Cu1   Cu    Cu3+1 0.362000 0.479240 0.482530 1.025599
Cu2   Cu    Cu3+1 0.638000 0.520760 0.517470 1.033188
H1    H     H_    0.315045 0.049048 0.451470 0.180582
H2    H     H_    0.666175 0.948975 0.555367 0.150667
H3    H     H_    0.110401 0.379989 0.399696 0.218532
H4    H     H_    0.152111 0.350317 0.771409 0.193374
H5    H     H_    0.246270 0.379812 0.071945 0.223520
H6    H     H_    0.657537 0.424167 0.756373 0.194402
H7    H     H_    0.623936 0.135790 0.511974 0.182734
N1    N     N_2   0.845330 0.551960 0.543750 -0.109204
N2    N     N_2   0.154690 0.448120 0.456210 -0.309341
O1    O     O_R   0.426290 0.668220 0.490680 -0.525073
O2    O     O_R   0.659360 0.703290 0.520190 -0.559131
O3    O     O_R   0.326580 0.473880 0.629020 -0.554579
O4    O     O_R   0.559660 0.508940 0.658530 -0.574683
O5    O     O_R   0.340640 0.296710 0.479810 -0.583819
O6    O     O_R   0.573710 0.331780 0.509320 -0.574626
O7    O     O_R   0.440340 0.491060 0.341470 -0.527657
O8    O     O_R   0.673420 0.526120 0.370980 -0.529924
O9    O     O_3   0.846929 0.690866 0.235879 -0.523433
C25   C     C_3   0.812853 0.804449 0.266068 0.108686
H8    H     H_    0.702667 0.779533 0.304644 0.121240
H9    H     H_    0.820635 0.860381 0.200564 0.164979
C26   C     C_3   0.918477 0.892279 0.338760 -0.700484
H10   H     H_    0.029480 0.921258 0.301523 0.254658
H11   H     H_    0.892476 0.981704 0.363461 0.198506
H12   H     H_    0.912290 0.839666 0.405595 0.270251
I1    I     I_    0.376934 0.825672 0.341099 -0.341568
I2    I     I_    0.184556 0.656295 0.626903 -0.180387
I3    I     I_    0.840750 0.348333 0.372202 -0.340639
I4    I     I_    0.885885 0.716054 0.648569 -0.171268
I5    I     I_    0.932023 0.497681 0.839692 -0.278034
I6    I     I_    0.990490 0.763825 0.020628 -0.220743
O10   O     O_3   0.394791 0.350540 0.170621 -0.577510
C27   C     C_3   0.421961 0.232166 0.157364 0.070758
H13   H     H_    0.514091 0.239422 0.198942 0.158418
H14   H     H_    0.444821 0.205482 0.076274 0.168167
C28   C     C_3   0.289876 0.123398 0.198282 -0.722140
H15   H     H_    0.196167 0.112534 0.157576 0.262454
H16   H     H_    0.309629 0.029532 0.188296 0.234202
H17   H     H_    0.265350 0.146541 0.279500 0.243905
I7    I     I_    0.973426 0.237548 0.971448 -0.298036

loop_
_geom_bond_atom_site_label_1
_geom_bond_atom_site_label_2
_ccdc_geom_bond_type
Cu1   O7    S    
C2    C4    A    
C23   C24   A    
Cu2   O2    S    
C6    C7    A    
Cu1   O3    S    
C19   O8    A    
C13   I1    S    
C17   N2    D    
H3    N2    S    
C9    C20   A    
C1    C11   S    
C19   O7    A    
C1    O2    A    
C4    C8    A    
C16   N1    D    
C12   O4    A    
C26   H11   S    
C2    C3    A    
O10   C27   S    
C24   H5    S    
N1    I4    S    
Cu1   O5    S    
C3    C10   A    
C25   H8    S    
C10   C22   A    
C2    C24   A    
C11   C13   D    
C9    C21   A    
C28   H15   S    
C10   C12   S    
C11   H2    S    
Cu1   N2    S    
C23   I7    S    
C26   H10   S    
C19   C21   S    
Cu2   N1    S    
Cu2   O8    S    
C8    C21   A    
C3    C7    A    
C25   H9    S    
C13   C15   S    
C12   O3    A    
C5    C6    A    
C14   H1    S    
C16   I3    S    
Cu2   O4    S    
C27   H14   S    
Cu1   O1    S    
C17   I2    S    
C27   H13   S    
O9    C25   S    
Cu2   O6    S    
C25   C26   S    
C5    C20   A    
C18   O5    A    
C14   C15   D    
C16   C17   S    
C9    O9    S    
C28   H16   S    
C7    H6    S    
C22   H4    S    
C28   H17   S    
C8    O10   S    
Cu1   Cu2   S    
C22   C23   A    
C20   I6    S    
C14   C18   S    
C15   H7    S    
C26   H12   S    
C18   O6    A    
C1    O1    A    
C6    I5    S    
C4    C5    A    
C27   C28   S    
