data_mof_unit_15106.cif
_audit_creation_date              2013-03-05T15:41:28-0500
_audit_creation_method            fapswitch 2.2
_symmetry_space_group_name_H-M    P1
_symmetry_Int_Tables_number       1
_space_group_crystal_system       triclinic
_cell_length_a                    11.659026
_cell_length_b                    18.81968
_cell_length_c                    10.037091
_cell_angle_alpha                 89.985462
_cell_angle_beta                  109.714725
_cell_angle_gamma                 90.170745
_cell_volume                      2073.22796231

loop_
_atom_site_label
_atom_site_type_symbol
_atom_site_description
_atom_site_fract_x
_atom_site_fract_y
_atom_site_fract_z
_atom_type_partial_charge
O1    O     O_R   0.267710 0.668200 0.902110 -0.435425
O2    O     O_R   0.732290 0.331800 0.097890 -0.406852
O3    O     O_R   0.732290 0.168200 0.097890 -0.429181
O4    O     O_R   0.267710 0.831800 0.902110 -0.427491
O5    O     O_R   0.099480 0.674460 0.038850 -0.400448
O6    O     O_R   0.900520 0.325540 0.961150 -0.467832
O7    O     O_R   0.900520 0.174460 0.961150 -0.445416
O8    O     O_R   0.099480 0.825540 0.038850 -0.398673
C1    C     C_R   0.133504 0.639460 0.157680 0.544387
C2    C     C_R   0.927302 0.353422 0.859323 0.583177
C3    C     C_R   0.925724 0.146275 0.858924 0.590070
C4    C     C_R   0.130682 0.861074 0.157537 0.532137
O9    O     O_R   0.116720 0.669210 0.267660 -0.415030
O10   O     O_R   0.883280 0.330790 0.732340 -0.435984
O11   O     O_R   0.883280 0.169210 0.732340 -0.445115
O12   O     O_R   0.116720 0.830790 0.267660 -0.419725
O13   O     O_R   0.366710 0.675440 0.427590 -0.424515
O14   O     O_R   0.633290 0.324560 0.572410 -0.471439
O15   O     O_R   0.633290 0.175440 0.572410 -0.457288
O16   O     O_R   0.366710 0.824560 0.427590 -0.431036
C5    C     C_R   0.438044 0.637910 0.379415 0.526911
C6    C     C_R   0.527684 0.350692 0.552267 0.541775
C7    C     C_R   0.530279 0.148584 0.554330 0.565301
C8    C     C_R   0.440563 0.861916 0.381666 0.517530
O17   O     O_R   0.534870 0.669390 0.371760 -0.456885
O18   O     O_R   0.465130 0.330610 0.628240 -0.505223
O19   O     O_R   0.465130 0.169390 0.628240 -0.506626
O20   O     O_R   0.534870 0.830610 0.371760 -0.459277
O21   O     O_R   0.453080 0.674480 0.075160 -0.523534
O22   O     O_R   0.546920 0.325520 0.924840 -0.404917
O23   O     O_R   0.546920 0.174480 0.924840 -0.443914
O24   O     O_R   0.453080 0.825520 0.075160 -0.517654
C9    C     C_R   0.377506 0.646604 0.962907 0.594503
C10   C     C_R   0.647455 0.361022 0.990689 0.546486
C11   C     C_R   0.625225 0.144527 0.032096 0.629669
C12   C     C_R   0.374689 0.855624 0.967164 0.602727
Cr1   Cr    Cr6+3 0.187610 0.750000 0.979860 1.224582
Cr2   Cr    Cr6+3 0.812390 0.250000 0.020140 1.239719
Cr3   Cr    Cr6+3 0.245810 0.750000 0.341640 1.217519
Cr4   Cr    Cr6+3 0.754190 0.250000 0.658360 1.227485
Cr5   Cr    Cr6+3 0.485760 0.750000 0.219910 1.139471
Cr6   Cr    Cr6+3 0.514240 0.250000 0.780090 1.196819
O25   O     O_3   0.306390 0.750000 0.180470 -0.451311
O26   O     O_3   0.693610 0.250000 0.819530 -0.386320
C13   C     C_R   0.482767 0.412312 0.453643 0.052552
C14   C     C_R   0.449673 0.559801 0.407344 0.019781
C15   C     C_R   0.461787 0.938113 0.417907 0.027050
C16   C     C_R   0.495884 0.084634 0.463077 0.059774
C17   C     C_R   0.278245 0.401705 0.453817 -0.096095
C18   C     C_R   0.609961 0.554130 0.289525 -0.137547
C19   C     C_R   0.620807 0.941624 0.301638 -0.141930
C20   C     C_R   0.287594 0.090288 0.469062 -0.124698
C21   C     C_R   0.194939 0.426311 0.512232 0.196064
C22   C     C_R   0.720573 0.525896 0.294838 0.149667
C23   C     C_R   0.736418 0.961571 0.311738 0.172022
C24   C     C_R   0.205304 0.062377 0.528634 0.233244
C25   C     C_R   0.196531 0.498701 0.547884 0.216481
C26   C     C_R   0.742409 0.455474 0.335282 0.200993
C27   C     C_R   0.774347 0.030519 0.355939 0.177143
C28   C     C_R   0.213915 0.989629 0.565923 0.223541
C29   C     C_R   0.286015 0.545186 0.528141 0.158751
C30   C     C_R   0.650526 0.415091 0.358541 0.183114
C31   C     C_R   0.690053 0.075548 0.391937 0.151717
C32   C     C_R   0.308227 0.947743 0.547988 0.159870
C33   C     C_R   0.369912 0.518916 0.462274 -0.058608
C34   C     C_R   0.557166 0.449125 0.392513 -0.011513
C35   C     C_R   0.581638 0.046533 0.413965 -0.016174
C36   C     C_R   0.386082 0.977089 0.477128 -0.056443
C37   C     C_R   0.374456 0.444485 0.450172 -0.057334
C38   C     C_R   0.536989 0.521924 0.361448 -0.051229
C39   C     C_R   0.553604 0.975045 0.377130 -0.061497
C40   C     C_R   0.387163 0.050750 0.462386 -0.089676
H1    H     H_    0.277874 0.345655 0.428389 0.200468
H2    H     H_    0.587709 0.601712 0.230551 0.206879
H3    H     H_    0.586111 0.899167 0.229997 0.197830
H4    H     H_    0.280168 0.145634 0.437551 0.199134
C41   C     C_2   0.386538 0.931360 0.957786 -0.059363
C42   C     C_2   0.604308 0.070730 0.051731 -0.086019
C43   C     C_2   0.633635 0.437909 0.997554 -0.115058
C44   C     C_2   0.401542 0.574052 0.936705 -0.038912
C45   C     C_2   0.486925 0.965584 0.958964 0.117477
C46   C     C_2   0.494427 0.041882 0.993965 0.130657
C47   C     C_2   0.523696 0.469039 0.960199 0.132696
C48   C     C_2   0.510632 0.547100 0.945342 0.129709
H5    H     H_    0.684723 0.037929 0.079934 0.134575
H6    H     H_    0.313419 0.960557 0.976810 0.125231
H7    H     H_    0.326974 0.539459 0.934768 0.160457
H8    H     H_    0.716264 0.469444 0.025552 0.146116
C49   C     C_2   0.108899 0.937749 0.145842 0.002694
C50   C     C_2   0.981032 0.076138 0.881564 0.019436
C51   C     C_2   0.987963 0.422712 0.883258 0.022634
C52   C     C_2   0.117534 0.562200 0.143185 0.010342
C53   C     C_2   0.040918 0.969030 0.024369 0.267610
C54   C     C_2   0.031532 0.047986 0.010935 0.223075
C55   C     C_2   0.032925 0.451666 0.013025 0.213057
C56   C     C_2   0.039156 0.530923 0.027030 0.264448
H9    H     H_    0.961880 0.043033 0.788437 0.158377
H10   H     H_    0.153580 0.968112 0.240631 0.040257
H11   H     H_    0.178004 0.530828 0.227540 0.001554
H12   H     H_    0.973783 0.455200 0.790009 0.167405
N1    N     N_R   0.125084 0.374222 0.556049 0.158575
O27   O     O_R   0.086750 0.317495 0.479734 -0.204217
O28   O     O_R   0.120675 0.375619 0.683702 -0.214971
N2    N     N_R   0.807689 0.569243 0.258641 0.127961
O29   O     O_R   0.802956 0.638214 0.264864 -0.199170
O30   O     O_R   0.891633 0.540578 0.218197 -0.305046
N3    N     N_R   0.804790 0.914207 0.254820 0.143323
O31   O     O_R   0.815793 0.847865 0.293498 -0.196418
O32   O     O_R   0.833033 0.932673 0.144871 -0.253939
N4    N     N_R   0.122553 0.110506 0.561881 0.165025
O33   O     O_R   0.135287 0.178784 0.552545 -0.225920
O34   O     O_R   0.038970 0.087823 0.610004 -0.255342
N5    N     N_R   0.109410 0.524923 0.607362 0.137820
O35   O     O_R   0.014894 0.559619 0.527851 -0.211291
O36   O     O_R   0.136098 0.526727 0.743699 -0.314018
N6    N     N_R   0.862448 0.429424 0.385827 0.132315
O37   O     O_R   0.910595 0.401913 0.298629 -0.255986
O38   O     O_R   0.904718 0.413298 0.518895 -0.261703
N7    N     N_R   0.886862 0.055939 0.340145 0.123419
O39   O     O_R   0.902408 0.121238 0.308492 -0.193236
O40   O     O_R   0.973263 0.011591 0.345461 -0.286907
N8    N     N_R   0.128828 0.957801 0.623522 0.143696
O41   O     O_R   0.137962 0.969268 0.754165 -0.301040
O42   O     O_R   0.049855 0.911397 0.549956 -0.195689
N9    N     N_R   0.307314 0.610857 0.605430 0.094393
O43   O     O_R   0.417964 0.630464 0.677503 -0.258078
O44   O     O_R   0.217648 0.653588 0.597335 -0.209748
N10   N     N_R   0.642068 0.341519 0.324247 0.099574
O45   O     O_R   0.740455 0.304102 0.351487 -0.169833
O46   O     O_R   0.537377 0.314518 0.249001 -0.245365
N11   N     N_R   0.701170 0.149500 0.373687 0.097714
O47   O     O_R   0.605767 0.184752 0.298467 -0.266951
O48   O     O_R   0.797918 0.182954 0.452748 -0.170408
N12   N     N_R   0.340060 0.883509 0.630137 0.090299
O49   O     O_R   0.256904 0.836459 0.625943 -0.217373
O50   O     O_R   0.453787 0.865700 0.687413 -0.225150
N13   N     N_R   0.386432 0.083985 0.972144 0.071381
O51   O     O_R   0.378423 0.126212 0.071287 -0.285576
O52   O     O_R   0.298601 0.082592 0.851162 -0.287461
N14   N     N_R   0.585947 0.931154 0.927937 0.104681
O53   O     O_R   0.642773 0.965125 0.855672 -0.325620
O54   O     O_R   0.616165 0.865611 0.963865 -0.187786
N15   N     N_R   0.607053 0.590136 0.926307 0.110032
O55   O     O_R   0.665922 0.566682 0.845955 -0.312937
O56   O     O_R   0.625777 0.655399 0.971011 -0.189410
N16   N     N_R   0.417172 0.427076 0.945624 0.087681
O57   O     O_R   0.383555 0.415003 0.054712 -0.299539
O58   O     O_R   0.346544 0.408717 0.820272 -0.268576
O59   O     O_3   0.066003 0.092423 0.127352 -0.606071
H13   H     H_    0.146794 0.076828 0.190323 0.323377
O60   O     O_3   0.972108 0.926387 0.913425 -0.578824
H14   H     H_    0.892735 0.949836 0.866538 0.356290
O61   O     O_3   0.959344 0.573330 0.924285 -0.572399
H15   H     H_    0.889609 0.544225 0.866420 0.347554
O62   O     O_3   0.065824 0.407155 0.129450 -0.618512
H16   H     H_    0.076356 0.435653 0.215080 0.350461

loop_
_geom_bond_atom_site_label_1
_geom_bond_atom_site_label_2
_geom_bond_distance
_ccdc_geom_bond_type
C26   C30   1.394096 A    
C45   N14   1.448031 S    
C43   C47   1.344214 D    
O4    C12   1.276875 A    
C53   C54   1.492999 S    
O23   Cr6   1.976030 S    
O5    Cr1   1.956715 S    
Cr5   O25   1.992892 S    
C55   C56   1.497490 S    
O19   Cr6   2.087943 S    
C44   C48   1.346073 D    
N10   O45   1.295992 A    
N2    O30   1.298072 A    
C45   C46   1.473669 S    
O1    C9    1.285383 A    
C54   O59   1.381272 S    
O7    C3    1.274796 A    
N13   O52   1.297987 A    
N1    O27   1.301080 A    
C19   C39   1.409751 A    
C47   C48   1.479699 S    
C32   C36   1.437767 A    
C22   N2    1.439792 S    
N14   O54   1.300900 A    
N16   O57   1.301139 A    
C46   N13   1.442558 S    
C23   C27   1.393048 A    
C12   C41   1.437709 S    
C18   H2    1.056918 S    
C33   C37   1.408754 A    
N15   O55   1.300690 A    
O21   C9    1.284050 A    
O20   Cr5   2.087941 S    
C52   C56   1.348737 D    
N6    O37   1.297147 A    
O13   Cr3   1.972523 S    
O14   Cr4   1.972522 S    
N4    O33   1.300073 A    
N2    O29   1.301745 A    
C1    O9    1.310347 A    
C25   N5    1.429654 S    
C3    O11   1.273677 A    
C4    O12   1.301375 A    
O3    Cr2   2.081724 S    
C21   N1    1.433318 S    
C27   N7    1.453053 S    
N3    O31   1.301191 A    
O6    Cr2   1.956713 S    
C7    O19   1.289454 A    
C51   H12   1.083089 S    
C50   H9    1.081840 S    
C19   C23   1.368530 A    
O1    Cr1   2.086128 S    
O2    C10   1.312789 A    
C55   O62   1.383261 S    
O60   H14   0.990508 S    
N1    O28   1.299782 A    
C17   C37   1.389281 A    
C26   N6    1.407613 S    
N3    O32   1.300520 A    
Cr6   O26   1.992892 S    
C16   C40   1.415171 A    
O8    C4    1.305852 A    
C1    C52   1.466365 S    
C24   N4    1.444015 S    
C43   H8    1.083177 S    
Cr2   O26   2.022590 S    
C50   C54   1.341331 D    
N16   O58   1.296137 A    
O15   Cr4   1.966850 S    
N7    O40   1.297276 A    
C31   C35   1.459157 A    
N8    O41   1.297359 A    
O9    Cr3   2.088366 S    
O22   C10   1.315300 A    
C13   C37   1.391885 A    
C32   N12   1.440364 S    
O16   C8    1.308487 A    
C4    C49   1.463731 S    
N14   O53   1.302018 A    
C14   C33   1.449910 A    
C2    O10   1.275508 A    
O17   Cr5   2.089859 S    
O16   Cr3   1.966849 S    
C30   C34   1.402138 A    
Cr3   O25   1.971448 S    
C48   N15   1.447637 S    
N11   O48   1.300215 A    
C51   C55   1.343937 D    
O13   C5    1.303599 A    
C24   C28   1.414140 A    
C23   N3    1.438104 S    
Cr1   O25   2.022590 S    
O15   C7    1.257056 A    
O5    C1    1.302201 A    
C20   C40   1.401225 A    
C10   C43   1.460635 S    
C47   N16   1.434994 S    
C42   C46   1.329294 D    
C56   O61   1.386675 S    
O3    C11   1.278059 A    
C36   C40   1.394597 A    
C18   C22   1.380576 A    
C28   N8    1.435392 S    
C15   C39   1.444846 A    
C42   H5    1.079127 S    
C41   H6    1.085267 S    
C5    C14   1.494359 S    
C31   N11   1.414960 S    
N9    O43   1.300550 A    
C17   H1    1.085006 S    
C53   O60   1.386207 S    
O8    Cr1   1.961375 S    
O24   Cr5   1.976028 S    
N8    O42   1.300966 A    
N11   O47   1.298053 A    
O24   C12   1.290609 A    
C15   C36   1.424240 A    
O62   H16   0.984916 S    
O18   Cr6   2.089858 S    
N5    O35   1.299333 A    
C22   C26   1.384940 A    
N15   O56   1.300049 A    
C5    O17   1.298396 A    
C21   C25   1.407140 A    
C7    C16   1.482577 S    
O21   Cr5   1.974926 S    
O14   C6    1.278419 A    
C8    C15   1.478968 S    
C8    O20   1.282033 A    
C19   H3    1.058893 S    
C20   H4    1.083670 S    
N10   O46   1.301164 A    
C2    C51   1.462327 S    
N12   O50   1.299708 A    
N7    O39   1.296670 A    
C9    C44   1.436746 S    
C25   C29   1.423725 A    
N12   O49   1.301222 A    
C44   H7    1.079486 S    
N13   O51   1.301543 A    
C11   C42   1.434385 S    
C27   C31   1.435021 A    
C49   H10   1.080361 S    
C28   C32   1.414804 A    
O2    Cr2   2.086127 S    
C18   C38   1.422469 A    
O59   H13   0.986287 S    
C30   N10   1.421912 S    
C3    C50   1.454583 S    
C34   C38   1.407773 A    
C17   C21   1.374263 A    
O23   C11   1.284466 A    
O7    Cr2   1.961377 S    
N6    O38   1.294388 A    
C35   C39   1.403458 A    
C16   C35   1.446972 A    
C49   C53   1.346016 D    
N4    O34   1.296215 A    
O11   Cr4   2.094614 S    
C14   C38   1.441381 A    
O6    C2    1.277299 A    
O12   Cr3   2.094612 S    
O10   Cr4   2.088365 S    
C29   C33   1.441395 A    
Cr4   O26   1.971449 S    
C6    C13   1.500760 S    
O4    Cr1   2.081722 S    
C41   C45   1.330807 D    
C6    O18   1.276576 A    
C13   C34   1.401488 A    
N9    O44   1.301500 A    
O22   Cr6   1.974926 S    
C29   N9    1.435131 S    
O61   H15   0.988583 S    
C20   C24   1.392043 A    
C52   H11   1.077958 S    
N5    O36   1.297407 A    
