data_mof_unit_51345.cif
_audit_creation_date              2012-10-26T18:53:57-0400
_audit_creation_method            fapswitch 2.2
_symmetry_space_group_name_H-M    P1
_symmetry_Int_Tables_number       1
_space_group_crystal_system       triclinic
_cell_length_a                    14.766483
_cell_length_b                    14.74874
_cell_length_c                    17.172043
_cell_angle_alpha                 107.319171
_cell_angle_beta                  73.197801
_cell_angle_gamma                 115.474858
_cell_volume                      3166.40557758

loop_
_atom_site_label
_atom_site_type_symbol
_atom_type_description
_atom_site_fract_x
_atom_site_fract_y
_atom_site_fract_z
_atom_type_partial_charge
C1    C     C_R   0.118633 0.688937 0.514051 0.550460
C2    C     C_R   0.711481 0.176492 0.518820 -0.150944
C3    C     C_R   0.359791 0.924979 0.525001 -0.011024
C4    C     C_R   0.641176 0.074800 0.508551 -0.029413
C5    C     C_R   0.321311 0.003181 0.564783 -0.021228
C6    C     C_R   0.679357 0.997535 0.463981 -0.023006
C7    C     C_R   0.466873 0.949611 0.500905 0.024959
C8    C     C_R   0.533878 0.049254 0.533535 -0.001983
C9    C     C_R   0.490244 0.119553 0.589486 0.231710
C10   C     C_R   0.508312 0.878783 0.443214 0.262844
C11   C     C_R   0.387781 0.100359 0.596172 -0.086312
C12   C     C_R   0.881608 0.311451 0.490608 0.545478
C13   C     C_R   0.613347 0.902032 0.429479 -0.102073
C14   C     C_R   0.324566 0.382262 0.332460 -0.161953
C15   C     C_R   0.704572 0.669162 0.646246 -0.150501
C16   C     C_R   0.990042 0.504967 0.652954 0.565265
C17   C     C_R   0.010720 0.496393 0.347064 0.574480
C18   C     C_R   0.225702 0.382697 0.367556 0.399500
C19   C     C_R   0.786647 0.635933 0.623456 0.400018
C20   C     C_R   0.280822 0.479046 0.495372 0.359213
C21   C     C_R   0.716848 0.517497 0.506536 0.369422
C22   C     C_R   0.383578 0.483797 0.461307 -0.040201
C23   C     C_R   0.185309 0.799148 0.526587 -0.043854
C24   C     C_R   0.635098 0.553771 0.524972 -0.030742
C25   C     C_R   0.403707 0.433227 0.377916 -0.038122
C26   C     C_R   0.627190 0.626565 0.599285 -0.033714
C27   C     C_R   0.466449 0.535381 0.506808 -0.011319
C28   C     C_R   0.559988 0.519170 0.473759 -0.009140
C29   C     C_R   0.578895 0.476811 0.388742 -0.096156
C30   C     C_R   0.462945 0.609359 0.580377 -0.097095
C31   C     C_R   0.502937 0.434606 0.341224 0.080108
C32   C     C_R   0.542609 0.656586 0.624653 0.075395
C33   C     C_R   0.988588 0.516440 0.740541 0.034944
C34   C     C_R   0.816273 0.201591 0.490654 -0.055637
C35   C     C_R   0.014777 0.489997 0.259645 0.038459
C36   C     C_R   0.081295 0.567370 0.769108 -0.180978
C37   C     C_R   0.922969 0.457273 0.232115 -0.158015
C38   C     C_R   0.083019 0.580571 0.852137 -0.105576
C39   C     C_R   0.923877 0.448853 0.149314 -0.095213
C40   C     C_R   0.992068 0.541925 0.906991 0.030828
C41   C     C_R   0.016722 0.475351 0.093625 0.030017
C42   C     C_R   0.898818 0.493182 0.879817 -0.079564
C43   C     C_R   0.108681 0.506815 0.119903 -0.076202
C44   C     C_R   0.895441 0.482092 0.796195 0.272872
C45   C     C_R   0.215892 0.981021 0.577237 0.287857
C46   C     C_R   0.108844 0.512860 0.203190 0.281258
C47   C     C_2   0.994817 0.545446 0.991842 0.082518
C48   C     C_2   0.018096 0.475184 0.008419 0.082209
C49   C     C_3   0.549687 0.173320 0.709538 -0.101581
C50   C     C_3   0.462118 0.705337 0.383177 -0.117275
C51   C     C_3   0.640506 0.344050 0.464525 -0.102058
C52   C     C_3   0.226931 0.424568 0.616431 -0.089024
C53   C     C_3   0.836419 0.704951 0.752545 -0.107639
C54   C     C_3   0.151547 0.246994 0.263179 -0.106761
C55   C     C_3   0.268300 0.506069 0.181641 -0.078025
C56   C     C_R   0.784908 0.019105 0.449456 0.285071
C57   C     C_3   0.721462 0.449199 0.821176 -0.118686
C58   C     C_3   0.143722 0.063555 0.695884 -0.099914
C59   C     C_3   0.802107 0.886328 0.476922 -0.075288
C60   C     C_R   0.149064 0.880162 0.551246 0.120362
C61   C     C_R   0.853881 0.121314 0.463847 0.124168
C62   C     C_R   0.289994 0.823510 0.515852 -0.111200
Cu1   Cu    Cu3+1 0.916740 0.524770 0.521640 1.102934
Cu2   Cu    Cu3+1 0.083260 0.475230 0.478360 1.091080
H1    H     H_    0.152409 0.597680 0.727108 0.165813
H2    H     H_    0.155296 0.618429 0.873313 0.158994
H3    H     H_    0.359239 0.159541 0.632957 0.169199
H4    H     H_    0.645090 0.848258 0.386069 0.160630
H5    H     H_    0.685851 0.238543 0.544051 0.199241
H6    H     H_    0.316852 0.762351 0.503630 0.186203
H7    H     H_    0.594200 0.122958 0.689027 0.147362
H8    H     H_    0.589922 0.241938 0.753109 0.158458
H9    H     H_    0.472254 0.133937 0.744226 0.122478
H10   H     H_    0.474490 0.698731 0.441881 0.100628
H11   H     H_    0.525964 0.698602 0.331406 0.144617
H12   H     H_    0.850322 0.437569 0.274667 0.172650
H13   H     H_    0.391792 0.639577 0.367526 0.162620
H14   H     H_    0.622633 0.344457 0.532231 0.141677
H15   H     H_    0.663070 0.278178 0.429961 0.149913
H16   H     H_    0.569688 0.329870 0.444941 0.133243
H17   H     H_    0.294371 0.404079 0.606061 0.122373
H18   H     H_    0.162096 0.356340 0.593290 0.165472
H19   H     H_    0.203562 0.446885 0.684464 0.155291
H20   H     H_    0.832707 0.782325 0.771798 0.130669
H21   H     H_    0.894528 0.706805 0.782608 0.147963
H22   H     H_    0.762203 0.646494 0.775443 0.103011
H23   H     H_    0.340091 0.343983 0.268996 0.141808
H24   H     H_    0.074604 0.199385 0.247797 0.170177
H25   H     H_    0.174770 0.198431 0.285969 0.150320
H26   H     H_    0.203634 0.269730 0.205112 0.102521
H27   H     H_    0.229617 0.422662 0.157396 0.116656
H28   H     H_    0.322361 0.513904 0.218868 0.151294
H29   H     H_    0.313907 0.546822 0.129748 0.126691
H30   H     H_    0.742576 0.529721 0.856750 0.105391
H31   H     H_    0.685432 0.394664 0.864167 0.125822
H32   H     H_    0.663645 0.436015 0.785502 0.154238
H33   H     H_    0.205792 0.078985 0.728178 0.099633
H34   H     H_    0.702653 0.729529 0.699952 0.152140
H35   H     H_    0.078617 0.991839 0.709176 0.148431
H36   H     H_    0.116121 0.127517 0.722174 0.175554
H37   H     H_    0.718951 0.846937 0.498720 0.104675
H38   H     H_    0.838793 0.937331 0.530744 0.169120
H39   H     H_    0.834396 0.825891 0.449701 0.183787
H40   H     H_    0.654066 0.478063 0.357337 0.189871
H41   H     H_    0.402164 0.637903 0.601734 0.189242
H42   H     H_    0.830018 0.461559 0.923478 0.128966
H43   H     H_    0.179764 0.529886 0.076107 0.130702
H44   H     H_    0.852480 0.424110 0.128884 0.166732
I1    I     I_    0.547105 0.373089 0.213802 -0.426283
I2    I     I_    0.525423 0.771562 0.731075 -0.437259
I3    I     I_    0.056692 0.358534 0.914601 -0.425709
I4    I     I_    0.960575 0.665367 0.084159 -0.341189
I5    I     I_    0.010226 0.143772 0.449671 -0.255466
I6    I     I_    0.998644 0.860579 0.547818 -0.288691
N1    N     N_R   0.208390 0.438070 0.445820 -0.204156
N2    N     N_R   0.791610 0.561930 0.554180 -0.199921
O1    O     O_R   0.020090 0.662480 0.528530 -0.444083
O2    O     O_3   0.448453 0.796989 0.390847 -0.552078
O3    O     O_3   0.720692 0.434690 0.443127 -0.563388
O4    O     O_3   0.250474 0.507816 0.579571 -0.578656
O5    O     O_3   0.867913 0.681566 0.665617 -0.511768
O6    O     O_3   0.145599 0.334315 0.323731 -0.516743
O7    O     O_3   0.199168 0.551754 0.233184 -0.534943
O8    O     O_3   0.805294 0.430102 0.764724 -0.553532
O9    O     O_3   0.179165 0.059248 0.609685 -0.543757
O10   O     O_3   0.822154 0.941334 0.415198 -0.541241
O11   O     O_R   0.979910 0.337520 0.471470 -0.454417
O12   O     O_R   0.160710 0.620650 0.491980 -0.507343
O13   O     O_R   0.839290 0.379350 0.508020 -0.487871
O14   O     O_R   0.921540 0.523360 0.633990 -0.434515
O15   O     O_R   0.078460 0.476640 0.366010 -0.415319
O16   O     O_R   0.062170 0.481520 0.597440 -0.482538
O17   O     O_R   0.937830 0.518480 0.402560 -0.483181
O18   O     O_3   0.543891 0.205152 0.641980 -0.604243

loop_
_geom_bond_atom_site_label_1
_geom_bond_atom_site_label_2
_ccdc_geom_bond_type
C25   C31   A    
C40   C47   S    
C38   C40   A    
C49   O18   S    
C45   C60   A    
C26   C32   A    
C17   O15   A    
C14   C18   A    
C60   I6    S    
C1    O12   A    
C4    C8    A    
C7    C8    A    
C39   C41   A    
C12   O11   A    
C59   O10   S    
C15   C19   A    
C32   I2    S    
C53   H20   S    
Cu1   O17   S    
C28   C29   A    
C35   C37   A    
C24   C26   A    
C14   H23   S    
C54   H26   S    
C3    C7    A    
C50   H10   S    
Cu1   O1    S    
C47   I4    S    
C33   C36   A    
C62   H6    S    
Cu1   O14   S    
C51   H16   S    
C55   H27   S    
C23   C62   A    
Cu2   O16   S    
C45   O9    S    
C8    C9    A    
Cu2   O12   S    
C49   H8    S    
C51   O3    S    
C53   H22   S    
C56   O10   S    
C30   C32   A    
C2    H5    S    
C16   O14   A    
C55   H29   S    
C9    O18   S    
C2    C34   A    
C40   C42   A    
C54   O6    S    
Cu2   N1    S    
C27   C30   A    
C41   C43   A    
C23   C60   A    
C58   H33   S    
C42   C44   A    
C21   N2    A    
C43   C46   A    
C11   H3    S    
C39   H44   S    
C55   O7    S    
C12   O13   A    
C59   H37   S    
C38   H2    S    
C58   H36   S    
C54   H25   S    
C4    C6    A    
C36   H1    S    
C15   C26   A    
C1    O1    A    
C5    C45   A    
C44   O8    S    
C34   C61   A    
C29   H40   S    
C52   H19   S    
C2    C4    A    
C55   H28   S    
C10   O2    S    
C16   C33   S    
C42   H42   S    
C47   C48   D    
Cu2   O15   S    
C29   C31   A    
Cu2   O11   S    
C31   I1    S    
C43   H43   S    
C52   H18   S    
C9    C11   A    
C18   O6    S    
Cu1   N2    S    
C52   O4    S    
C22   C25   A    
C20   C22   A    
C1    C23   S    
C57   H30   S    
C30   H41   S    
C17   O17   A    
C49   H9    S    
C46   O7    S    
C15   H34   S    
C12   C34   S    
C50   H13   S    
C20   O4    S    
C3    C62   A    
C19   O5    S    
C50   O2    S    
C59   H38   S    
C37   H12   S    
C58   H35   S    
C24   C28   A    
C6    C56   A    
C3    C5    A    
C10   C13   A    
C18   N1    A    
C20   N1    A    
C5    C11   A    
C17   C35   S    
C22   C27   A    
C59   H39   S    
C7    C10   A    
C36   C38   A    
C51   H14   S    
C21   O3    S    
C53   O5    S    
C50   H11   S    
C57   O8    S    
C54   H24   S    
C49   H7    S    
C19   N2    A    
C41   C48   S    
Cu1   O13   S    
C14   C25   A    
C52   H17   S    
C16   O16   A    
C33   C44   A    
C51   H15   S    
C61   I5    S    
Cu1   Cu2   S    
C48   I3    S    
C58   O9    S    
C37   C39   A    
C57   H31   S    
C21   C24   A    
C27   C28   A    
C56   C61   A    
C53   H21   S    
C57   H32   S    
C35   C46   A    
C6    C13   A    
C13   H4    S    
