data_mof_unit_7730.cif
_audit_creation_date              2012-12-11T17:07:25-0500
_audit_creation_method            fapswitch 2.2
_symmetry_space_group_name_H-M    P1
_symmetry_Int_Tables_number       1
_space_group_crystal_system       triclinic
_cell_length_a                    7.01974
_cell_length_b                    14.339777
_cell_length_c                    16.212331
_cell_angle_alpha                 89.975042
_cell_angle_beta                  89.868607
_cell_angle_gamma                 90.224257
_cell_volume                      1631.94070457

loop_
_atom_site_label
_atom_site_type_symbol
_atom_type_description
_atom_site_fract_x
_atom_site_fract_y
_atom_site_fract_z
_atom_type_partial_charge
O1    O     O_R   0.505720 0.583900 0.413310 -0.533570
O2    O     O_R   0.175940 0.594920 0.586080 -0.547063
O3    O     O_R   0.005640 0.416100 0.586690 -0.531449
C1    C     C_R   0.344587 0.617018 0.614539 0.692253
O4    O     O_R   0.176000 0.594930 0.413930 -0.546369
O5    O     O_R   0.005700 0.416110 0.413310 -0.535249
C2    C     C_R   0.344551 0.617202 0.385745 0.713090
O6    O     O_R   0.505660 0.583890 0.586690 -0.539610
O7    O     O_3   0.339200 0.441330 0.500000 -0.372610
V1    V     V_3+5 0.064350 0.510880 0.500000 1.422203
O8    O     O_R   0.675980 0.405080 0.413920 -0.549209
C3    C     C_R   0.844346 0.383631 0.384925 0.807424
O9    O     O_R   0.675920 0.405070 0.586070 -0.542595
C4    C     C_R   0.844927 0.379458 0.611585 0.794586
V2    V     V_3+5 0.564340 0.489120 0.500000 1.415855
O10   O     O_3   0.839360 0.558670 0.500000 -0.382182
C5    C     C_R   0.834993 0.441508 0.779266 -0.145667
C6    C     C_R   0.844205 0.475896 0.859468 -0.119681
C7    C     C_R   0.869857 0.415170 0.925217 -0.115136
C8    C     C_R   0.881753 0.319343 0.911408 -0.092457
C9    C     C_R   0.870791 0.282436 0.830774 0.074579
C10   C     C_R   0.851746 0.344812 0.762990 0.059900
C11   C     C_R   0.886753 0.185436 0.816883 -0.123872
C12   C     C_R   0.908656 0.151952 0.735377 0.023304
C13   C     C_R   0.888325 0.213259 0.666655 -0.107542
C14   C     C_R   0.855049 0.310612 0.680764 -0.159109
C15   C     C_R   0.954001 0.057362 0.721567 -0.222234
C16   C     C_R   0.985308 0.023311 0.642762 -0.326136
C17   C     C_R   0.965056 0.081678 0.573977 0.466362
C18   C     C_R   0.902337 0.174026 0.586006 0.384745
H1    H     H_    0.818054 0.491801 0.730209 0.085382
H2    H     H_    0.834055 0.550196 0.870485 0.109431
H3    H     H_    0.881389 0.442701 0.987148 0.104220
H4    H     H_    0.904987 0.274605 0.964148 0.094069
H5    H     H_    0.970909 0.008591 0.771901 0.136953
H6    H     H_    0.020635 0.950354 0.636032 0.147058
C19   C     C_R   0.701776 0.213539 0.215295 -0.051983
C20   C     C_R   0.876936 0.181879 0.186047 -0.149872
C21   C     C_R   0.036596 0.227520 0.218703 0.333833
C22   C     C_R   0.021968 0.265470 0.300133 0.336000
C23   C     C_R   0.853850 0.314429 0.316982 -0.122301
C24   C     C_R   0.690757 0.282989 0.275876 -0.067221
C25   C     C_3   0.547088 0.338026 0.229884 0.260651
C26   C     C_3   0.545275 0.257116 0.167698 -0.162250
H7    H     H_    0.413284 0.347381 0.265317 0.074544
H8    H     H_    0.429870 0.205248 0.173021 0.187366
C27   C     C_R   0.508600 0.748143 0.690157 0.099622
C28   C     C_R   0.352376 0.687913 0.681078 -0.109253
C29   C     C_R   0.199750 0.698786 0.736834 -0.178669
H9    H     H_    0.075915 0.654133 0.732266 0.133611
C30   C     C_R   0.211493 0.762582 0.802824 -0.186724
H10   H     H_    0.095240 0.765962 0.846580 0.135615
C31   C     C_R   0.376867 0.816840 0.815407 -0.104702
C32   C     C_R   0.520753 0.810720 0.755737 0.111213
C33   C     C_3   0.728413 0.793643 0.766280 -0.419687
C34   C     C_3   0.715471 0.726196 0.694299 -0.399852
H11   H     H_    0.760644 0.758860 0.825905 0.171227
H12   H     H_    0.815435 0.856490 0.752298 0.172100
H13   H     H_    0.741408 0.652610 0.712131 0.164808
H14   H     H_    0.793991 0.750549 0.638634 0.171293
C35   C     C_R   0.459760 0.767681 0.323145 0.056407
C36   C     C_R   0.350266 0.686415 0.318036 -0.150484
C37   C     C_R   0.233894 0.676139 0.247619 -0.283767
H15   H     H_    0.135843 0.617788 0.244152 0.145363
C38   C     C_R   0.252115 0.737772 0.179010 0.475520
C39   C     C_R   0.376376 0.815637 0.183531 -0.203393
C40   C     C_R   0.471420 0.830703 0.258382 0.088870
C41   C     C_3   0.673906 0.855537 0.279574 -0.064971
C42   C     C_3   0.658254 0.786235 0.351621 -0.464544
H16   H     H_    0.659899 0.819154 0.413742 0.153608
H17   H     H_    0.750802 0.723704 0.345984 0.197595
O11   O     O_R   0.229140 0.916090 0.913340 -0.545652
O12   O     O_R   0.558860 0.905090 0.086080 -0.537552
O13   O     O_R   0.729100 0.083920 0.086690 -0.533447
C43   C     C_R   0.389860 0.883546 0.114839 0.759653
O14   O     O_R   0.558860 0.905090 0.913930 -0.545507
O15   O     O_R   0.729100 0.083920 0.913310 -0.529026
C44   C     C_R   0.389841 0.882908 0.885564 0.686093
O16   O     O_R   0.229140 0.916080 0.086720 -0.532378
O17   O     O_3   0.395570 0.058660 0.000020 -0.340834
V3    V     V_3+5 0.670450 0.989140 0.000000 1.502029
O18   O     O_R   0.058810 0.094980 0.913910 -0.536875
C45   C     C_R   0.890945 0.118731 0.887212 0.683601
O19   O     O_R   0.058810 0.094980 0.086060 -0.522775
C46   C     C_R   0.889591 0.117803 0.114083 0.712733
V4    V     V_3+5 0.170450 0.010950 0.999970 1.527833
O20   O     O_3   0.895460 0.941370 0.999990 -0.375957
O21   O     O_3   0.983373 0.049755 0.493138 -0.528411
C47   C     C_3   0.133710 0.985359 0.484026 -0.238852
H18   H     H_    0.086074 0.914221 0.501963 0.122833
H19   H     H_    0.263273 0.006582 0.519007 0.123376
H20   H     H_    0.174115 0.982434 0.417869 0.176521
O22   O     O_3   0.079220 0.210788 0.365755 -0.519446
C48   C     C_3   0.277685 0.203177 0.367146 -0.157658
H21   H     H_    0.315972 0.154707 0.417562 0.166200
H22   H     H_    0.342092 0.271958 0.381686 0.111519
H23   H     H_    0.334745 0.172840 0.309263 0.139893
O23   O     O_3   0.637404 0.420426 0.200841 -0.568081
C49   C     C_3   0.503828 0.490624 0.184986 -0.255018
H24   H     H_    0.426650 0.475195 0.127133 0.132028
H25   H     H_    0.581545 0.557336 0.175748 0.196851
H26   H     H_    0.404762 0.500844 0.237662 0.118712
C50   C     C_2   0.583262 0.284322 0.079564 0.455756
H27   H     H_    0.692479 0.334161 0.064337 0.039155
O24   O     O_2   0.485054 0.252464 0.024286 -0.512231
O25   O     O_3   0.145511 0.724520 0.108101 -0.525174
C51   C     C_3   0.199983 0.640865 0.069201 -0.222281
H28   H     H_    0.144880 0.579315 0.103478 0.126540
H29   H     H_    0.357317 0.636671 0.060957 0.116063
H30   H     H_    0.135379 0.639028 0.006823 0.157086
C52   C     C_2   0.700530 0.955250 0.307196 0.273518
H31   H     H_    0.831880 0.975617 0.337510 0.105201
O26   O     O_2   0.577422 0.013709 0.295516 -0.546368
C53   C     C_2   0.816349 0.826480 0.215017 0.422085
H32   H     H_    0.938046 0.870731 0.201200 0.031794
O27   O     O_2   0.797379 0.752576 0.178422 -0.510191
O28   O     O_3   0.849632 0.224197 0.517469 -0.537638
C54   C     C_3   0.660362 0.199096 0.498428 -0.154093
H33   H     H_    0.559452 0.226416 0.545501 0.109087
H34   H     H_    0.640686 0.122440 0.491046 0.143014
H35   H     H_    0.624537 0.230355 0.438639 0.147452
O29   O     O_3   0.149182 0.271362 0.160303 -0.568602
C55   C     C_3   0.092463 0.364633 0.148134 -0.301957
H36   H     H_    0.163864 0.391541 0.091936 0.171818
H37   H     H_    0.938605 0.370441 0.137167 0.176847
H38   H     H_    0.132078 0.408990 0.201467 0.121464

loop_
_geom_bond_atom_site_label_1
_geom_bond_atom_site_label_2
_ccdc_geom_bond_type
C33   C34   S    
C37   C38   A    
O22   C48   S    
O12   C43   A    
C23   C24   A    
C7    C8    A    
C25   O23   S    
C22   O22   S    
C1    O6    A    
C53   H32   S    
C55   H36   S    
C31   C32   A    
C17   C18   A    
C21   O29   S    
C11   C45   S    
C16   C17   A    
O19   V4    S    
O5    C3    A    
C20   C21   A    
C55   H37   S    
O25   C51   S    
O15   C45   A    
V2    O10   S    
C6    C7    A    
C19   C24   A    
C42   H17   S    
C54   H33   S    
C17   O21   S    
O11   C44   A    
O8    V2    S    
C27   C28   A    
C41   C42   S    
C29   C30   A    
O17   V4    S    
C51   H28   S    
C12   C15   A    
O1    V2    S    
C47   H19   S    
O7    V1    S    
C8    H4    S    
O21   C47   S    
C39   C40   A    
O9    C4    A    
C51   H29   S    
C42   H16   S    
O12   V3    S    
C26   C50   S    
C26   H8    S    
C9    C11   A    
C20   C46   S    
C30   H10   S    
C12   C13   A    
C50   O24   D    
C7    H3    S    
C47   H18   S    
C21   C22   A    
O4    C2    A    
V4    O20   S    
C55   H38   S    
C48   H23   S    
C15   H5    S    
C13   C14   A    
O18   V4    S    
C4    C14   S    
C40   C41   S    
C30   C31   A    
C54   H35   S    
O2    C1    A    
C25   C26   S    
C2    C36   S    
C19   C20   A    
C35   C40   A    
O11   V4    S    
C49   H24   S    
O15   V3    S    
C11   C12   A    
C36   C37   A    
C5    C6    A    
C48   H21   S    
C52   O26   D    
O19   C46   A    
C47   H20   S    
C48   H22   S    
C25   H7    S    
V3    O20   S    
O3    C4    A    
C27   C32   A    
C28   C29   A    
C49   H25   S    
O18   C45   A    
O6    V2    S    
O9    V2    S    
C5    H1    S    
C29   H9    S    
C6    H2    S    
C24   C25   S    
O13   V3    S    
O2    V1    S    
C38   O25   S    
C50   H27   S    
C3    C23   S    
C1    C28   S    
C35   C42   S    
C13   C18   A    
C32   C33   S    
C22   C23   A    
C52   H31   S    
O1    C2    A    
O14   C44   A    
O17   V3    S    
O14   V3    S    
O5    V1    S    
C53   O27   D    
O8    C3    A    
C18   O28   S    
C5    C10   A    
C34   H13   S    
C19   C26   S    
C33   H11   S    
C31   C44   S    
O7    V2    S    
O4    V1    S    
O3    V1    S    
V1    O10   S    
O28   C54   S    
C39   C43   S    
C51   H30   S    
C38   C39   A    
O13   C46   A    
C35   C36   A    
C54   H34   S    
C37   H15   S    
C34   H14   S    
C49   H26   S    
C8    C9    A    
C16   H6    S    
O23   C49   S    
C10   C14   A    
C33   H12   S    
C15   C16   A    
O29   C55   S    
C9    C10   A    
C43   O16   A    
C41   C52   S    
O16   V4    S    
C41   C53   S    
C27   C34   S    
