data_mof_unit_42459.cif
_audit_creation_date              2013-03-05T15:46:32-0500
_audit_creation_method            fapswitch 2.2
_symmetry_space_group_name_H-M    P1
_symmetry_Int_Tables_number       1
_space_group_crystal_system       triclinic
_cell_length_a                    6.928584
_cell_length_b                    16.673846
_cell_length_c                    17.202837
_cell_angle_alpha                 100.302634
_cell_angle_beta                  91.927795
_cell_angle_gamma                 89.316214
_cell_volume                      1954.19247212

loop_
_atom_site_label
_atom_site_type_symbol
_atom_site_description
_atom_site_fract_x
_atom_site_fract_y
_atom_site_fract_z
_atom_type_partial_charge
O1    O     O_R   0.506180 0.438940 0.579430 -0.609786
O2    O     O_R   0.170520 0.406230 0.413590 -0.596085
O3    O     O_R   0.005180 0.561060 0.420570 -0.601907
C1    C     C_R   0.338688 0.382464 0.385843 0.930046
O4    O     O_R   0.176140 0.429310 0.578370 -0.592728
O5    O     O_R   0.010830 0.584300 0.586530 -0.594648
C2    C     C_R   0.349565 0.413327 0.604832 0.926878
O6    O     O_R   0.500520 0.415700 0.413470 -0.589740
O7    O     O_3   0.340830 0.550820 0.502480 -0.262013
V1    V     V_3+5 0.064040 0.490570 0.499540 1.157201
O8    O     O_R   0.681400 0.593770 0.586410 -0.590300
C3    C     C_R   0.851688 0.616656 0.614845 0.944854
O9    O     O_R   0.675790 0.570690 0.421630 -0.574951
C4    C     C_R   0.841221 0.587373 0.395508 0.928159
V2    V     V_3+5 0.564650 0.509430 0.500460 1.176305
O10   O     O_3   0.837730 0.449180 0.497520 -0.276382
C5    C     C_R   0.930571 0.860483 0.166207 -0.210348
C6    C     C_R   0.838518 0.640491 0.334303 -0.175822
C7    C     C_R   0.673732 0.685523 0.222149 -0.072417
C8    C     C_R   0.687799 0.632961 0.276934 -0.078974
C9    C     C_R   0.977362 0.701720 0.335344 -0.157196
C10   C     C_R   0.967555 0.755004 0.279303 -0.043714
C11   C     C_R   0.810677 0.746983 0.222934 0.165663
C12   C     C_R   0.791987 0.800268 0.167840 -0.216234
C13   C     C_R   0.086223 0.867722 0.221195 -0.301345
C14   C     C_R   0.107054 0.816586 0.277588 0.544334
H1    H     H_    0.672614 0.793397 0.124811 0.133157
H2    H     H_    0.192307 0.914715 0.220370 0.200785
H3    H     H_    0.553912 0.678497 0.179384 0.101376
H4    H     H_    0.578538 0.586650 0.275071 0.119060
H5    H     H_    0.087066 0.708592 0.381953 0.190000
H6    H     H_    0.545102 0.657853 0.954836 0.112576
C15   C     C_R   0.099622 0.890030 0.737713 -0.181658
C16   C     C_R   0.193943 0.894788 0.668595 -0.134179
C17   C     C_R   0.179097 0.831454 0.604445 -0.059063
C18   C     C_R   0.067588 0.763556 0.608407 -0.157829
C19   C     C_R   0.975624 0.755405 0.678922 0.111201
C20   C     C_R   0.992529 0.820086 0.745203 0.129620
C21   C     C_R   0.866056 0.685052 0.683702 -0.320239
C22   C     C_R   0.776550 0.679005 0.755577 0.123002
C23   C     C_R   0.794632 0.743486 0.822030 0.118852
C24   C     C_R   0.900522 0.814587 0.816608 -0.320070
C25   C     C_R   0.673867 0.608166 0.763800 -0.172177
C26   C     C_R   0.589674 0.601342 0.834666 -0.114560
C27   C     C_R   0.608337 0.663911 0.899486 -0.111725
C28   C     C_R   0.710783 0.733860 0.893817 -0.156646
H7    H     H_    0.112532 0.941990 0.784822 0.114422
H8    H     H_    0.277894 0.948202 0.664667 0.128390
H9    H     H_    0.253494 0.835061 0.551082 0.191889
H10   H     H_    0.054870 0.718124 0.555240 0.128413
H11   H     H_    0.659253 0.556594 0.716265 0.119188
H12   H     H_    0.511735 0.546651 0.839557 0.125482
H13   H     H_    0.725767 0.779308 0.946936 0.112370
H14   H     H_    0.948674 0.444579 0.162121 0.142085
C29   C     C_R   0.545725 0.232703 0.398212 -0.159262
C30   C     C_R   0.653726 0.163491 0.406018 -0.107870
C31   C     C_R   0.682001 0.102908 0.340707 -0.061856
C32   C     C_R   0.603138 0.111196 0.267019 -0.169156
C33   C     C_R   0.495580 0.181611 0.256490 0.100444
C34   C     C_R   0.465490 0.243591 0.323927 0.132242
C35   C     C_R   0.415158 0.189784 0.181005 -0.290445
C36   C     C_R   0.302044 0.261210 0.173884 -0.036502
C37   C     C_R   0.261597 0.319837 0.243276 0.104041
C38   C     C_R   0.350349 0.313204 0.317306 -0.294166
C39   C     C_R   0.226882 0.277645 0.099651 0.344064
C40   C     C_R   0.093204 0.341073 0.097380 -0.151476
C41   C     C_R   0.046990 0.394199 0.165340 -0.194339
C42   C     C_R   0.135482 0.385997 0.236739 -0.177764
H15   H     H_    0.522721 0.276560 0.451568 0.112089
H16   H     H_    0.713596 0.156355 0.463348 0.122015
H17   H     H_    0.764185 0.048730 0.347238 0.131669
H18   H     H_    0.627226 0.061164 0.219008 0.130969
H19   H     H_    0.033156 0.352808 0.041529 0.169369
H20   H     H_    0.101451 0.432694 0.286289 0.145788
C43   C     C_R   0.387859 0.134188 0.830042 -0.113977
C44   C     C_R   0.380815 0.359980 0.665147 -0.134453
C45   C     C_R   0.606046 0.309074 0.758210 -0.214754
C46   C     C_R   0.559514 0.363767 0.707724 -0.158465
C47   C     C_R   0.247287 0.300397 0.675688 -0.283280
C48   C     C_R   0.294351 0.244432 0.726246 0.218752
C49   C     C_R   0.475535 0.248578 0.767616 0.193181
C50   C     C_R   0.522194 0.193054 0.818566 -0.197935
C51   C     C_R   0.209657 0.129889 0.787126 -0.113835
C52   C     C_R   0.163766 0.183983 0.735884 -0.211066
H21   H     H_    0.658875 0.197942 0.851597 0.161457
H22   H     H_    0.101766 0.085860 0.794867 0.120728
H23   H     H_    0.745275 0.313696 0.789304 0.140174
H24   H     H_    0.024414 0.179372 0.704897 0.123018
H25   H     H_    0.666590 0.408572 0.701043 0.133871
H26   H     H_    0.110241 0.295924 0.642936 0.137808
O11   O     O_R   0.265840 0.084300 0.086750 -0.594601
O12   O     O_R   0.589750 0.070740 0.921690 -0.587605
O13   O     O_R   0.755020 0.915730 0.913400 -0.604018
C53   C     C_R   0.417017 0.083506 0.892780 1.033250
O14   O     O_R   0.595830 0.093740 0.086480 -0.573580
O15   O     O_R   0.761150 0.938890 0.079360 -0.601914
C54   C     C_R   0.427068 0.118760 0.113505 1.025964
O16   O     O_R   0.259710 0.061140 0.920790 -0.581845
O17   O     O_3   0.425260 0.949200 0.997610 -0.290587
V3    V     V_3+5 0.702060 0.009430 0.000450 1.197147
O18   O     O_R   0.090530 0.929220 0.078150 -0.600468
C55   C     C_R   0.925343 0.912736 0.104412 0.959791
O19   O     O_R   0.084440 0.906220 0.913360 -0.603122
C56   C     C_R   0.914182 0.883215 0.885186 0.930860
V4    V     V_3+5 0.201450 0.990520 0.999290 1.187569
O20   O     O_3   0.928380 0.050800 0.002390 -0.250102
N1    N     N_R   0.301420 0.239133 0.025667 0.205447
O21   O     O_R   0.487069 0.239086 0.016402 -0.447754
O22   O     O_R   0.187007 0.229264 0.963204 -0.430495
S1    S     S_3+6 0.306636 0.835647 0.345488 -0.084667
O23   O     O_2   0.235420 0.883433 0.421624 -0.331430
O24   O     O_2   0.398547 0.757575 0.360533 -0.330912
O25   O     O_3   0.473887 0.890947 0.310206 -0.555006
H27   H     H_    0.579025 0.899072 0.351343 0.374428

loop_
_geom_bond_atom_site_label_1
_geom_bond_atom_site_label_2
_geom_bond_distance
_ccdc_geom_bond_type
C29   C30   1.392054 A    
O18   C55   1.294706 A    
O15   C55   1.300962 A    
C6    C9    1.408467 A    
H6    C27   1.082734 S    
C4    C6    1.491712 S    
O2    C1    1.304313 A    
C7    C8    1.397516 A    
C44   C47   1.404798 A    
C48   C52   1.397724 A    
C32   H18   1.079556 S    
C49   C50   1.412045 A    
C8    H4    1.083445 S    
C45   C46   1.395471 A    
C13   H2    1.082958 S    
C9    H5    1.077941 S    
C19   C20   1.425158 A    
O16   V4    1.997477 S    
C18   C19   1.417409 A    
C44   C46   1.413406 A    
C20   C24   1.420573 A    
O5    C3    1.293082 A    
C53   O16   1.291693 A    
C42   H20   1.077111 S    
V2    O10   2.129451 S    
C30   C31   1.387524 A    
C16   C17   1.386269 A    
C23   C24   1.420342 A    
O11   V4    2.009420 S    
S1    O23   1.501544 D    
C47   H26   1.084114 S    
O8    V2    2.005262 S    
C22   C25   1.416997 A    
O17   V3    2.170514 S    
C17   H9    1.079051 S    
C23   C28   1.417649 A    
C12   H1    1.084366 S    
O1    V2    2.002652 S    
O9    C4    1.296177 A    
O7    V1    2.170454 S    
C14   S1    1.773873 S    
C1    O6    1.294216 A    
C26   H12   1.082833 S    
C40   C41   1.379125 A    
C33   C34   1.428150 A    
C29   C34   1.416972 A    
N1    O22   1.301033 A    
O13   C56   1.293533 A    
C46   H25   1.082305 S    
O18   V4    2.015094 S    
O17   V4    1.688350 S    
C33   C35   1.424127 A    
C5    C12   1.402050 A    
C41   C42   1.382262 A    
C21   C22   1.421706 A    
O4    C2    1.311875 A    
O14   V3    2.003153 S    
H14   C41   1.083140 S    
C32   C33   1.418721 A    
C27   C28   1.392374 A    
C40   H19   1.083004 S    
C31   H17   1.082882 S    
C37   C38   1.417149 A    
C17   C18   1.391134 A    
C7    C11   1.402861 A    
C5    C55   1.489432 S    
C36   C37   1.434469 A    
C51   C52   1.396549 A    
O13   V3    2.001124 S    
C45   C49   1.396911 A    
C11   C12   1.412301 A    
O12   C53   1.310234 A    
C15   C16   1.390834 A    
O19   V4    2.005372 S    
O11   C54   1.294598 A    
S1    O25   1.683574 S    
C29   H15   1.081481 S    
O3    C4    1.300645 A    
C22   C23   1.425646 A    
O6    V2    2.003650 S    
C30   H16   1.082666 S    
O9    V2    2.014898 S    
C25   C26   1.392288 A    
C15   H7    1.077587 S    
C16   H8    1.082873 S    
N1    O21   1.301405 A    
O2    V1    2.003240 S    
C18   H10   1.080033 S    
C26   C27   1.387790 A    
O12   V3    1.972768 S    
O25   H27   0.991554 S    
C37   C42   1.416986 A    
C36   C39   1.433211 A    
O1    C2    1.288614 A    
C35   C54   1.506595 S    
C52   H24   1.083867 S    
C48   C49   1.418290 A    
C24   C56   1.490747 S    
O5    V1    2.001156 S    
O8    C3    1.296957 A    
O14   C54   1.308800 A    
C43   C50   1.404326 A    
C2    C44   1.491693 S    
C50   H21   1.084169 S    
V4    O20   2.129534 S    
C1    C38   1.499137 S    
V3    O20   1.717517 S    
C15   C20   1.417084 A    
C34   C38   1.419761 A    
C5    C13   1.402173 A    
C3    C21   1.491698 S    
C13   C14   1.404436 A    
O4    V1    1.972631 S    
C19   C21   1.420942 A    
O3    V1    1.978812 S    
V1    O10   1.717476 S    
C43   C51   1.412973 A    
C31   C32   1.392425 A    
C25   H11   1.078597 S    
O15   V3    1.978877 S    
C28   H13   1.080677 S    
C6    C8    1.403473 A    
O7    V2    1.688737 S    
C35   C36   1.439102 A    
S1    O24   1.502238 D    
C47   C48   1.413339 A    
C51   H22   1.081790 S    
C45   H23   1.083953 S    
C39   C40   1.402441 A    
C10   C14   1.423318 A    
O19   C56   1.295935 A    
C10   C11   1.423316 A    
C9    C10   1.422653 A    
C39   N1    1.429291 S    
C43   C53   1.492403 S    
C7    H3    1.083759 S    
