data_mof_unit_44768.cif
_audit_creation_date              2012-10-26T21:01:04-0400
_audit_creation_method            fapswitch 2.2
_symmetry_space_group_name_H-M    P1
_symmetry_Int_Tables_number       1
_space_group_crystal_system       triclinic
_cell_length_a                    10.925426
_cell_length_b                    10.863367
_cell_length_c                    9.549601
_cell_angle_alpha                 90.600822
_cell_angle_beta                  90.151494
_cell_angle_gamma                 90.464615
_cell_volume                      1133.30885619

loop_
_atom_site_label
_atom_site_type_symbol
_atom_type_description
_atom_site_fract_x
_atom_site_fract_y
_atom_site_fract_z
_atom_type_partial_charge
C1    C     C_R   0.497272 0.262376 0.498951 0.547431
C2    C     C_R   0.404298 0.452418 0.073501 -0.012411
C3    C     C_R   0.404384 0.452160 0.924801 -0.019711
C4    C     C_R   0.265622 0.503975 0.499743 0.532114
C5    C     C_R   0.601674 0.536691 0.926739 0.139585
C6    C     C_3   0.663385 0.658973 0.918830 -0.267946
C7    C     C_3   0.660062 0.662767 0.078353 -0.051581
C8    C     C_R   0.499174 0.737531 0.500521 0.544278
C9    C     C_R   0.734380 0.494696 0.500523 0.553680
C10   C     C_2   0.933637 0.476795 0.389450 -0.136718
C11   C     C_2   0.865549 0.479853 0.505185 -0.084160
C12   C     C_R   0.499166 0.128887 0.496011 0.002128
C13   C     C_2   0.067045 0.468420 0.396767 -0.140838
C14   C     C_2   0.134120 0.521884 0.499358 0.253822
C15   C     C_R   0.518584 0.065954 0.620678 -0.014437
C16   C     C_3   0.124832 0.713917 0.600569 -0.003461
C17   C     C_3   0.049272 0.793647 0.698928 -0.379735
C18   C     C_3   0.329687 0.122727 0.228297 -0.003396
C19   C     C_3   0.297471 0.122689 0.073387 -0.388450
C20   C     C_R   0.485025 0.060786 0.369769 0.234943
C21   C     C_R   0.491373 0.932767 0.372316 -0.142270
C22   C     C_R   0.502124 0.870712 0.499788 -0.045198
C23   C     C_R   0.518790 0.938782 0.623198 0.007536
C24   C     C_3   0.445147 0.936107 0.755100 -0.268178
C25   C     C_3   0.446505 0.075272 0.752736 -0.269300
C26   C     C_R   0.601462 0.537670 0.074315 0.207165
Cu1   Cu    Cu3+1 0.499990 0.499980 0.640670 0.933144
Cu2   Cu    Cu3+1 0.500010 0.500020 0.359330 0.966339
H1    H     H_    0.891183 0.475264 0.286764 0.153557
H2    H     H_    0.479377 0.882543 0.274593 0.141084
H3    H     H_    0.352311 0.895422 0.739608 0.124195
H4    H     H_    0.496573 0.900039 0.845770 0.133773
H5    H     H_    0.354336 0.115689 0.736818 0.126684
H6    H     H_    0.821480 0.748310 0.128349 0.227793
H7    H     H_    0.837260 0.597601 0.091470 0.219140
H8    H     H_    0.117179 0.752282 0.493047 0.121821
H9    H     H_    0.221853 0.718999 0.635834 0.147234
H10   H     H_    0.056338 0.758927 0.807622 0.153428
H11   H     H_    0.083642 0.890105 0.696737 0.087530
H12   H     H_    0.501080 0.117575 0.839363 0.162651
H13   H     H_    0.951717 0.791764 0.665797 0.162873
H14   H     H_    0.295949 0.209296 0.277249 0.141587
H15   H     H_    0.279680 0.043518 0.276095 0.103413
H16   H     H_    0.323130 0.033205 0.025002 0.150820
H17   H     H_    0.197510 0.136111 0.059855 0.089694
H18   H     H_    0.347140 0.197935 0.019708 0.152050
H19   H     H_    0.325925 0.415482 0.128181 0.113360
H20   H     H_    0.326191 0.414649 0.868884 0.123382
H21   H     H_    0.756484 0.652113 0.872757 0.133662
H22   H     H_    0.604719 0.728850 0.869696 0.135134
H23   H     H_    0.599887 0.735248 0.122933 0.154601
H24   H     H_    0.905942 0.467141 0.607834 0.163262
H25   H     H_    0.111832 0.419755 0.311319 0.082995
N1    N     N_R   0.500780 0.500930 0.147930 -0.237558
N2    N     N_R   0.500780 0.500890 0.852020 -0.237617
N3    N     N_3   0.781616 0.661592 0.142923 -0.617039
O1    O     O_R   0.500000 0.319640 0.618810 -0.510569
O2    O     O_3   0.458490 0.116563 0.243934 -0.534670
O3    O     O_R   0.500010 0.319680 0.381230 -0.455350
O4    O     O_R   0.321940 0.499980 0.618760 -0.499636
O5    O     O_R   0.321950 0.500020 0.381180 -0.546465
O6    O     O_R   0.499990 0.680320 0.618770 -0.503916
O7    O     O_R   0.500000 0.680360 0.381190 -0.507347
O8    O     O_R   0.678050 0.499980 0.618820 -0.505495
O9    O     O_R   0.678060 0.500020 0.381240 -0.466048
O10   O     O_3   0.080260 0.591562 0.604998 -0.578386

loop_
_geom_bond_atom_site_label_1
_geom_bond_atom_site_label_2
_ccdc_geom_bond_type
C8    C22   S    
C23   C24   S    
C24   H4    S    
C24   C25   S    
H6    N3    S    
C6    C7    S    
C4    O5    A    
Cu1   O6    S    
C1    O1    A    
C2    H19   S    
C9    O8    A    
C21   H2    S    
C13   H25   S    
C12   C15   A    
C16   H9    S    
Cu1   O4    S    
Cu2   O5    S    
C12   C20   A    
C15   C23   A    
C2    C3    A    
C14   O10   S    
C24   H3    S    
C7    H23   S    
C6    H21   S    
C13   C14   D    
C19   H16   S    
Cu1   O1    S    
C9    C11   S    
C10   H1    S    
C4    O4    A    
C16   H8    S    
C1    C12   S    
C7    C26   S    
C7    N3    S    
C26   N1    A    
C21   C22   A    
C18   O2    S    
Cu2   O9    S    
C9    O9    A    
C17   H10   S    
C1    O3    A    
C25   H12   S    
C4    C14   S    
C5    C6    S    
Cu1   N2    S    
C19   H18   S    
C17   H13   S    
C15   C25   S    
C10   C11   D    
C8    O7    A    
C20   O2    S    
C5    C26   A    
Cu2   O7    S    
C3    H20   S    
C16   O10   S    
C20   C21   A    
C18   C19   S    
C2    N1    A    
Cu2   O3    S    
C25   H5    S    
Cu1   Cu2   S    
C17   H11   S    
C22   C23   A    
Cu2   N1    S    
C11   H24   S    
C18   H14   S    
H7    N3    S    
C18   H15   S    
C3    N2    A    
Cu1   O8    S    
C5    N2    A    
C6    H22   S    
C19   H17   S    
C8    O6    A    
C16   C17   S    
C10   C13   S    
