data_mof_unit_8085.cif
_audit_creation_date              2012-12-10T17:55:54-0500
_audit_creation_method            fapswitch 2.2
_symmetry_space_group_name_H-M    P1
_symmetry_Int_Tables_number       1
_space_group_crystal_system       triclinic
_cell_length_a                    11.098607
_cell_length_b                    10.810694
_cell_length_c                    9.519281
_cell_angle_alpha                 89.446941
_cell_angle_beta                  102.65207
_cell_angle_gamma                 90.289837
_cell_volume                      1114.36727831

loop_
_atom_site_label
_atom_site_type_symbol
_atom_type_description
_atom_site_fract_x
_atom_site_fract_y
_atom_site_fract_z
_atom_type_partial_charge
C1    C     C_R   0.497355 0.262286 0.500130 0.812764
C2    C     C_2   0.870261 0.509047 0.589299 -0.347661
C3    C     C_2   0.063221 0.524990 0.506085 0.145144
C4    C     C_2   0.936779 0.475010 0.493915 0.145144
C5    C     C_R   0.570089 0.068308 0.421372 -0.193766
C6    C     C_R   0.429909 0.931692 0.578627 -0.193767
C7    C     C_R   0.574799 0.939889 0.418996 0.165084
C8    C     C_R   0.425197 0.060111 0.581001 0.165084
C9    C     C_R   0.503197 0.871609 0.498312 -0.072810
C10   C     C_R   0.496801 0.128391 0.501688 -0.072809
C11   C     C_3   0.658910 0.878902 0.335574 -0.810700
C12   C     C_R   0.502645 0.737714 0.499870 0.812766
C13   C     C_3   0.341079 0.121099 0.664414 -0.810694
C14   C     C_R   0.263146 0.502935 0.441973 0.876084
C15   C     C_R   0.736854 0.497065 0.558027 0.876085
C16   C     C_R   0.413125 0.434707 0.052910 0.003798
C17   C     C_R   0.586874 0.565293 0.947090 0.003799
C18   C     C_R   0.413070 0.434860 0.904120 0.005772
C19   C     C_R   0.586930 0.565140 0.095880 0.005770
C20   C     C_2   0.129739 0.490952 0.410701 -0.347660
Cu1   Cu    Cu3+1 0.500000 0.500020 0.640660 0.973480
Cu2   Cu    Cu3+1 0.500000 0.499980 0.359340 0.973478
H1    H     H_    0.343681 0.382134 0.091721 0.127748
H2    H     H_    0.603024 0.831245 0.240422 0.238544
H3    H     H_    0.718858 0.947395 0.295803 0.236076
H4    H     H_    0.279965 0.188689 0.594596 0.227656
H5    H     H_    0.281120 0.052608 0.704171 0.236076
H6    H     H_    0.396959 0.168751 0.759573 0.238540
H7    H     H_    0.656319 0.617866 0.908279 0.127749
H8    H     H_    0.910652 0.560267 0.685301 0.166765
H9    H     H_    0.089349 0.439732 0.314700 0.166764
H10   H     H_    0.343273 0.382789 0.830933 0.131515
H11   H     H_    0.656727 0.617211 0.169067 0.131516
H12   H     H_    0.625218 0.122224 0.361885 0.180307
H13   H     H_    0.374781 0.877777 0.638114 0.180308
H14   H     H_    0.720031 0.811316 0.405389 0.227659
I1    I     I_    0.866192 0.334604 0.336428 -0.403286
I2    I     I_    0.133807 0.665396 0.663570 -0.403286
N1    N     N_R   0.500030 0.500030 0.852080 -0.162155
N2    N     N_R   0.499970 0.499970 0.147920 -0.162155
O1    O     O_R   0.499990 0.319660 0.618740 -0.579098
O2    O     O_R   0.500010 0.680340 0.381260 -0.579100
O3    O     O_R   0.499990 0.319630 0.381170 -0.579821
O4    O     O_R   0.500010 0.680370 0.618830 -0.579820
O5    O     O_R   0.320690 0.500020 0.575130 -0.555214
O6    O     O_R   0.679310 0.499980 0.424870 -0.555214
O7    O     O_R   0.320680 0.499990 0.337560 -0.586229
O8    O     O_R   0.679320 0.500010 0.662440 -0.586229

loop_
_geom_bond_atom_site_label_1
_geom_bond_atom_site_label_2
_ccdc_geom_bond_type
C2    C4    D    
C18   N1    A    
C5    C7    A    
C13   H6    S    
C8    C13   S    
C14   O5    A    
Cu1   O4    S    
C17   H7    S    
Cu2   O3    S    
Cu1   N1    S    
C2    H8    S    
Cu1   O8    S    
Cu2   N2    S    
C5    H12   S    
C6    C9    A    
Cu2   O7    S    
C3    C20   D    
C12   O4    A    
Cu1   Cu2   S    
C6    H13   S    
C7    C11   S    
C2    C15   S    
Cu2   O2    S    
C15   O8    A    
C16   N2    A    
Cu1   O1    S    
C6    C8    A    
C16   C18   A    
C11   H14   S    
C17   C19   A    
C16   H1    S    
Cu1   O5    S    
C19   H11   S    
C9    C12   S    
C13   H4    S    
C18   H10   S    
C19   N2    A    
C11   H3    S    
C3    C4    S    
C14   C20   S    
C11   H2    S    
C5    C10   A    
C4    I1    S    
C8    C10   A    
C17   N1    A    
C1    O1    A    
C7    C9    A    
C13   H5    S    
C12   O2    A    
C15   O6    A    
Cu2   O6    S    
C14   O7    A    
C1    O3    A    
C1    C10   S    
C3    I2    S    
C20   H9    S    
