data_mof_unit_19028.cif
_audit_creation_date              2012-12-11T14:50:31-0500
_audit_creation_method            fapswitch 2.2
_symmetry_space_group_name_H-M    P1
_symmetry_Int_Tables_number       1
_space_group_crystal_system       triclinic
_cell_length_a                    11.011657
_cell_length_b                    11.138194
_cell_length_c                    18.779335
_cell_angle_alpha                 89.501174
_cell_angle_beta                  89.017714
_cell_angle_gamma                 59.752055
_cell_volume                      1989.40849337

loop_
_atom_site_label
_atom_site_type_symbol
_atom_type_description
_atom_site_fract_x
_atom_site_fract_y
_atom_site_fract_z
_atom_type_partial_charge
C1    C     C_R   0.230550 0.649430 0.607696 0.574853
C2    C     C_3   0.749495 0.512510 0.801779 -0.055756
C3    C     C_3   0.684456 0.670144 0.818204 -0.040445
C4    C     C_3   0.657922 0.640412 0.681417 0.004225
C5    C     C_3   0.759371 0.696503 0.691654 -0.278076
C6    C     C_3   0.707029 0.495786 0.724472 0.261380
C7    C     C_R   0.805387 0.105461 0.699658 0.024042
C8    C     C_R   0.818760 0.095549 0.774747 -0.115536
C9    C     C_R   0.698694 0.136375 0.818697 0.016166
C10   C     C_R   0.570370 0.179086 0.786739 -0.123314
C11   C     C_R   0.563117 0.165368 0.714387 0.216728
C12   C     C_R   0.649074 0.616775 0.603820 0.625883
C13   C     C_R   0.673093 0.150189 0.669997 0.055865
C14   C     C_R   0.132366 0.591456 0.715306 -0.181837
C15   C     C_R   0.131852 0.588049 0.789688 -0.177195
C16   C     C_R   0.149201 0.686212 0.828422 0.043028
C17   C     C_R   0.169097 0.783706 0.791688 -0.150866
C18   C     C_R   0.180671 0.777808 0.719009 -0.132580
C19   C     C_R   0.171370 0.676964 0.680080 0.051986
C20   C     C_R   0.691771 0.505402 0.262792 -0.108553
C21   C     C_R   0.695767 0.527359 0.189765 0.269193
C22   C     C_R   0.640554 0.664542 0.164138 0.007498
C23   C     C_R   0.631979 0.219359 0.599814 0.653225
C24   C     C_R   0.561314 0.776504 0.210109 -0.173095
C25   C     C_R   0.551697 0.752753 0.282241 -0.082341
C26   C     C_R   0.621750 0.617408 0.309617 -0.017268
C27   C     C_R   0.561846 0.122977 0.294398 0.053364
C28   C     C_R   0.558786 0.124140 0.220640 -0.145526
C29   C     C_R   0.660723 0.135346 0.180910 -0.004896
C30   C     C_R   0.767460 0.144920 0.215560 -0.126975
C31   C     C_R   0.765835 0.153731 0.288867 -0.183530
C32   C     C_R   0.658086 0.152785 0.328447 0.020985
C33   C     C_R   0.219990 0.747688 0.280756 0.257760
C34   C     C_R   0.229576 0.647138 0.399207 0.544808
C35   C     C_R   0.217347 0.736028 0.208368 -0.108074
C36   C     C_R   0.159513 0.661805 0.179534 -0.026515
C37   C     C_R   0.129606 0.576189 0.222551 -0.142941
C38   C     C_R   0.148447 0.573833 0.295489 -0.166526
C39   C     C_R   0.190093 0.662202 0.325261 0.028053
C40   C     C_R   0.705960 0.095218 0.893926 0.551834
C41   C     C_R   0.717185 0.685776 0.891803 0.585878
C42   C     C_R   0.109461 0.711487 0.903342 0.559939
C43   C     C_R   0.677135 0.099628 0.106047 0.524420
C44   C     C_R   0.693254 0.689517 0.096680 0.551338
C45   C     C_R   0.616483 0.590664 0.386006 0.556402
C46   C     C_R   0.095173 0.707345 0.111203 0.546685
C47   C     C_R   0.620485 0.223530 0.397025 0.559405
C48   C     C_3   0.523272 0.749958 0.798728 -0.169832
C49   C     C_3   0.509492 0.755947 0.714985 -0.178101
C50   C     C_3   0.763990 0.725414 0.770765 -0.286367
Cr1   Cr    Cr6+3 0.392930 0.397900 0.502230 1.075134
Cr2   Cr    Cr6+3 0.398240 0.708600 0.501260 1.086589
Cr3   Cr    Cr6+3 0.708800 0.393470 0.496460 1.072740
Cr4   Cr    Cr6+3 0.937620 0.938540 0.007640 1.068988
Cr5   Cr    Cr6+3 0.625150 0.937450 0.994520 1.088028
Cr6   Cr    Cr6+3 0.937990 0.625080 0.001190 1.058691
H1    H     H_    0.874583 0.675133 0.786342 0.139372
H2    H     H_    0.863977 0.628790 0.667996 0.123072
H3    H     H_    0.921252 0.052871 0.798381 0.169684
H4    H     H_    0.477140 0.208443 0.818880 0.173966
H5    H     H_    0.110889 0.522656 0.685189 0.082827
H6    H     H_    0.109106 0.514847 0.816383 0.135263
H7    H     H_    0.171975 0.867393 0.818476 0.176937
H8    H     H_    0.483428 0.681617 0.817351 0.193972
H9    H     H_    0.206028 0.847767 0.693049 0.192307
H10   H     H_    0.743609 0.400921 0.283110 0.134786
H11   H     H_    0.514883 0.882373 0.191331 0.148035
H12   H     H_    0.492893 0.840333 0.316988 0.213374
H13   H     H_    0.481540 0.107849 0.194295 0.161165
H14   H     H_    0.852112 0.146267 0.186037 0.177652
H15   H     H_    0.842869 0.171546 0.314138 0.116138
H16   H     H_    0.433699 0.722936 0.702996 0.110891
H17   H     H_    0.244499 0.799629 0.175251 0.156642
H18   H     H_    0.084820 0.517660 0.200607 0.167160
H19   H     H_    0.127549 0.505984 0.328646 0.161707
H20   H     H_    0.722167 0.837920 0.779252 0.130519
H21   H     H_    0.727365 0.793746 0.661947 0.187262
H22   H     H_    0.863483 0.473037 0.803929 0.110650
O1    O     O_R   0.507430 0.255570 0.581420 -0.454775
O2    O     O_R   0.524460 0.695920 0.424060 -0.479848
O3    O     O_R   0.736530 0.504260 0.414810 -0.519359
O4    O     O_R   0.691460 0.277160 0.422180 -0.543010
O5    O     O_3   0.499990 0.499990 0.499980 -0.289524
O6    O     O_R   0.089490 0.825610 0.930610 -0.487400
O7    O     O_R   0.818370 0.054540 0.929880 -0.479285
O8    O     O_R   0.605870 0.077310 0.915530 -0.501173
O9    O     O_R   0.646440 0.806700 0.917570 -0.465364
O10   O     O_R   0.837200 0.593290 0.915250 -0.525789
O11   O     O_R   0.065330 0.635370 0.931590 -0.517304
O12   O     O_R   0.280190 0.527390 0.578910 -0.500176
O13   O     O_R   0.068300 0.828790 0.091860 -0.517907
O14   O     O_R   0.798730 0.057480 0.079370 -0.510428
O15   O     O_R   0.584680 0.080480 0.076790 -0.519885
O16   O     O_R   0.626790 0.809640 0.067050 -0.507876
O17   O     O_R   0.816010 0.596460 0.076500 -0.461842
O18   O     O_R   0.045680 0.638310 0.081070 -0.501870
O19   O     O_3   0.833590 0.833690 0.001120 -0.290955
O20   O     O_R   0.260310 0.739740 0.584580 -0.520711
O21   O     O_R   0.532250 0.695150 0.573830 -0.463344
O22   O     O_R   0.744930 0.503430 0.576380 -0.467470
O23   O     O_R   0.699250 0.276390 0.571950 -0.437880
O24   O     O_R   0.499020 0.256400 0.419850 -0.476322
O25   O     O_R   0.272400 0.528160 0.429140 -0.520534
O26   O     O_R   0.251910 0.740570 0.423020 -0.483317
C51   C     C_2   0.427458 0.882994 0.840177 0.570709
O27   O     O_2   0.349742 0.881804 0.887030 -0.469836
O28   O     O_R   0.431450 0.004458 0.829807 -0.639336
H23   H     H_    0.503022 0.991384 0.792366 0.323287
O29   O     O_3   0.815936 0.374504 0.689216 -0.534063
C52   C     C_3   0.956648 0.344457 0.695164 -0.046759
H24   H     H_    0.008987 0.267739 0.738480 0.189000
H25   H     H_    0.970797 0.432441 0.705938 0.030894
H26   H     H_    0.012951 0.299085 0.644177 0.190459
C53   C     C_2   0.928774 0.058670 0.651821 0.587301
O30   O     O_2   0.027759 0.070312 0.669918 -0.548778
O31   O     O_R   0.931764 0.001467 0.585325 -0.707116
H27   H     H_    0.019834 0.977476 0.556556 0.347727
O32   O     O_3   0.455054 0.152383 0.686481 -0.494191
C54   C     C_3   0.325896 0.272925 0.699002 -0.044965
H28   H     H_    0.337803 0.364896 0.691400 0.142928
H29   H     H_    0.283271 0.271159 0.752758 0.125740
H30   H     H_    0.250491 0.278022 0.659068 0.160778
O33   O     O_3   0.766616 0.413230 0.145499 -0.559273
C55   C     C_3   0.669937 0.411264 0.097764 -0.099240
H31   H     H_    0.622783 0.503387 0.062181 0.136481
H32   H     H_    0.584956 0.403942 0.126809 0.106762
H33   H     H_    0.727022 0.318956 0.062968 0.164598
C56   C     C_2   0.462862 0.091642 0.333922 0.567864
O34   O     O_2   0.347531 0.126492 0.309388 -0.563584
O35   O     O_R   0.502568 0.020327 0.398840 -0.665572
H34   H     H_    0.425889 0.006424 0.420974 0.344699
O36   O     O_3   0.258580 0.838952 0.307001 -0.558094
C57   C     C_3   0.137108 0.971205 0.313128 -0.087063
H35   H     H_    0.055481 0.967826 0.347514 0.120615
H36   H     H_    0.094254 0.014668 0.259789 0.119621
H37   H     H_    0.165610 0.042442 0.339026 0.182683
C58   C     C_2   0.441032 0.900699 0.679801 0.614619
O37   O     O_2   0.497434 0.922270 0.628774 -0.423962
O38   O     O_R   0.307114 0.008234 0.699594 -0.634110
H38   H     H_    0.261547 0.986740 0.740823 0.312486
C59   C     C_2   0.733157 0.425697 0.860239 0.628427
O39   O     O_2   0.825972 0.304958 0.868193 -0.519629
O40   O     O_R   0.618462 0.485021 0.907748 -0.674520
H39   H     H_    0.618720 0.414432 0.942226 0.325282
C60   C     C_2   0.580130 0.472222 0.724575 0.553485
O41   O     O_2   0.527923 0.472003 0.667897 -0.526717
O42   O     O_R   0.514890 0.462006 0.786788 -0.715066
H40   H     H_    0.425185 0.460997 0.777583 0.326431

loop_
_geom_bond_atom_site_label_1
_geom_bond_atom_site_label_2
_ccdc_geom_bond_type
C8    C9    A    
Cr6   O17   S    
C37   H18   S    
C1    O12   A    
C49   C58   S    
C35   C36   A    
Cr5   O15   S    
C56   O34   D    
Cr4   O6    S    
C53   O30   D    
C7    C8    A    
C23   O23   A    
Cr1   O24   S    
C51   O28   S    
C33   C39   A    
C5    H2    S    
C7    C53   S    
C20   H10   S    
C28   C29   A    
C59   O40   S    
Cr1   O12   S    
C38   C39   A    
Cr6   O10   S    
Cr1   O25   S    
C15   C16   A    
C44   O16   A    
C3    C48   S    
O31   H27   S    
C13   C23   S    
Cr3   O3    S    
C18   C19   A    
C47   O4    A    
C40   O8    A    
C52   H24   S    
C12   O21   A    
C26   C45   S    
C60   O42   S    
O32   C54   S    
C22   C44   S    
O42   H40   S    
Cr3   O23   S    
O36   C57   S    
C49   H16   S    
C57   H37   S    
O28   H23   S    
Cr4   O19   S    
C36   C46   S    
C4    C12   S    
C29   C30   A    
C35   H17   S    
C9    C10   A    
C24   H11   S    
C31   H15   S    
Cr1   O5    S    
C47   O24   A    
C21   C22   A    
C29   C43   S    
C2    C6    S    
C25   H12   S    
Cr6   O19   S    
Cr5   O16   S    
C43   O15   A    
C30   H14   S    
C3    C50   S    
C60   O41   D    
Cr1   O1    S    
C38   H19   S    
C54   H29   S    
Cr3   O22   S    
C41   O9    A    
C1    C19   S    
C34   C39   S    
O33   C55   S    
C42   O6    A    
C24   C25   A    
C4    C6    S    
C6    C60   S    
C16   C17   A    
C46   O13   A    
C25   C26   A    
C14   H5    S    
C9    C40   S    
C34   O26   A    
Cr3   O4    S    
C18   H9    S    
C40   O7    A    
C21   O33   S    
Cr2   O5    S    
C10   H4    S    
Cr4   O14   S    
C37   C38   A    
C2    H22   S    
C50   H20   S    
C58   O38   S    
C27   C56   S    
C48   C51   S    
O38   H38   S    
Cr5   O19   S    
C28   H13   S    
C17   C18   A    
C52   H26   S    
C55   H33   S    
C33   O36   S    
C48   C49   S    
C57   H35   S    
C32   C47   S    
C22   C24   A    
C5    C50   S    
C5    H21   S    
C16   C42   S    
C55   H32   S    
C51   O27   D    
C54   H30   S    
Cr6   O18   S    
C41   O10   A    
Cr6   O11   S    
C3    C41   S    
C27   C32   A    
C50   H1    S    
C14   C19   A    
C31   C32   A    
C45   O3    A    
C34   O25   A    
C4    C5    S    
C56   O35   S    
C1    O20   A    
Cr4   O7    S    
C53   O31   S    
C54   H28   S    
C6    O29   S    
C58   O37   D    
Cr2   O21   S    
C43   O14   A    
C4    C49   S    
Cr3   O5    S    
C42   O11   A    
Cr5   O8    S    
C2    C3    S    
Cr4   O13   S    
C8    H3    S    
C44   O17   A    
Cr2   O2    S    
C59   O39   D    
C17   H7    S    
C11   C13   A    
C30   C31   A    
C20   C26   A    
Cr2   O20   S    
C33   C35   A    
C15   H6    S    
Cr2   O26   S    
O35   H34   S    
C45   O2    A    
Cr5   O9    S    
C52   H25   S    
C12   O22   A    
C48   H8    S    
C10   C11   A    
C7    C13   A    
C46   O18   A    
C20   C21   A    
C36   C37   A    
C27   C28   A    
C57   H36   S    
C2    C59   S    
C14   C15   A    
C23   O1    A    
O29   C52   S    
C11   O32   S    
O40   H39   S    
C55   H31   S    
