data_mof_unit_22259.cif
_audit_creation_date              2012-12-11T14:36:20-0500
_audit_creation_method            fapswitch 2.2
_symmetry_space_group_name_H-M    P1
_symmetry_Int_Tables_number       1
_space_group_crystal_system       triclinic
_cell_length_a                    13.495226
_cell_length_b                    13.480389
_cell_length_c                    27.51185
_cell_angle_alpha                 90.588696
_cell_angle_beta                  90.25069
_cell_angle_gamma                 60.127341
_cell_volume                      4339.76062914

loop_
_atom_site_label
_atom_site_type_symbol
_atom_type_description
_atom_site_fract_x
_atom_site_fract_y
_atom_site_fract_z
_atom_type_partial_charge
C1    C     C_R   0.620159 0.101130 0.570314 0.541861
C2    C     C_1   0.658149 0.692598 0.656358 -0.061470
C3    C     C_3   0.050481 0.048746 0.714348 -0.409876
C4    C     C_3   0.388940 0.051014 0.738437 -0.417470
C5    C     C_3   0.103242 0.113878 0.737951 0.019352
C6    C     C_R   0.600254 0.778613 0.568512 0.544670
C7    C     C_3   0.198026 0.064109 0.777022 -0.079294
C8    C     C_1   0.090618 0.205333 0.900741 -0.014380
C9    C     C_1   0.225410 0.140309 0.616571 -0.019915
C10   C     C_3   0.037427 0.226978 0.767125 -0.094413
C11   C     C_3   0.133805 0.177821 0.805425 0.032162
C12   C     C_3   0.103254 0.276084 0.739180 -0.119514
C13   C     C_3   0.167550 0.162740 0.710374 0.070345
C14   C     C_1   0.635607 0.725414 0.615072 -0.018418
C15   C     C_3   0.198809 0.227487 0.778354 -0.094348
C16   C     C_3   0.261715 0.114533 0.749183 0.022416
C17   C     C_1   0.114088 0.189091 0.858087 -0.060592
C18   C     C_R   0.277203 0.122075 0.569473 0.544559
C19   C     C_1   0.193695 0.152132 0.658201 -0.056324
C20   C     C_3   0.728849 0.203759 0.738795 -0.104174
C21   C     C_3   0.628302 0.286928 0.771895 -0.101631
C22   C     C_1   0.690752 0.209099 0.902891 -0.016539
C23   C     C_1   0.635222 0.133211 0.618525 -0.018283
C24   C     C_3   0.761217 0.106569 0.775820 -0.097794
C25   C     C_3   0.724942 0.540250 0.765333 -0.111813
C26   C     C_3   0.660639 0.189387 0.808141 0.053510
C27   C     C_3   0.681161 0.071820 0.749706 -0.100841
C28   C     C_3   0.648969 0.169192 0.713337 0.052080
C29   C     C_3   0.580701 0.154931 0.782789 -0.105967
C30   C     C_R   0.623423 0.102447 0.432652 0.545827
C31   C     C_3   0.548117 0.252128 0.745619 -0.101779
C32   C     C_1   0.673036 0.199283 0.860633 -0.059558
C33   C     C_1   0.642846 0.152898 0.660823 -0.062176
C34   C     C_R   0.736526 0.701931 0.360611 -0.132424
C35   C     C_R   0.749205 0.681358 0.310519 0.018983
C36   C     C_3   0.690855 0.636991 0.803248 0.062054
C37   C     C_R   0.763791 0.657321 0.208992 0.016296
C38   C     C_R   0.851912 0.659206 0.235452 -0.126308
C39   C     C_R   0.844006 0.672619 0.285908 -0.125866
C40   C     C_R   0.773627 0.638194 0.158835 -0.134824
C41   C     C_R   0.685706 0.634233 0.133263 -0.009239
C42   C     C_R   0.602302 0.774968 0.430745 0.547446
C43   C     C_R   0.560025 0.694996 0.358606 -0.129672
C44   C     C_R   0.567924 0.681321 0.308620 -0.002443
C45   C     C_R   0.661692 0.676297 0.284187 0.057136
C46   C     C_R   0.479296 0.679970 0.282800 -0.106011
C47   C     C_3   0.612876 0.616992 0.737111 -0.089556
C48   C     C_R   0.480772 0.676319 0.232126 0.012707
C49   C     C_R   0.575146 0.670832 0.207235 0.026375
C50   C     C_R   0.666697 0.668491 0.233450 0.048443
C51   C     C_R   0.583300 0.661411 0.156867 -0.125953
C52   C     C_R   0.638440 0.715212 0.384078 -0.002910
C53   C     C_R   0.214574 0.055798 0.358454 -0.139379
C54   C     C_R   0.277096 0.120994 0.431305 0.547504
C55   C     C_R   0.187372 0.070038 0.309012 0.013746
C56   C     C_R   0.147708 0.095900 0.208368 0.014922
C57   C     C_R   0.171183 0.993680 0.230964 -0.134969
C58   C     C_3   0.675577 0.666336 0.708274 0.042504
C59   C     C_R   0.191830 0.980407 0.280945 -0.130436
C60   C     C_R   0.123736 0.111676 0.158621 -0.140106
C61   C     C_R   0.099556 0.215177 0.136917 -0.002345
C62   C     C_R   0.178526 0.251312 0.363776 -0.132330
C63   C     C_R   0.155219 0.265489 0.314446 0.013403
C64   C     C_R   0.161467 0.174001 0.286674 0.064824
C65   C     C_R   0.132714 0.367408 0.292047 -0.130499
C66   C     C_3   0.787715 0.589697 0.735474 -0.105614
C67   C     C_R   0.118641 0.378034 0.241982 -0.128153
C68   C     C_R   0.124165 0.287933 0.214102 0.012332
C69   C     C_3   0.580662 0.712361 0.775383 0.033216
C70   C     C_R   0.144485 0.185823 0.236359 0.065042
C71   C     C_R   0.105457 0.300319 0.164464 -0.128304
C72   C     C_R   0.215755 0.144575 0.385196 -0.006092
C73   C     C_R   0.552917 0.233381 0.363059 -0.146469
C74   C     C_R   0.564627 0.255544 0.314848 0.005378
C75   C     C_R   0.583740 0.281737 0.214759 0.019118
C76   C     C_R   0.479478 0.349752 0.238626 -0.124898
C77   C     C_R   0.469568 0.335644 0.288258 -0.125061
C78   C     C_3   0.753927 0.685826 0.774276 -0.110977
C79   C     C_R   0.594491 0.292247 0.164582 -0.137614
C80   C     C_3   0.641916 0.762796 0.746159 -0.091185
C81   C     C_R   0.698705 0.219879 0.141390 -0.000208
C82   C     C_R   0.757963 0.099332 0.368989 -0.007593
C83   C     C_R   0.768813 0.112698 0.318921 0.033132
C84   C     C_R   0.671236 0.190567 0.291946 0.049223
C85   C     C_R   0.873391 0.046175 0.294572 -0.124253
C86   C     C_R   0.880062 0.053793 0.244622 -0.132312
C87   C     C_R   0.783988 0.130719 0.218247 0.007692
C88   C     C_R   0.679706 0.201568 0.241694 0.062889
C89   C     C_R   0.791766 0.138077 0.168585 -0.122686
C90   C     C_1   0.700778 0.600622 0.898752 -0.016695
C91   C     C_1   0.695855 0.620805 0.855980 -0.056971
C92   C     C_R   0.646943 0.149223 0.389012 0.007098
C93   C     C_R   0.048035 0.236969 0.949450 0.545920
C94   C     C_R   0.712127 0.561700 0.947802 0.544394
C95   C     C_R   0.722079 0.225691 0.950884 0.546618
C96   C     C_R   0.047161 0.245893 0.088810 0.546852
C97   C     C_R   0.707881 0.574984 0.086414 0.546065
C98   C     C_R   0.722107 0.235704 0.090963 0.547095
C99   C     C_3   0.383015 0.674878 0.205857 -0.412581
C100  C     C_3   0.462317 0.780929 0.797415 -0.413925
C101  C     C_3   0.863188 0.033577 0.400372 -0.383809
Cr1   Cr    Cr6+3 0.417550 0.169090 0.500530 1.017118
Cr2   Cr    Cr6+3 0.669180 0.913420 0.499920 1.016562
Cr3   Cr    Cr6+3 0.413260 0.917540 0.499520 1.017215
Cr4   Cr    Cr6+3 0.909170 0.177380 0.020380 1.018495
Cr5   Cr    Cr6+3 0.912710 0.429210 0.018220 1.020573
Cr6   Cr    Cr6+3 0.657170 0.432570 0.019030 1.020811
H1    H     H_    0.064650 0.362760 0.723261 0.099557
H2    H     H_    0.911787 0.676304 0.305641 0.098933
H3    H     H_    0.514341 0.662882 0.136132 0.138654
H4    H     H_    0.407504 0.684256 0.302261 0.096491
H5    H     H_    0.485440 0.702346 0.376777 0.128385
H6    H     H_    0.119276 0.045837 0.137363 0.113393
H7    H     H_    0.242517 0.973437 0.375070 0.121880
H8    H     H_    0.173361 0.924221 0.209994 0.095576
H9    H     H_    0.211692 0.900067 0.297579 0.097762
H10   H     H_    0.086763 0.380677 0.148106 0.129341
H11   H     H_    0.128648 0.437779 0.313081 0.096570
H12   H     H_    0.944494 0.272214 0.775091 0.100990
H13   H     H_    0.177428 0.320729 0.384518 0.126286
H14   H     H_    0.523086 0.356357 0.143894 0.112425
H15   H     H_    0.468278 0.276099 0.379144 0.132948
H16   H     H_    0.405084 0.411704 0.218741 0.101787
H17   H     H_    0.387145 0.386099 0.305710 0.103239
H18   H     H_    0.873928 0.082791 0.151638 0.135922
H19   H     H_    0.960437 0.998750 0.226475 0.106049
H20   H     H_    0.949592 0.984108 0.313295 0.109427
H21   H     H_    0.554728 0.588832 0.721586 0.103278
H22   H     H_    0.758692 0.448678 0.773820 0.095274
H23   H     H_    0.606220 0.375721 0.781677 0.102882
H24   H     H_    0.233873 0.978652 0.793726 0.099671
H25   H     H_    0.811620 0.714315 0.789994 0.104604
H26   H     H_    0.239477 0.273330 0.795403 0.106305
H27   H     H_    0.520083 0.135666 0.801856 0.102275
H28   H     H_    0.872975 0.539062 0.718242 0.102607
H29   H     H_    0.926472 0.651081 0.217073 0.095663
H30   H     H_    0.316549 0.681162 0.231404 0.113739
H31   H     H_    0.341776 0.748439 0.180743 0.123051
H32   H     H_    0.415339 0.593733 0.184902 0.129288
H33   H     H_    0.609755 0.854017 0.737765 0.096908
H34   H     H_    0.788948 0.224813 0.720386 0.100160
H35   H     H_    0.102840 0.456836 0.225089 0.096104
H36   H     H_    0.399269 0.819505 0.767622 0.125804
H37   H     H_    0.442236 0.723689 0.818720 0.136644
H38   H     H_    0.458487 0.849178 0.821573 0.132859
H39   H     H_    0.844055 0.053652 0.439584 0.150576
H40   H     H_    0.900494 0.940192 0.394097 0.133851
H41   H     H_    0.927717 0.059003 0.391677 0.118104
H42   H     H_    0.010030 0.022529 0.742568 0.123979
H43   H     H_    0.985284 0.103931 0.687413 0.132100
H44   H     H_    0.117989 0.971292 0.695617 0.136836
H45   H     H_    0.460393 0.312019 0.732573 0.104533
H46   H     H_    0.437135 0.021430 0.772975 0.119622
H47   H     H_    0.410009 0.976149 0.714613 0.139263
H48   H     H_    0.412917 0.108580 0.719721 0.139801
H49   H     H_    0.703275 0.982983 0.740020 0.101248
H50   H     H_    0.848351 0.046232 0.789266 0.102808
H51   H     H_    0.852276 0.618820 0.140471 0.119926
H52   H     H_    0.798343 0.715630 0.380463 0.121329
O1    O     O_R   0.301710 0.195650 0.554160 -0.508529
O2    O     O_R   0.635520 0.542770 0.964420 -0.508828
O3    O     O_R   0.665950 0.325030 0.970100 -0.494636
O4    O     O_R   0.522390 0.158990 0.550460 -0.495445
O5    O     O_R   0.816620 0.158530 0.074540 -0.525792
O6    O     O_R   0.004460 0.188870 0.069750 -0.503779
O7    O     O_R   0.025800 0.341780 0.072300 -0.522781
O8    O     O_R   0.807650 0.528950 0.067500 -0.501769
O9    O     O_R   0.633420 0.550490 0.071810 -0.523114
O10   O     O_R   0.664000 0.332180 0.069640 -0.497474
O11   O     O_3   0.826350 0.346390 0.019210 -0.245472
O12   O     O_R   0.658900 0.818120 0.449760 -0.499704
O13   O     O_R   0.694390 0.003530 0.554040 -0.511413
O14   O     O_R   0.657700 0.819660 0.549320 -0.495398
O15   O     O_R   0.501930 0.803280 0.552920 -0.508542
O16   O     O_R   0.318170 0.023580 0.549580 -0.495878
O17   O     O_R   0.303010 0.193990 0.446760 -0.523310
O18   O     O_R   0.523600 0.157450 0.450900 -0.506452
O19   O     O_R   0.695690 0.001860 0.446640 -0.515049
O20   O     O_R   0.503220 0.801620 0.445520 -0.524382
O21   O     O_R   0.319370 0.022040 0.450020 -0.502130
O22   O     O_3   0.499990 0.000010 0.499990 -0.241209
O23   O     O_R   0.818720 0.150820 0.967160 -0.506564
O24   O     O_R   0.006410 0.181720 0.970200 -0.495626
O25   O     O_R   0.027890 0.334070 0.964920 -0.507065
O26   O     O_R   0.809600 0.521790 0.967960 -0.495090

loop_
_geom_bond_atom_site_label_1
_geom_bond_atom_site_label_2
_ccdc_geom_bond_type
C4    H47   S    
C21   C26   S    
C63   C65   A    
C101  H41   S    
C26   C32   S    
C31   H45   S    
C55   C59   A    
C86   H19   S    
C73   C74   A    
C24   C27   S    
C87   C88   A    
C25   H22   S    
C61   C96   S    
C47   H21   S    
C57   H8    S    
C89   H18   S    
C85   C86   A    
C53   H7    S    
C7    C11   S    
C12   C13   S    
C21   C31   S    
C62   C63   A    
C22   C32   T    
Cr5   O7    S    
C40   H51   S    
C24   C26   S    
C37   C40   A    
C38   C39   A    
C93   O25   A    
C78   C80   S    
C43   C52   A    
C57   C59   A    
Cr3   O20   S    
C27   C29   S    
C81   C98   S    
C67   H35   S    
Cr1   O17   S    
C15   C16   S    
Cr2   O14   S    
C82   C92   A    
C56   C57   A    
C34   C35   A    
C22   C95   S    
C54   O17   A    
C78   H25   S    
C47   C69   S    
C10   H12   S    
C100  H38   S    
C98   O10   A    
C11   C15   S    
C58   C66   S    
C101  H40   S    
Cr6   O2    S    
Cr4   O6    S    
Cr1   O4    S    
C49   C51   A    
C74   C77   A    
C65   H11   S    
C94   O26   A    
C99   H31   S    
C38   H29   S    
Cr4   O23   S    
C25   C47   S    
C5    C13   S    
C58   C80   S    
C81   C89   A    
C34   H52   S    
C61   C71   A    
C4    H46   S    
Cr2   O22   S    
C46   H4    S    
Cr2   O12   S    
Cr5   O11   S    
C99   H32   S    
C60   H6    S    
C9    C19   T    
C90   C94   S    
Cr3   O16   S    
C53   C55   A    
C30   O18   A    
C66   C78   S    
C46   C48   A    
C101  H39   S    
C3    H42   S    
C44   C45   A    
Cr4   O11   S    
C13   C19   S    
C67   C68   A    
C20   C24   S    
C76   C77   A    
Cr5   O26   S    
C30   C92   S    
C100  H37   S    
C95   O3    A    
Cr1   O1    S    
C12   H1    S    
C40   C41   A    
C71   H10   S    
C24   H50   S    
C59   H9    S    
Cr3   O15   S    
C20   C28   S    
C23   C33   T    
C80   H33   S    
C66   H28   S    
C60   C61   A    
C4    C16   S    
C35   C39   A    
C75   C76   A    
C37   C38   A    
C6    C14   S    
C79   H14   S    
C9    C18   S    
C83   C84   A    
Cr6   O3    S    
C42   O20   A    
C55   C64   A    
C2    C58   S    
C30   O19   A    
Cr4   O5    S    
C62   C72   A    
Cr4   O24   S    
C94   O2    A    
Cr5   O25   S    
C10   C12   S    
C36   C91   S    
C48   C49   A    
C83   C85   A    
C28   C33   S    
C82   C83   A    
C12   C15   S    
C64   C70   A    
C10   C11   S    
C87   C89   A    
C43   C44   A    
Cr2   O13   S    
C41   C97   S    
C85   H20   S    
C43   H5    S    
Cr3   O22   S    
C35   C45   A    
C34   C52   A    
C36   C69   S    
C5    C7    S    
Cr6   O10   S    
C27   H49   S    
C48   C99   S    
Cr6   O9    S    
C11   C17   S    
C3    H43   S    
C86   C87   A    
C76   H16   S    
C62   H13   S    
C20   H34   S    
C73   H15   S    
C28   C31   S    
C7    C16   S    
C25   C66   S    
C84   C88   A    
C73   C92   A    
C74   C84   A    
C3    H44   S    
C3    C5    S    
C100  H36   S    
C98   O5    A    
C79   C81   A    
C95   O23   A    
C1    C23   S    
C15   H26   S    
C6    O14   A    
C51   H3    S    
C97   O9    A    
C6    O15   A    
C1    O13   A    
C56   C70   A    
C8    C17   T    
C65   C67   A    
Cr2   O19   S    
Cr5   O8    S    
C5    C10   S    
C29   C31   S    
C77   H17   S    
C97   O8    A    
Cr1   O22   S    
C18   O16   A    
C47   C58   S    
C37   C50   A    
C93   O24   A    
C90   C91   T    
Cr3   O21   S    
C45   C50   A    
C68   C71   A    
C82   C101  S    
C54   O21   A    
C29   H27   S    
C96   O7    A    
C2    C14   T    
C21   H23   S    
C18   O1    A    
C42   O12   A    
C25   C36   S    
C63   C64   A    
C69   C100  S    
C56   C60   A    
C75   C88   A    
C39   H2    S    
C4    H48   S    
C54   C72   S    
C20   C21   S    
C1    O4    A    
C26   C29   S    
C68   C70   A    
C49   C50   A    
C8    C93   S    
C13   C16   S    
C27   C28   S    
Cr1   O18   S    
C96   O6    A    
C99   H30   S    
C69   C80   S    
C36   C78   S    
C53   C72   A    
C75   C79   A    
C41   C51   A    
C44   C46   A    
C7    H24   S    
C42   C52   S    
Cr6   O11   S    
