data_mof_unit_44612.cif
_audit_creation_date              2012-10-26T20:58:19-0400
_audit_creation_method            fapswitch 2.2
_symmetry_space_group_name_H-M    P1
_symmetry_Int_Tables_number       1
_space_group_crystal_system       triclinic
_cell_length_a                    10.618542
_cell_length_b                    14.674809
_cell_length_c                    14.747213
_cell_angle_alpha                 64.58639
_cell_angle_beta                  103.244504
_cell_angle_gamma                 102.327003
_cell_volume                      2002.99932833

loop_
_atom_site_label
_atom_site_type_symbol
_atom_type_description
_atom_site_fract_x
_atom_site_fract_y
_atom_site_fract_z
_atom_type_partial_charge
C1    C     C_R   0.483444 0.120218 0.312171 0.534527
C2    C     C_R   0.532318 0.529176 0.934110 0.061080
C3    C     C_R   0.435592 0.493886 0.869390 -0.085079
C4    C     C_R   0.721984 0.485318 0.063637 -0.084189
C5    C     C_R   0.386165 0.391555 0.900405 -0.124227
C6    C     C_R   0.777537 0.586606 0.028215 -0.108533
C7    C     C_R   0.756902 0.310730 0.617642 -0.151385
C8    C     C_R   0.255714 0.708000 0.350698 -0.149726
C9    C     C_R   0.707216 0.217766 0.611521 0.042355
C10   C     C_R   0.299919 0.791691 0.375938 0.047781
C11   C     C_R   0.506818 0.279243 0.519922 0.091558
C12   C     C_R   0.526229 0.880067 0.687316 0.517859
C13   C     C_R   0.490132 0.718980 0.477016 0.088295
C14   C     C_R   0.555321 0.379037 0.515023 0.027108
C15   C     C_R   0.455899 0.635929 0.446420 0.027298
C16   C     C_R   0.259791 0.000711 0.500271 0.551887
C17   C     C_R   0.740344 0.999881 0.499250 0.540808
C18   C     C_R   0.682997 0.392090 0.567759 0.028588
C19   C     C_R   0.332559 0.629174 0.386992 0.023618
C20   C     C_R   0.483022 0.465190 0.462564 0.022283
C21   C     C_R   0.536998 0.557986 0.476153 0.026431
C22   C     C_R   0.672163 0.571199 0.514426 0.006637
C23   C     C_R   0.550352 0.287385 0.169819 0.007571
C24   C     C_R   0.361918 0.465667 0.394988 0.001583
C25   C     C_R   0.740122 0.487476 0.565342 -0.143613
C26   C     C_R   0.288193 0.545779 0.361189 -0.136656
C27   C     C_3   0.020436 0.025359 0.404864 -0.123651
C28   C     C_3   0.980549 0.977452 0.594358 -0.123946
C29   C     C_3   0.965805 0.093874 0.438064 -0.121256
C30   C     C_3   0.034970 0.908804 0.561148 -0.127977
C31   C     C_3   0.877318 0.000116 0.498624 0.042340
C32   C     C_3   0.123462 0.002268 0.500543 0.045357
C33   C     C_3   0.929821 0.931873 0.465352 -0.119531
C34   C     C_R   0.506748 0.713345 0.834113 0.002856
C35   C     C_3   0.071434 0.071080 0.533780 -0.112388
C36   C     C_R   0.477235 0.188661 0.203268 -0.015981
C37   C     C_R   0.572844 0.812116 0.791124 -0.022040
C38   C     C_R   0.363096 0.223115 0.032198 -0.133050
C39   C     C_R   0.763131 0.763548 0.918614 -0.129645
C40   C     C_R   0.389358 0.156514 0.132874 -0.140012
C41   C     C_R   0.698807 0.837570 0.835972 -0.139621
C42   C     C_2   0.753213 0.671670 0.483755 0.190117
C43   C     C_2   0.314796 0.395442 0.342762 0.205630
C44   C     C_2   0.361320 0.699892 0.812071 0.202480
C45   C     C_R   0.527015 0.355168 0.065075 0.044078
C46   C     C_2   0.641503 0.319459 0.246926 0.261577
C47   C     C_R   0.579301 0.634329 0.906840 0.057248
C48   C     C_R   0.425833 0.323009 0.999052 0.036204
C49   C     C_R   0.706333 0.661714 0.952350 0.033022
C50   C     C_R   0.593547 0.456132 0.023821 0.050845
Cu1   Cu    Cu3+1 0.465750 0.918270 0.475680 0.941382
Cu2   Cu    Cu3+1 0.534250 0.081730 0.524320 0.957013
H1    H     H_    0.934289 0.169481 0.387557 0.101255
H2    H     H_    0.960832 0.957661 0.671849 0.104862
H3    H     H_    0.869898 0.876869 0.435223 0.181999
H4    H     H_    0.132265 0.128190 0.561719 0.110523
H5    H     H_    0.311713 0.366956 0.848677 0.104469
H6    H     H_    0.876533 0.606227 0.060640 0.118118
H7    H     H_    0.750219 0.913671 0.803641 0.119615
H8    H     H_    0.334281 0.081114 0.157034 0.132886
H9    H     H_    0.289065 0.197561 0.980931 0.109505
H10   H     H_    0.860927 0.784823 0.951758 0.115832
H11   H     H_    0.400815 0.544374 0.792767 0.119780
H12   H     H_    0.066167 0.833055 0.611522 0.114157
H13   H     H_    0.783358 0.429866 0.119030 0.108436
H14   H     H_    0.842192 0.498269 0.597359 0.097884
H15   H     H_    0.196136 0.544817 0.310697 0.105210
H16   H     H_    0.841576 0.684800 0.533193 0.083957
H17   H     H_    0.211073 0.370167 0.329142 0.083215
H18   H     H_    0.310347 0.749771 0.741070 0.111201
H19   H     H_    0.712441 0.270566 0.300588 0.086782
H20   H     H_    0.575603 0.722972 0.531948 0.124480
H21   H     H_    0.407525 0.258980 0.491119 0.138011
H22   H     H_    0.241422 0.853257 0.346212 0.131319
H23   H     H_    0.767478 0.157032 0.644419 0.123069
H24   H     H_    0.855016 0.320332 0.657210 0.091426
H25   H     H_    0.162360 0.705332 0.302434 0.105470
H26   H     H_    0.039951 0.044969 0.327369 0.115429
N1    N     N_R   0.585750 0.204560 0.560800 -0.238747
N2    N     N_R   0.414250 0.795440 0.439200 -0.234006
O1    O     O_R   0.454850 0.022100 0.338110 -0.502780
O2    O     O_2   0.389703 0.370949 0.308163 -0.433432
O3    O     O_2   0.296601 0.636819 0.875870 -0.495682
O4    O     O_2   0.634595 0.398227 0.253745 -0.431907
O5    O     O_R   0.545150 0.977900 0.661890 -0.497868
O6    O     O_R   0.512700 0.160150 0.379180 -0.461538
O7    O     O_R   0.487300 0.839850 0.620820 -0.519738
O8    O     O_R   0.287930 0.931000 0.479440 -0.516078
O9    O     O_R   0.712070 0.069000 0.520560 -0.523996
O10   O     O_R   0.345780 0.069050 0.520520 -0.510891
O11   O     O_R   0.654220 0.930950 0.479480 -0.490178
O12   O     O_2   0.726210 0.738406 0.399774 -0.506960

loop_
_geom_bond_atom_site_label_1
_geom_bond_atom_site_label_2
_ccdc_geom_bond_type
C33   H3    S    
C30   C32   S    
C16   O10   A    
C40   H8    S    
C30   H12   S    
C27   C29   S    
C34   C37   A    
C6    H6    S    
Cu2   O10   S    
C17   O11   A    
C27   H26   S    
C39   C41   A    
C27   C33   S    
C15   C19   A    
C12   O5    A    
C23   C45   A    
C26   H15   S    
Cu2   O5    S    
C24   C26   A    
C4    H13   S    
C11   C14   A    
C1    O1    A    
C9    N1    A    
C12   C37   S    
C19   C26   A    
C14   C18   A    
Cu1   N2    S    
C2    C50   A    
Cu1   O11   S    
C20   C24   A    
C28   C35   S    
C22   C25   A    
C31   C33   S    
C44   H18   S    
Cu2   N1    S    
Cu1   O1    S    
C38   C48   A    
C12   O7    A    
C38   H9    S    
C44   O3    D    
C35   H4    S    
C13   N2    A    
C43   H17   S    
C23   C46   S    
C21   C22   A    
C42   H16   S    
Cu2   O9    S    
C18   C25   A    
C5    C48   A    
C8    C19   A    
Cu1   Cu2   S    
C32   C35   S    
C14   C20   A    
C36   C40   A    
C34   C44   S    
C41   H7    S    
C47   C49   A    
C11   H21   S    
Cu1   O7    S    
C10   N2    A    
C4    C50   A    
C7    C18   A    
C17   O9    A    
C46   H19   S    
C11   N1    A    
C46   O4    D    
C4    C6    A    
C39   C49   A    
C13   C15   A    
C8    H25   S    
C17   C31   S    
C45   C48   A    
C1    O6    A    
C7    C9    A    
C39   H10   S    
C28   H2    S    
C30   C33   S    
C27   C32   S    
C28   C31   S    
C25   H14   S    
C3    C5    A    
Cu1   O8    S    
C7    H24   S    
C13   H20   S    
C3    H11   S    
C2    C47   A    
C16   C32   S    
C29   C35   S    
C5    H5    S    
Cu2   O6    S    
C2    C3    A    
C29   C31   S    
C38   C40   A    
C10   H22   S    
C22   C42   S    
C29   H1    S    
C45   C50   A    
C28   C30   S    
C42   O12   D    
C6    C49   A    
C37   C41   A    
C24   C43   S    
C15   C21   A    
C20   C21   A    
C8    C10   A    
C23   C36   A    
C16   O8    A    
C43   O2    D    
C34   C47   A    
C9    H23   S    
C1    C36   S    
