data_mof_unit_40430.cif
_audit_creation_date              2013-03-05T15:48:55-0500
_audit_creation_method            fapswitch 2.2
_symmetry_space_group_name_H-M    P1
_symmetry_Int_Tables_number       1
_space_group_crystal_system       triclinic
_cell_length_a                    6.971678
_cell_length_b                    13.696579
_cell_length_c                    20.04273
_cell_angle_alpha                 104.191192
_cell_angle_beta                  89.947004
_cell_angle_gamma                 90.131123
_cell_volume                      1855.43333645

loop_
_atom_site_label
_atom_site_type_symbol
_atom_site_description
_atom_site_fract_x
_atom_site_fract_y
_atom_site_fract_z
_atom_type_partial_charge
O1    O     O_R   0.506780 0.600060 0.449950 -0.602976
O2    O     O_R   0.179840 0.597110 0.589410 -0.554543
O3    O     O_R   0.004570 0.399940 0.550050 -0.594196
C1    C     C_R   0.347162 0.622774 0.615133 1.024038
O4    O     O_R   0.177380 0.612160 0.452890 -0.588579
O5    O     O_R   0.002100 0.415100 0.412560 -0.604689
C2    C     C_R   0.346089 0.637350 0.435632 0.926028
O6    O     O_R   0.509250 0.584900 0.587440 -0.584268
O7    O     O_3   0.337570 0.435330 0.486930 -0.283153
V1    V     V_3+5 0.064650 0.512000 0.502430 1.255491
O8    O     O_R   0.672090 0.402890 0.410590 -0.596433
C3    C     C_R   0.840400 0.382119 0.382758 0.917335
O9    O     O_R   0.674540 0.387840 0.547110 -0.592243
C4    C     C_R   0.844067 0.362131 0.564352 1.004783
V2    V     V_3+5 0.564040 0.488000 0.497570 1.229089
O10   O     O_3   0.840990 0.564670 0.513070 -0.245264
C5    C     C_R   0.024540 0.131410 0.612217 0.381082
H1    H     H_    0.019753 0.185320 0.520328 0.159104
H2    H     H_    0.110105 0.018422 0.699911 0.183611
C6    C     C_R   0.862832 0.283515 0.602234 -0.180979
C7    C     C_R   0.768782 0.304980 0.930682 -0.238495
C8    C     C_R   0.740982 0.380246 0.896812 -0.166791
C9    C     C_R   0.789524 0.365582 0.827333 0.324702
C10   C     C_R   0.854250 0.269540 0.788491 -0.048072
C11   C     C_R   0.899358 0.196185 0.825842 0.062085
C12   C     C_R   0.879327 0.243461 0.714912 0.085366
C13   C     C_R   0.978527 0.153115 0.683098 -0.025968
C14   C     C_R   0.033932 0.086947 0.722664 -0.086789
C15   C     C_R   0.989100 0.106086 0.791938 -0.170753
C16   C     C_R   0.807418 0.302517 0.671366 -0.147641
C17   C     C_R   0.973280 0.198957 0.573465 -0.229579
C18   C     C_R   0.853572 0.214521 0.896728 -0.157697
H3    H     H_    0.712014 0.365028 0.689848 0.159097
H4    H     H_    0.729172 0.318505 0.984498 0.128896
H5    H     H_    0.688264 0.452574 0.925854 0.167980
H6    H     H_    0.030148 0.050158 0.819103 0.150843
C19   C     C_3   0.772091 0.164684 0.249228 -0.049443
C20   C     C_3   0.947079 0.210027 0.293684 -0.061309
H7    H     H_    0.016249 0.175796 0.332244 0.172284
H8    H     H_    0.708180 0.089819 0.246627 0.158302
C21   C     C_3   0.847852 0.313299 0.311484 -0.136159
C22   C     C_3   0.672000 0.268721 0.267814 -0.023863
C23   C     C_3   0.765366 0.295126 0.204258 -0.179087
C24   C     C_3   0.940963 0.340617 0.248717 -0.161844
C25   C     C_3   0.040725 0.236435 0.230173 -0.050959
C26   C     C_3   0.864869 0.191776 0.186599 -0.154414
H9    H     H_    0.520045 0.283053 0.283662 0.149061
H10   H     H_    0.690519 0.329726 0.166927 0.113849
H11   H     H_    0.010909 0.413612 0.248962 0.112043
H12   H     H_    0.192693 0.223293 0.213962 0.143217
C27   C     C_3   0.502287 0.776683 0.709750 -0.175101
C28   C     C_3   0.346122 0.852555 0.745999 -0.295436
H13   H     H_    0.339948 0.932862 0.744685 0.156866
H14   H     H_    0.615712 0.793138 0.675535 0.233310
C29   C     C_3   0.365609 0.813969 0.811997 -0.346697
C30   C     C_3   0.519568 0.739501 0.775886 0.514961
C31   C     C_3   0.367350 0.657937 0.750512 -0.223682
C32   C     C_3   0.210074 0.733676 0.786394 -0.162435
C33   C     C_3   0.193302 0.771193 0.720138 0.525515
C34   C     C_3   0.347634 0.695919 0.684376 -0.343224
H15   H     H_    0.375147 0.577696 0.752123 0.209132
H16   H     H_    0.099453 0.717131 0.821595 0.233426
C35   C     C_R   0.372289 0.888343 0.394230 -0.032527
H17   H     H_    0.357111 0.837461 0.487000 0.173852
H18   H     H_    0.371677 0.965953 0.423059 0.213499
C36   C     C_R   0.355634 0.714067 0.396747 -0.117612
C37   C     C_R   0.339374 0.684132 0.066580 -0.141759
C38   C     C_R   0.330308 0.608062 0.101237 -0.096293
C39   C     C_R   0.339120 0.630963 0.172845 -0.176638
C40   C     C_R   0.358075 0.731891 0.212090 0.107680
C41   C     C_R   0.367723 0.809449 0.176121 0.056242
C42   C     C_R   0.365121 0.758312 0.285623 0.069817
C43   C     C_R   0.379962 0.861684 0.321721 -0.046476
C44   C     C_R   0.397415 0.936804 0.285012 0.334307
C45   C     C_R   0.388067 0.910258 0.213288 -0.360595
C46   C     C_R   0.356379 0.685450 0.324899 -0.211539
C47   C     C_R   0.361147 0.815204 0.431272 -0.103542
C48   C     C_R   0.357919 0.784493 0.103189 -0.137077
H19   H     H_    0.349901 0.605792 0.301626 0.091665
H20   H     H_    0.332044 0.664705 0.010862 0.127271
H21   H     H_    0.329669 0.567638 0.195591 0.104424
H22   H     H_    0.315813 0.530472 0.072359 0.119704
H23   H     H_    0.400448 0.969836 0.186617 0.162428
O11   O     O_R   0.203580 0.914920 0.912610 -0.591207
O12   O     O_R   0.535710 0.887810 0.047120 -0.588597
O13   O     O_R   0.710730 0.084950 0.087430 -0.602054
C49   C     C_R   0.366997 0.861770 0.063960 0.929844
O14   O     O_R   0.533010 0.902850 0.910600 -0.560127
O15   O     O_R   0.708010 0.100090 0.949930 -0.595891
C50   C     C_R   0.366209 0.881716 0.883114 1.012362
O16   O     O_R   0.206300 0.899780 0.050100 -0.592626
O17   O     O_3   0.375170 0.064580 0.013100 -0.294548
V3    V     V_3+5 0.648200 0.988020 0.997570 1.223931
O18   O     O_R   0.038030 0.112330 0.952840 -0.609874
C51   C     C_R   0.868802 0.136492 0.934831 0.943147
O19   O     O_R   0.040730 0.097300 0.089360 -0.599943
C52   C     C_R   0.872226 0.120159 0.116400 0.916239
V4    V     V_3+5 0.148780 0.012220 0.002360 1.187636
O20   O     O_3   0.871930 0.935430 0.986900 -0.243260
N1    N     N_R   0.704586 0.715808 0.800362 0.257579
O21   O     O_R   0.816688 0.656909 0.756551 -0.355974
O22   O     O_R   0.740616 0.733527 0.865867 -0.379125
N2    N     N_R   0.013740 0.798236 0.692692 0.240086
O23   O     O_R   0.909279 0.868331 0.731317 -0.453430
O24   O     O_R   0.973681 0.766656 0.627642 -0.363527
N3    N     N_R   0.428683 0.040611 0.319685 0.217981
O25   O     O_R   0.348668 0.111142 0.296340 -0.485407
O26   O     O_R   0.564972 0.065055 0.365125 -0.427632
N4    N     N_R   0.133116 0.044035 0.579652 0.215970
O27   O     O_R   0.060229 0.954620 0.572948 -0.378764
O28   O     O_R   0.292892 0.054277 0.548458 -0.425921
N5    N     N_R   0.794955 0.453086 0.801009 0.227664
O29   O     O_R   0.953929 0.478299 0.775445 -0.379792
O30   O     O_R   0.654385 0.516966 0.814894 -0.400309

loop_
_geom_bond_atom_site_label_1
_geom_bond_atom_site_label_2
_geom_bond_distance
_ccdc_geom_bond_type
C24   H11   1.110293 S    
C48   C49   1.466329 S    
C29   C30   1.535539 S    
C35   H18   1.078279 S    
C32   H16   1.104751 S    
C49   O16   1.295179 A    
C21   C22   1.542215 S    
C46   H19   1.077161 S    
C42   C46   1.415679 A    
N5    O30   1.299007 A    
O17   V4    1.723801 S    
C6    C16   1.399828 A    
C25   C26   1.541615 S    
C28   H13   1.107622 S    
C8    H5    1.083426 S    
C15   H6    1.082082 S    
C12   C13   1.425606 A    
C19   C20   1.547625 S    
C14   C15   1.383932 A    
C28   C33   1.535571 S    
C10   C12   1.440307 A    
C29   C50   1.498071 S    
N4    O28   1.300909 A    
O5    C3    1.303187 A    
C20   H7    1.108626 S    
N3    O25   1.299196 A    
O18   V4    2.033440 S    
V2    O10   2.181544 S    
C30   C31   1.532919 S    
C27   C30   1.537036 S    
C43   C44   1.408958 A    
C19   C22   1.549188 S    
O13   C52   1.303369 A    
O17   V3    2.160485 S    
C20   C25   1.549383 S    
O12   V3    2.036454 S    
C38   C39   1.393322 A    
O19   V4    1.992791 S    
C9    C10   1.428298 A    
C40   C41   1.423992 A    
O1    V2    2.036618 S    
C23   H10   1.110127 S    
V3    O20   1.710690 S    
C28   C29   1.546277 S    
C1    O6    1.309383 A    
C11   C18   1.417068 A    
C35   C47   1.387426 A    
C33   C34   1.541335 S    
O9    C4    1.304838 A    
O18   C51   1.301105 A    
C37   C48   1.396223 A    
O11   C50   1.308094 A    
N5    O29   1.301581 A    
O12   C49   1.296523 A    
C11   C15   1.402739 A    
C7    C18   1.391693 A    
C44   C45   1.395274 A    
C37   C38   1.387987 A    
C5    C13   1.414939 A    
C4    C6    1.467894 S    
C10   C11   1.428092 A    
C20   C21   1.537259 S    
O4    C2    1.295376 A    
C31   C34   1.544480 S    
C7    H4    1.084302 S    
C35   C43   1.409948 A    
C32   C33   1.541514 S    
C27   C28   1.557747 S    
O15   C51   1.291346 A    
O2    C1    1.288600 A    
C23   C24   1.551527 S    
C3    C21   1.507237 S    
C9    N5    1.423386 S    
O13   V3    2.005680 S    
C38   H22   1.082879 S    
C44   N3    1.437492 S    
C36   C46   1.396637 A    
O19   C52   1.299655 A    
C1    C34   1.499329 S    
N1    O22   1.299930 A    
N2    O24   1.299429 A    
H2    C14   1.078345 S    
O3    C4    1.293057 A    
C26   C52   1.505929 S    
O14   C50   1.288805 A    
C12   C16   1.419897 A    
O6    V2    1.995173 S    
O8    V2    1.992652 S    
O9    V2    2.033582 S    
C5    C17   1.393276 A    
C21   C24   1.540179 S    
C22   C23   1.549338 S    
C30   N1    1.445994 S    
O2    V1    2.011178 S    
N2    O23   1.299672 A    
C24   C25   1.549853 S    
O7    V1    2.160477 S    
C36   C47   1.388872 A    
O14   V3    2.011333 S    
C16   H3    1.076712 S    
O1    C2    1.293572 A    
C37   H20   1.083930 S    
C42   C43   1.426888 A    
C5    N4    1.432271 S    
O5    V1    2.005678 S    
O8    C3    1.300569 A    
C31   H15   1.108832 S    
H1    C17   1.084532 S    
C19   H8    1.106523 S    
C27   H14   1.104690 S    
O11   V4    1.995855 S    
O7    V2    1.725897 S    
C33   N2    1.452663 S    
O4    V1    2.036423 S    
O3    V1    2.038800 S    
V1    O10   1.710662 S    
N4    O27   1.301040 A    
C2    C36   1.455002 S    
C41   C45   1.405858 A    
C45   H23   1.082838 S    
C31   C32   1.559981 S    
N3    O26   1.301921 A    
C25   H12   1.109962 S    
N1    O21   1.298818 A    
C22   H9    1.109723 S    
O16   V4    2.043071 S    
O15   V3    2.038798 S    
C39   C40   1.418918 A    
C23   C26   1.539043 S    
C39   H21   1.076109 S    
C18   C51   1.462029 S    
V4    O20   2.181640 S    
C29   C32   1.538638 S    
C13   C14   1.397848 A    
H17   C47   1.083653 S    
C8    C9    1.398689 A    
C40   C42   1.429689 A    
C27   C34   1.537698 S    
C19   C26   1.535429 S    
C7    C8    1.380371 A    
C41   C48   1.418927 A    
C6    C17   1.393752 A    
