data_mof_unit_54705.cif
_audit_creation_date              2013-03-05T17:00:14-0500
_audit_creation_method            fapswitch 2.2
_symmetry_space_group_name_H-M    P1
_symmetry_Int_Tables_number       1
_space_group_crystal_system       triclinic
_cell_length_a                    10.704731
_cell_length_b                    16.214166
_cell_length_c                    16.557047
_cell_angle_alpha                 86.447386
_cell_angle_beta                  90.326365
_cell_angle_gamma                 91.372422
_cell_volume                      2867.40741629

loop_
_atom_site_label
_atom_site_type_symbol
_atom_site_description
_atom_site_fract_x
_atom_site_fract_y
_atom_site_fract_z
_atom_type_partial_charge
O1    O     O_R   0.494530 0.422540 0.612660 -0.574087
O2    O     O_R   0.504350 0.561840 0.618900 -0.638597
C1    C     C_R   0.498939 0.487573 0.653021 0.959517
O3    O     O_R   0.678320 0.430330 0.496880 -0.601868
O4    O     O_R   0.688140 0.569640 0.503120 -0.644322
C2    C     C_R   0.740702 0.498937 0.496311 0.927816
Zn1   Zn    Zn3+2 0.493440 0.406980 0.495830 1.075287
Zn2   Zn    Zn3+2 0.506560 0.593020 0.504170 1.011553
O5    O     O_R   0.495650 0.438160 0.381100 -0.558400
O6    O     O_R   0.505470 0.577460 0.387340 -0.572561
O7    O     O_R   0.311860 0.430360 0.496880 -0.602454
O8    O     O_R   0.321680 0.569670 0.503120 -0.586848
C3    C     C_R   0.504398 0.511719 0.346750 0.984629
C4    C     C_R   0.261116 0.500295 0.510367 0.920756
H1    H     H_    0.888396 0.629102 0.485919 0.163007
C5    C     C_R   0.889613 0.342023 0.493573 -0.118453
H2    H     H_    0.808262 0.334862 0.455765 0.229761
C6    C     C_R   0.944724 0.269719 0.526493 0.328699
C7    C     C_R   0.054841 0.277450 0.573190 -0.080505
C8    C     C_R   0.114670 0.354855 0.575825 -0.134985
H3    H     H_    0.202277 0.359271 0.608551 0.205569
C9    C     C_R   0.062066 0.426059 0.537456 0.075247
C10   C     C_R   0.940205 0.421206 0.508071 0.036505
C11   C     C_R   0.875368 0.496089 0.494764 -0.035965
C12   C     C_R   0.938283 0.572152 0.496371 -0.258626
C13   C     C_R   0.063731 0.577083 0.513908 -0.004625
C14   C     C_R   0.128438 0.502126 0.526770 -0.090968
C15   C     C_R   0.514834 0.474036 0.739186 -0.191612
C16   C     C_R   0.413070 0.450960 0.789595 0.261981
C17   C     C_R   0.434778 0.435915 0.872796 -0.124592
C18   C     C_R   0.558715 0.440334 0.902789 0.127606
C19   C     C_R   0.661218 0.450278 0.850008 0.313914
C20   C     C_R   0.637322 0.468544 0.768112 -0.281384
C21   C     C_R   0.621590 0.473787 0.140872 -0.243535
C22   C     C_R   0.614240 0.472443 0.224377 0.312949
C23   C     C_R   0.538806 0.521025 0.091894 0.155163
N1    N     N_2   0.578101 0.447463 0.985877 -0.127452
N2    N     N_2   0.532919 0.512604 0.007661 -0.121510
C24   C     C_R   0.523284 0.519633 0.259972 -0.202943
H4    H     H_    0.691483 0.436782 0.114142 0.224843
H5    H     H_    0.714356 0.478818 0.726154 0.204168
C25   C     C_R   0.445394 0.570465 0.211887 -0.238431
C26   C     C_R   0.452900 0.572489 0.127436 0.302666
H6    H     H_    0.375813 0.606260 0.240307 0.250818
N3    N     N_R   0.515300 0.716920 0.509720 -0.180246
C27   C     C_R   0.472320 0.764687 0.443943 0.314195
C28   C     C_R   0.483655 0.852297 0.440194 0.079686
C29   C     C_R   0.538924 0.892282 0.505087 0.070753
C30   C     C_R   0.586186 0.843268 0.570293 0.141358
C31   C     C_R   0.572531 0.755778 0.572416 -0.119017
C32   C     C_R   0.525868 0.146278 0.551979 0.159989
C33   C     C_R   0.532322 0.233738 0.552902 0.249696
C34   C     C_R   0.474279 0.108903 0.483727 0.106912
N4    N     N_2   0.553077 0.980636 0.506525 -0.002007
N5    N     N_2   0.462196 0.020708 0.478926 -0.119780
N6    N     N_R   0.484690 0.283070 0.490290 -0.216014
C35   C     C_R   0.427777 0.247711 0.426065 0.333851
C36   C     C_R   0.424583 0.160684 0.420649 -0.250446
C37   C     C_R   0.328559 0.421530 0.929949 0.170220
C38   C     C_R   0.325260 0.351611 0.984575 -0.112074
C39   C     C_R   0.227565 0.339560 0.040084 -0.133665
C40   C     C_R   0.132609 0.397125 0.041545 -0.055608
C41   C     C_R   0.135302 0.466930 0.987615 -0.029673
C42   C     C_R   0.232915 0.479314 0.932123 -0.033793
H7    H     H_    0.398362 0.306597 0.984171 0.158424
H8    H     H_    0.225577 0.285629 0.082055 0.165418
H9    H     H_    0.057072 0.387732 0.084564 0.179262
H10   H     H_    0.062018 0.511663 0.989046 0.180906
H11   H     H_    0.234759 0.534311 0.891490 0.163179
N7    N     N_R   0.368980 0.623463 0.078884 0.222418
O9    O     O_R   0.267731 0.650352 0.110396 -0.349184
O10   O     O_R   0.396792 0.648119 0.004724 -0.383076
N8    N     N_R   0.289736 0.440033 0.756496 0.192778
O11   O     O_R   0.244177 0.495293 0.705130 -0.494176
O12   O     O_R   0.221924 0.374818 0.778177 -0.385954
N9    N     N_R   0.579593 0.270377 0.623488 0.257801
O13   O     O_R   0.689861 0.305701 0.622597 -0.367688
O14   O     O_R   0.520691 0.257894 0.691859 -0.348204
N10   N     N_R   0.566174 0.096667 0.621935 0.270545
O15   O     O_R   0.492083 0.039743 0.655164 -0.370751
O16   O     O_R   0.671856 0.113204 0.657285 -0.220839
N11   N     N_R   0.652215 0.882690 0.633762 0.250286
O17   O     O_R   0.748745 0.930764 0.616665 -0.288384
O18   O     O_R   0.610682 0.875724 0.707597 -0.332736
C43   C     C_R   0.632020 0.708765 0.640649 0.230502
C44   C     C_R   0.760279 0.693367 0.637709 -0.121811
C45   C     C_R   0.823623 0.663454 0.707107 -0.123951
C46   C     C_R   0.759986 0.651075 0.780486 -0.081132
C47   C     C_R   0.632312 0.666595 0.784118 -0.135407
C48   C     C_R   0.568390 0.695448 0.714526 -0.047704
H12   H     H_    0.812127 0.708432 0.582739 0.130656
H13   H     H_    0.922715 0.652083 0.704476 0.165877
H14   H     H_    0.809519 0.629495 0.834586 0.181667
H15   H     H_    0.583125 0.656811 0.840981 0.178654
H16   H     H_    0.470465 0.709721 0.718614 0.130297
N12   N     N_R   0.360698 0.298254 0.367628 0.236350
O19   O     O_R   0.404260 0.312019 0.294722 -0.401087
O20   O     O_R   0.245772 0.316568 0.382310 -0.383887
N13   N     N_R   0.446315 0.899319 0.368100 0.249418
O21   O     O_R   0.338180 0.885057 0.334855 -0.364931
O22   O     O_R   0.525444 0.950552 0.331048 -0.338982
C49   C     C_R   0.369954 0.124105 0.348076 0.192506
C50   C     C_R   0.257050 0.078106 0.352959 -0.098932
C51   C     C_R   0.204470 0.046342 0.283546 -0.036645
C52   C     C_R   0.265281 0.058847 0.209183 -0.060762
C53   C     C_R   0.379041 0.102899 0.204163 -0.117125
C54   C     C_R   0.431546 0.135157 0.273350 0.013841
H17   H     H_    0.209856 0.066362 0.410128 0.121736
H18   H     H_    0.117124 0.011335 0.287580 0.155520
H19   H     H_    0.224695 0.033915 0.155586 0.154694
H20   H     H_    0.426535 0.112092 0.146660 0.154154
H21   H     H_    0.519999 0.168952 0.268723 0.177581
N14   N     N_R   0.425508 0.726396 0.374192 0.255395
O23   O     O_R   0.317204 0.688511 0.376253 -0.378156
O24   O     O_R   0.482350 0.739853 0.305183 -0.336703
N15   N     N_R   0.885537 0.190648 0.513483 0.210838
O25   O     O_R   0.812486 0.182298 0.451252 -0.379285
O26   O     O_R   0.895673 0.128338 0.566283 -0.306942
C55   C     C_R   0.112865 0.206132 0.616661 0.135789
C56   C     C_R   0.109914 0.197819 0.701503 -0.034429
C57   C     C_R   0.160022 0.128178 0.742564 -0.095568
C58   C     C_R   0.212483 0.066531 0.699073 -0.010129
C59   C     C_R   0.216771 0.075208 0.614589 -0.096703
C60   C     C_R   0.168660 0.145369 0.573540 -0.122371
H22   H     H_    0.066980 0.244428 0.735560 0.193380
H23   H     H_    0.157054 0.121609 0.807979 0.157501
H24   H     H_    0.250108 0.012199 0.730802 0.168115
H25   H     H_    0.257569 0.027733 0.580920 0.144478
H26   H     H_    0.172400 0.152263 0.508330 0.139343
C61   C     C_R   0.118615 0.661527 0.523602 0.143004
C62   C     C_R   0.183788 0.679567 0.594623 -0.118472
C63   C     C_R   0.228705 0.759771 0.605677 -0.154539
C64   C     C_R   0.207066 0.823196 0.546761 -0.128969
C65   C     C_R   0.139818 0.806728 0.476885 -0.061484
C66   C     C_R   0.095324 0.726513 0.465372 -0.076387
H27   H     H_    0.198636 0.631984 0.641825 0.187638
H28   H     H_    0.279403 0.772973 0.660269 0.151688
H29   H     H_    0.242376 0.885062 0.555277 0.139557
H30   H     H_    0.122324 0.856109 0.431515 0.168830
H31   H     H_    0.043785 0.714920 0.410589 0.158869
N16   N     N_R   0.700764 0.423773 0.272135 0.219858
O27   O     O_R   0.770237 0.458719 0.325429 -0.435109
O28   O     O_R   0.727291 0.349894 0.252018 -0.352741
N17   N     N_R   0.788524 0.445703 0.879065 0.214996
O29   O     O_R   0.881294 0.466347 0.830873 -0.389994
O30   O     O_R   0.813598 0.413727 0.951201 -0.384484

loop_
_geom_bond_atom_site_label_1
_geom_bond_atom_site_label_2
_geom_bond_distance
_ccdc_geom_bond_type
C45   C46   1.397522 A    
C54   H21   1.083254 S    
C22   C24   1.406730 A    
C7    C8    1.398287 A    
C52   H19   1.082279 S    
C35   C36   1.419047 A    
C59   C60   1.396266 A    
C43   C44   1.403021 A    
N15   O25   1.301743 A    
Zn1   O7    1.989656 S    
C37   C42   1.406388 A    
C16   C17   1.403072 A    
C40   H9    1.082401 S    
C21   H4    1.083439 S    
C15   C16   1.405501 A    
N9    O14   1.301397 A    
C21   C22   1.384079 A    
C44   H12   1.080633 S    
N16   O28   1.301277 A    
O4    C2    1.300445 A    
Zn2   O6    1.966116 S    
O7    C4    1.301165 A    
H1    C12   1.081925 S    
C16   N8    1.437838 S    
C53   C54   1.398046 A    
C47   H15   1.082547 S    
C28   N13   1.436058 S    
N6    C35   1.371889 A    
C6    C7    1.413344 A    
N8    O11   1.298352 A    
C58   H24   1.082350 S    
O5    C3    1.290717 A    
Zn2   N3    2.016630 S    
C31   C43   1.473508 S    
O1    Zn1   1.966117 S    
C46   H14   1.081935 S    
C39   H8    1.082589 S    
C61   C66   1.409222 A    
C63   C64   1.395444 A    
C35   N12   1.430160 S    
N12   O20   1.300247 A    
C10   C11   1.417717 A    
C50   H17   1.079797 S    
C36   C49   1.483670 S    
C4    C14   1.448873 S    
C13   C61   1.494395 S    
C7    C55   1.472142 S    
C64   H29   1.080631 S    
C55   C60   1.399060 A    
C45   H13   1.082583 S    
C17   C37   1.488265 S    
N8    O12   1.301179 A    
C49   C50   1.404986 A    
C25   H6    1.082398 S    
Zn1   N6    2.016776 S    
O3    Zn1   2.006234 S    
C9    C10   1.391832 A    
C51   C52   1.397373 A    
C24   C25   1.397279 A    
C53   H20   1.082335 S    
C34   N5    1.439820 S    
C66   H31   1.083000 S    
C43   C48   1.405868 A    
C3    C24   1.449461 S    
C41   C42   1.397987 A    
C32   C33   1.419145 A    
C48   H16   1.082287 S    
C11   C12   1.392631 A    
N17   O30   1.301401 A    
C62   H27   1.077512 S    
C6    N15   1.444055 S    
C65   H30   1.082344 S    
N10   O16   1.300639 A    
C56   H22   1.082919 S    
C5    H2    1.077794 S    
C12   C13   1.373806 A    
N3    C27   1.380024 A    
C18   N1    1.401512 S    
C38   C39   1.398374 A    
O1    C1    1.282675 A    
C30   N11   1.437226 S    
C29   N4    1.438616 S    
N1    N2    1.246297 D    
C28   C29   1.409075 A    
Zn2   O8    2.006233 S    
C2    C11   1.443835 S    
N12   O19   1.300927 A    
C8    H3    1.083519 S    
C40   C41   1.397382 A    
C13   C14   1.417337 A    
C49   C54   1.404901 A    
C27   C28   1.420329 A    
C42   H11   1.083113 S    
N9    O13   1.299352 A    
C55   C56   1.403306 A    
C57   C58   1.397745 A    
N7    O9    1.301651 A    
C22   N16   1.433593 S    
O3    C2    1.283214 A    
C29   C30   1.399939 A    
N13   O22   1.301144 A    
C8    C9    1.410590 A    
C15   C20   1.396315 A    
N11   O17   1.301113 A    
C26   N7    1.442678 S    
N11   O18   1.300615 A    
C9    C14   1.410561 A    
C64   C65   1.395572 A    
C25   C26   1.399330 A    
C62   C63   1.397990 A    
C47   C48   1.397960 A    
C56   C57   1.398087 A    
N14   O23   1.298596 A    
Zn1   O5    1.935332 S    
N4    N5    1.251324 D    
C1    C15   1.439680 S    
C27   N14   1.427468 S    
C44   C45   1.397541 A    
C18   C19   1.406663 A    
O2    Zn2   1.935334 S    
O8    C4    1.284226 A    
N17   O29   1.301888 A    
C33   N9    1.428206 S    
O6    C3    1.294640 A    
C38   H7    1.083109 S    
O4    Zn2   1.989655 S    
C34   C36   1.408911 A    
C65   C66   1.398151 A    
C5    C10   1.415164 A    
C52   C53   1.397199 A    
C41   H10   1.082425 S    
N13   O21   1.300801 A    
C20   H5    1.084430 S    
C19   C20   1.393438 A    
C23   N2    1.410604 S    
C61   C62   1.406606 A    
C63   H28   1.081748 S    
C57   H23   1.082285 S    
N16   O27   1.298863 A    
C59   H25   1.079858 S    
C17   C18   1.415716 A    
N3    C31   1.380291 A    
N15   O26   1.300553 A    
C60   H26   1.079411 S    
O2    C1    1.298178 A    
C21   C23   1.406023 A    
C39   C40   1.397681 A    
C32   N10   1.438840 S    
C19   N17   1.444663 S    
N10   O15   1.300227 A    
C37   C38   1.405654 A    
C46   C47   1.397906 A    
C5    C6    1.403511 A    
C30   C31   1.420878 A    
C50   C51   1.398205 A    
C51   H18   1.082358 S    
C23   C26   1.411411 A    
N7    O10   1.301457 A    
C32   C34   1.418087 A    
C58   C59   1.398072 A    
C33   N6    1.373029 A    
N14   O24   1.301556 A    
