data_mof_unit_10580.cif
_audit_creation_date              2012-12-10T17:33:03-0500
_audit_creation_method            fapswitch 2.2
_symmetry_space_group_name_H-M    P1
_symmetry_Int_Tables_number       1
_space_group_crystal_system       triclinic
_cell_length_a                    12.368386
_cell_length_b                    13.263707
_cell_length_c                    14.147061
_cell_angle_alpha                 93.9048
_cell_angle_beta                  107.297591
_cell_angle_gamma                 117.057602
_cell_volume                      1916.07637655

loop_
_atom_site_label
_atom_site_type_symbol
_atom_type_description
_atom_site_fract_x
_atom_site_fract_y
_atom_site_fract_z
_atom_type_partial_charge
C1    C     C_R   0.651955 0.714685 0.510410 0.815122
C2    C     C_R   0.836688 0.488416 0.922785 0.030880
C3    C     C_R   0.811790 0.536133 0.000839 -0.133646
C4    C     C_R   0.929919 0.449840 0.948475 -0.066094
C5    C     C_R   0.010766 0.475724 0.052779 -0.092983
C6    C     C_R   0.987881 0.531151 0.128503 0.608679
C7    C     C_R   0.885149 0.553433 0.102420 -0.125884
C8    C     C_R   0.947000 0.387950 0.873675 0.593484
C9    C     C_R   0.056943 0.375980 0.897089 -0.195622
C10   C     C_R   0.146009 0.412326 0.997306 -0.069773
C11   C     C_R   0.115263 0.450607 0.076426 0.059573
C12   C     C_R   0.619205 0.518658 0.687904 0.851161
C13   C     C_R   0.262156 0.406385 0.020547 0.277890
C14   C     C_R   0.346474 0.436863 0.122930 0.292936
C15   C     C_R   0.188205 0.459444 0.176478 -0.166781
C16   C     C_R   0.133097 0.964985 0.354541 0.182557
C17   C     C_R   0.247563 0.161108 0.460616 -0.238035
C18   C     C_R   0.739479 0.923758 0.585079 0.634810
C19   C     C_R   0.831770 0.040492 0.604906 -0.162423
C20   C     C_R   0.928892 0.074124 0.564437 -0.269911
C21   C     C_R   0.933448 0.990944 0.499646 0.134364
C22   C     C_R   0.829635 0.874137 0.469260 -0.008633
C23   C     C_R   0.344754 0.284854 0.484159 0.875799
C24   C     C_R   0.037123 0.020117 0.463452 0.073880
C25   C     C_R   0.029231 0.936111 0.389499 -0.033563
C26   C     C_R   0.916960 0.826127 0.350937 -0.097817
C27   C     C_R   0.818453 0.796127 0.389245 -0.132732
C28   C     C_R   0.149551 0.130369 0.500134 -0.322504
C29   C     C_R   0.241272 0.077386 0.389912 0.620050
C30   C     C_R   0.738685 0.838922 0.518830 -0.228583
C31   C     C_R   0.254987 0.691566 0.658325 -0.249730
C32   C     C_R   0.655260 0.341578 0.362464 0.819653
C33   C     C_R   0.733178 0.307101 0.331751 0.162284
C34   C     C_R   0.380044 0.480311 0.312006 0.846653
C35   C     C_R   0.868119 0.366607 0.383756 -0.327456
C36   C     C_R   0.927883 0.462364 0.467292 -0.025611
C37   C     C_R   0.843950 0.495339 0.495682 0.165769
C38   C     C_R   0.067559 0.527163 0.522937 0.038140
C39   C     C_R   0.119785 0.624686 0.603992 0.140729
C40   C     C_R   0.037134 0.655548 0.630389 -0.243228
C41   C     C_R   0.902795 0.592222 0.578040 -0.119619
C42   C     C_R   0.158927 0.500290 0.502233 0.063643
C43   C     C_R   0.338942 0.661725 0.633249 0.173355
C44   C     C_R   0.683057 0.526784 0.797045 -0.250955
C45   C     C_R   0.306344 0.459607 0.202014 -0.213398
C46   C     C_R   0.720643 0.574636 0.976995 0.664608
C47   C     C_R   0.655081 0.569210 0.876044 0.229242
C48   C     C_R   0.776016 0.490573 0.822305 -0.188781
Cu1   Cu    Cu3+1 0.416420 0.526630 0.522910 1.023229
Cu2   Cu    Cu3+1 0.583580 0.473370 0.477090 1.041885
H1    H     H_    0.870232 0.593697 0.162974 0.217771
H2    H     H_    0.903870 0.761669 0.291067 0.200422
H3    H     H_    0.163712 0.195437 0.559585 0.195199
H4    H     H_    0.996911 0.166335 0.583677 0.171045
H5    H     H_    0.830648 0.105393 0.654798 0.213236
H6    H     H_    0.732092 0.711535 0.353284 0.189791
H7    H     H_    0.443236 0.714523 0.674104 0.199027
H8    H     H_    0.150891 0.460486 0.235833 0.233113
H9    H     H_    0.076873 0.729952 0.692749 0.164872
H10   H     H_    0.295728 0.767099 0.719761 0.175404
H11   H     H_    0.127462 0.426972 0.442475 0.123729
H12   H     H_    0.923713 0.336691 0.356627 0.189909
H13   H     H_    0.848692 0.623015 0.604824 0.194112
H14   H     H_    0.068415 0.333926 0.835547 0.203809
H15   H     H_    0.805607 0.470749 0.762714 0.243186
N1    N     N_R   0.290690 0.566960 0.557640 -0.200075
N2    N     N_R   0.709100 0.433710 0.442970 -0.291174
O1    O     O_R   0.545970 0.684450 0.528810 -0.514500
O2    O     O_R   0.687130 0.639470 0.490120 -0.630072
O3    O     O_R   0.519670 0.535100 0.660030 -0.542009
O4    O     O_R   0.660830 0.490120 0.621340 -0.609750
O5    O     O_R   0.312870 0.360530 0.509880 -0.609731
O6    O     O_R   0.454030 0.315550 0.471190 -0.481269
O7    O     O_R   0.339170 0.509880 0.378660 -0.586647
O8    O     O_R   0.480330 0.464900 0.339970 -0.511316
Br1   Br    Br    0.308495 0.359129 0.913064 -0.398777
F1    F     F_    0.337097 0.105626 0.351774 -0.549114
Br2   Br    Br    0.131161 0.855954 0.256060 -0.329587
F2    F     F_    0.653286 0.894043 0.633290 -0.642822
F3    F     F_    0.524513 0.283039 0.310415 -0.542857
Br3   Br    Br    0.655663 0.178432 0.217484 -0.311082
Br4   Br    Br    0.513608 0.445676 0.150293 -0.312751
F4    F     F_    0.699786 0.623085 0.052716 -0.610874
Br5   Br    Br    0.538449 0.631214 0.855434 -0.362433
F5    F     F_    0.069109 0.574738 0.227721 -0.660038
F6    F     F_    0.855052 0.331931 0.778565 -0.674355

loop_
_geom_bond_atom_site_label_1
_geom_bond_atom_site_label_2
_ccdc_geom_bond_type
Cu1   O1    S    
C9    H14   S    
C17   C29   A    
C35   C36   A    
C4    C8    A    
C26   C27   A    
C17   C23   S    
C6    F5    S    
C31   C43   A    
C36   C37   A    
Cu2   O2    S    
C38   C42   A    
C3    C7    A    
C5    C6    A    
C1    O1    A    
C18   C19   A    
C11   C15   A    
C19   C20   A    
C8    C9    A    
Cu1   O5    S    
C18   C30   A    
C48   H15   S    
Cu2   N2    S    
C16   Br2   S    
C44   C47   A    
C34   O8    A    
C40   H9    S    
C21   C22   A    
C23   O6    A    
C14   C45   A    
Cu1   N1    S    
C24   C25   A    
C20   H4    S    
Cu2   O6    S    
C39   C40   A    
C27   H6    S    
C18   F2    S    
C2    C48   A    
C16   C29   A    
C1    O2    A    
C31   H10   S    
C2    C4    A    
Cu2   O4    S    
C26   H2    S    
C32   F3    S    
C13   Br1   S    
C34   C45   S    
C47   Br5   S    
C42   H11   S    
C34   O7    A    
C32   N2    A    
C40   C41   A    
C12   O4    A    
Cu1   O3    S    
C15   H8    S    
C14   Br4   S    
C41   H13   S    
C9    C10   A    
C19   H5    S    
C16   C25   A    
C12   O3    A    
C46   C47   A    
C22   C30   A    
C17   C28   A    
C23   O5    A    
C24   C28   A    
C4    C5    A    
C10   C13   A    
C28   H3    S    
C5    C11   A    
C6    C7    A    
C3    C46   A    
C22   C27   A    
C32   C33   A    
C36   C38   A    
C2    C3    A    
C25   C26   A    
C7    H1    S    
C12   C44   S    
Cu2   O8    S    
C38   C39   A    
C43   N1    A    
C37   N2    A    
C1    C30   S    
C33   C35   A    
C31   C39   A    
C35   H12   S    
C8    F6    S    
C37   C41   A    
C10   C11   A    
C43   H7    S    
C46   F4    S    
C29   F1    S    
C20   C21   A    
Cu1   Cu2   S    
C21   C24   A    
C42   N1    A    
C15   C45   A    
Cu1   O7    S    
C13   C14   A    
C33   Br3   S    
C44   C48   A    
