data_mof_unit_51169.cif
_audit_creation_date              2012-12-10T18:45:02-0500
_audit_creation_method            fapswitch 2.2
_symmetry_space_group_name_H-M    P1
_symmetry_Int_Tables_number       1
_space_group_crystal_system       triclinic
_cell_length_a                    19.357116
_cell_length_b                    18.247787
_cell_length_c                    10.881591
_cell_angle_alpha                 90.001613
_cell_angle_beta                  91.970642
_cell_angle_gamma                 90.00036
_cell_volume                      3841.37164605

loop_
_atom_site_label
_atom_site_type_symbol
_atom_type_description
_atom_site_fract_x
_atom_site_fract_y
_atom_site_fract_z
_atom_type_partial_charge
C1    C     C_R   0.367850 0.500043 0.501406 0.782333
C2    C     C_R   0.292465 0.499832 0.504795 -0.070397
C3    C     C_R   0.964149 0.558898 0.499789 -0.271746
C4    C     C_R   0.035856 0.558898 0.500320 -0.271746
C5    C     C_R   0.072287 0.492697 0.501098 0.023273
C6    C     C_R   0.927716 0.492698 0.498991 0.023275
C7    C     C_R   0.036734 0.425391 0.502648 0.313052
C8    C     C_R   0.963268 0.425391 0.497426 0.313050
C9    C     C_R   0.453004 0.721034 0.566238 0.087030
C10   C     C_R   0.546995 0.721035 0.433764 0.087072
C11   C     C_R   0.453226 0.797902 0.569983 -0.301843
C12   C     C_R   0.632151 0.500043 0.498597 0.782323
C13   C     C_R   0.546771 0.797902 0.430021 -0.301836
C14   C     C_R   0.499998 0.837716 0.500002 0.171412
C15   C     C_R   0.504873 0.500390 0.262500 0.782564
C16   C     C_R   0.495130 0.500392 0.737501 0.782559
C17   C     C_R   0.561762 0.960400 0.526784 0.078503
C18   C     C_R   0.438232 0.960398 0.473224 0.078504
C19   C     C_R   0.563075 0.036734 0.499412 0.080589
C20   C     C_R   0.436919 0.036734 0.500594 0.080591
C21   C     C_R   0.499997 0.076886 0.500002 0.056771
C22   C     C_R   0.499997 0.920326 0.500004 0.037144
C23   C     C_R   0.851865 0.494627 0.496868 0.125602
C24   C     C_R   0.460823 0.199280 0.413838 -0.292610
C25   C     C_R   0.539172 0.199283 0.586165 -0.292608
C26   C     C_R   0.457161 0.276597 0.418706 0.335016
C27   C     C_R   0.542837 0.276599 0.581295 0.335018
C28   C     C_R   0.499997 0.159615 0.500001 0.088641
C29   C     C_R   0.532243 0.636654 0.115534 -0.150690
C30   C     C_R   0.467864 0.636685 0.884497 -0.150676
C31   C     C_R   0.517885 0.702956 0.056501 -0.148314
C32   C     C_R   0.482275 0.702972 0.943545 -0.148320
C33   C     C_R   0.489247 0.569276 0.937690 0.101873
C34   C     C_R   0.148139 0.494625 0.503201 0.125610
C35   C     C_R   0.510809 0.569266 0.062324 0.101879
C36   C     C_R   0.509432 0.502076 0.128188 -0.121678
C37   C     C_R   0.490575 0.502085 0.871814 -0.121691
C38   C     C_R   0.503014 0.435898 0.063556 -0.212458
C39   C     C_R   0.496946 0.435901 0.936437 -0.212468
C40   C     C_R   0.744548 0.466509 0.592809 -0.245980
C41   C     C_R   0.255445 0.466517 0.407215 -0.245986
C42   C     C_R   0.816243 0.463478 0.593390 -0.088649
C43   C     C_R   0.183750 0.463486 0.406656 -0.088654
C44   C     C_3   0.623730 0.924080 0.592923 -0.404109
C45   C     C_R   0.815396 0.528503 0.398972 -0.163522
C46   C     C_3   0.605327 0.894324 0.719192 -0.822665
C47   C     C_3   0.376263 0.924075 0.407088 -0.404120
C48   C     C_3   0.394664 0.894315 0.280817 -0.822642
C49   C     C_3   0.630146 0.072873 0.460664 -0.401117
C50   C     C_3   0.623979 0.103924 0.330096 -0.816884
C51   C     C_3   0.369848 0.072874 0.539342 -0.401114
C52   C     C_3   0.376016 0.103931 0.669909 -0.816886
C53   C     C_3   0.403338 0.310051 0.330832 -0.383043
C54   C     C_3   0.330048 0.288993 0.365903 -0.843195
C55   C     C_3   0.596659 0.310055 0.669174 -0.383028
C56   C     C_R   0.184616 0.528491 0.601100 -0.163516
C57   C     C_3   0.669949 0.288988 0.634118 -0.843233
C58   C     C_3   0.701302 0.564557 0.288012 -0.396111
C59   C     C_3   0.742665 0.586856 0.176792 -0.862613
C60   C     C_3   0.298723 0.564527 0.712045 -0.396093
C61   C     C_3   0.257370 0.586826 0.823278 -0.862617
C62   C     C_R   0.742619 0.530911 0.395608 0.141192
C63   C     C_R   0.257393 0.530899 0.604443 0.141177
C64   C     C_R   0.707537 0.499833 0.495231 -0.070399
Cu1   Cu    Cu3+1 0.500000 0.573360 0.500000 0.931669
Cu2   Cu    Cu3+1 0.500000 0.426640 0.500000 0.924651
H1    H     H_    0.503304 0.383746 0.111130 0.159990
H2    H     H_    0.437896 0.638799 0.799642 0.140660
H3    H     H_    0.532891 0.754212 0.099857 0.130929
H4    H     H_    0.467308 0.754243 0.900201 0.130939
H5    H     H_    0.717695 0.443719 0.669632 0.142144
H6    H     H_    0.282290 0.443733 0.330375 0.142138
H7    H     H_    0.844101 0.437801 0.669963 0.148409
H8    H     H_    0.155884 0.437817 0.330081 0.148402
H9    H     H_    0.844625 0.551956 0.325766 0.147123
H10   H     H_    0.155395 0.551935 0.674326 0.147122
H11   H     H_    0.936817 0.610717 0.499973 0.162830
H12   H     H_    0.496617 0.383749 0.888855 0.160003
H13   H     H_    0.063190 0.610716 0.500148 0.162830
H14   H     H_    0.579696 0.937496 0.773382 0.245408
H15   H     H_    0.571006 0.845903 0.711149 0.260315
H16   H     H_    0.653257 0.877019 0.770237 0.236754
H17   H     H_    0.645651 0.879903 0.536402 0.202848
H18   H     H_    0.666014 0.963697 0.612403 0.196054
H19   H     H_    0.420293 0.937487 0.226627 0.245406
H20   H     H_    0.428986 0.845897 0.288858 0.260324
H21   H     H_    0.346734 0.877007 0.229775 0.236753
H22   H     H_    0.354343 0.879899 0.463610 0.202850
H23   H     H_    0.415065 0.691459 0.616573 0.096794
H24   H     H_    0.333977 0.963689 0.387611 0.196055
H25   H     H_    0.602712 0.061828 0.265440 0.244999
H26   H     H_    0.590693 0.153245 0.325547 0.258480
H27   H     H_    0.675959 0.120276 0.299714 0.238596
H28   H     H_    0.646853 0.116206 0.526262 0.201758
H29   H     H_    0.673055 0.032864 0.457771 0.195783
H30   H     H_    0.397285 0.061839 0.734566 0.245000
H31   H     H_    0.409301 0.153254 0.674454 0.258478
H32   H     H_    0.324036 0.120283 0.700292 0.238595
H33   H     H_    0.353141 0.116203 0.473742 0.201755
H34   H     H_    0.584936 0.691461 0.383431 0.096783
H35   H     H_    0.326939 0.032865 0.542237 0.195783
H36   H     H_    0.322426 0.228798 0.362353 0.238577
H37   H     H_    0.319627 0.308950 0.459918 0.278490
H38   H     H_    0.291965 0.314002 0.299865 0.239051
H39   H     H_    0.404496 0.369510 0.324523 0.256340
H40   H     H_    0.412348 0.289938 0.236258 0.165940
H41   H     H_    0.677566 0.228793 0.637675 0.238580
H42   H     H_    0.680377 0.308937 0.540103 0.278492
H43   H     H_    0.708031 0.313998 0.700159 0.239054
H44   H     H_    0.595507 0.369515 0.675474 0.256342
H45   H     H_    0.417042 0.826042 0.627209 0.125764
H46   H     H_    0.587642 0.289951 0.763748 0.165955
H47   H     H_    0.779132 0.631903 0.201537 0.246311
H48   H     H_    0.771284 0.539077 0.140963 0.258763
H49   H     H_    0.706610 0.607008 0.102680 0.248976
H50   H     H_    0.661574 0.524442 0.255207 0.191909
H51   H     H_    0.674297 0.613919 0.321197 0.197987
H52   H     H_    0.220908 0.631879 0.798551 0.246313
H53   H     H_    0.228746 0.539049 0.859100 0.258759
H54   H     H_    0.293432 0.606968 0.897389 0.248975
H55   H     H_    0.338444 0.524401 0.744830 0.191918
H56   H     H_    0.582954 0.826043 0.372797 0.125756
H57   H     H_    0.325737 0.613886 0.678875 0.197993
H58   H     H_    0.047110 0.323915 0.554099 0.328290
H59   H     H_    0.952888 0.323919 0.445945 0.328288
H60   H     H_    0.431268 0.169611 0.343581 0.143106
H61   H     H_    0.568725 0.169616 0.656424 0.143108
H62   H     H_    0.562207 0.638737 0.200396 0.140633
N1    N     N_R   0.500000 0.683620 0.500000 -0.165208
N2    N     N_R   0.500000 0.316380 0.500000 -0.203432
O1    O     O_R   0.400190 0.561980 0.499980 -0.588639
O2    O     O_3   0.924998 0.361655 0.486819 -0.745108
O3    O     O_R   0.599810 0.561980 0.500020 -0.588646
O4    O     O_R   0.400190 0.438070 0.500040 -0.579704
O5    O     O_R   0.599810 0.438070 0.499960 -0.579701
O6    O     O_R   0.500000 0.561970 0.319650 -0.585046
O7    O     O_R   0.500000 0.561970 0.680350 -0.585070
O8    O     O_R   0.500010 0.438060 0.319710 -0.605105
O9    O     O_R   0.499990 0.438060 0.680290 -0.605105
O10   O     O_3   0.075002 0.361654 0.513238 -0.745106

loop_
_geom_bond_atom_site_label_1
_geom_bond_atom_site_label_2
_ccdc_geom_bond_type
C58   C62   S    
C24   H60   S    
C34   C56   A    
C23   C45   A    
C40   H5    S    
C55   H46   S    
C61   H53   S    
C52   H31   S    
C16   O7    A    
C44   H17   S    
C18   C47   S    
C7    C8    A    
C53   C54   S    
C25   C28   A    
C23   C42   A    
C60   C63   S    
C56   H10   S    
C54   H38   S    
C19   C21   A    
C24   C26   A    
C20   C51   S    
C7    O10   S    
C12   C64   S    
C11   C14   A    
C27   C55   S    
C2    C41   A    
C45   C62   A    
C1    C2    S    
C59   H49   S    
C62   C64   A    
C17   C19   A    
C46   H16   S    
C53   H40   S    
C57   H43   S    
Cu2   O9    S    
C35   C36   A    
C12   O5    A    
C8    O2    S    
C49   H28   S    
C26   N2    A    
C16   C37   S    
C15   O8    A    
Cu1   O7    S    
C3    C6    A    
C43   H8    S    
C40   C42   A    
Cu2   O4    S    
C13   C14   A    
C61   H54   S    
C58   H50   S    
C41   C43   A    
Cu1   O1    S    
C44   C46   S    
C51   H33   S    
C48   H21   S    
C11   H45   S    
C51   C52   S    
C39   H12   S    
C54   H37   S    
C38   H1    S    
C4    H13   S    
C9    H23   S    
C5    C7    A    
C32   H4    S    
C15   O6    A    
C1    O1    A    
C58   C59   S    
C58   H51   S    
C33   C37   A    
C60   C61   S    
C60   H57   S    
C46   H15   S    
C19   C49   S    
C47   C48   S    
Cu2   O8    S    
C59   H47   S    
C5    C34   S    
C56   C63   A    
C49   H29   S    
C10   H34   S    
C9    C11   A    
C41   H6    S    
C6    C8    A    
C50   H26   S    
C57   H41   S    
C21   C28   S    
C49   C50   S    
C12   O3    A    
C55   C57   S    
C55   H44   S    
C47   H24   S    
C48   H20   S    
C16   O9    A    
C51   H35   S    
C1    O4    A    
C3    H11   S    
C26   C53   S    
C15   C36   S    
C2    C63   A    
C42   H7    S    
C30   C33   A    
C61   H52   S    
C18   C22   A    
H58   O10   S    
C31   C32   A    
C34   C43   A    
C24   C28   A    
C4    C5    A    
C44   H18   S    
C10   C13   A    
Cu1   N1    S    
C50   H27   S    
C9    N1    A    
C25   C27   A    
C29   C35   A    
C17   C22   A    
C40   C64   A    
C45   H9    S    
C54   H36   S    
C47   H22   S    
C14   C22   S    
C36   C38   A    
C25   H61   S    
C10   N1    A    
C29   C31   A    
C30   C32   A    
C13   H56   S    
H59   O2    S    
C38   C39   A    
C59   H48   S    
C6    C23   S    
C52   H32   S    
C33   C35   A    
C52   H30   S    
C18   C20   A    
C60   H55   S    
C30   H2    S    
C17   C44   S    
Cu1   O6    S    
Cu2   O5    S    
C53   H39   S    
C50   H25   S    
C31   H3    S    
C57   H42   S    
C20   C21   A    
C37   C39   A    
Cu1   Cu2   S    
C29   H62   S    
C27   N2    A    
C48   H19   S    
C46   H14   S    
Cu1   O3    S    
C3    C4    A    
Cu2   N2    S    
