data_mof_unit_59933.cif
_audit_creation_date              2013-03-05T15:55:20-0500
_audit_creation_method            fapswitch 2.2
_symmetry_space_group_name_H-M    P1
_symmetry_Int_Tables_number       1
_space_group_crystal_system       triclinic
_cell_length_a                    14.742053
_cell_length_b                    14.7271
_cell_length_c                    33.193895
_cell_angle_alpha                 95.81564
_cell_angle_beta                  95.939028
_cell_angle_gamma                 61.12261
_cell_volume                      6265.74664412

loop_
_atom_site_label
_atom_site_type_symbol
_atom_site_description
_atom_site_fract_x
_atom_site_fract_y
_atom_site_fract_z
_atom_type_partial_charge
O1    O     O_R   0.679450 0.499830 0.463150 -0.542131
O2    O     O_R   0.480650 0.664000 0.464630 -0.534917
C1    C     C_R   0.390893 0.700324 0.446328 0.801860
O3    O     O_R   0.323930 0.675950 0.455370 -0.545361
O4    O     O_R   0.354700 0.475360 0.451930 -0.533538
C2    C     C_R   0.405705 0.386192 0.434061 0.804223
O5    O     O_R   0.494470 0.320860 0.448390 -0.542934
O6    O     O_R   0.662580 0.357570 0.460050 -0.534471
C3    C     C_R   0.701135 0.409802 0.447580 0.814534
O7    O     O_R   0.680900 0.502040 0.551870 -0.549495
O8    O     O_R   0.481990 0.666040 0.546870 -0.539995
C4    C     C_R   0.393654 0.700510 0.561465 0.756244
O9    O     O_R   0.325370 0.678160 0.544080 -0.553169
O10   O     O_R   0.356040 0.477400 0.534170 -0.532414
C5    C     C_R   0.436692 0.411763 0.555539 0.809010
O11   O     O_R   0.495910 0.323070 0.537100 -0.526348
O12   O     O_R   0.663920 0.359620 0.542290 -0.527357
C6    C     C_R   0.701209 0.413480 0.562825 0.839866
Cr1   Cr    Cr6+3 0.576280 0.580550 0.506370 0.953097
Cr2   Cr    Cr6+3 0.346780 0.572400 0.496520 0.956627
Cr3   Cr    Cr6+3 0.576960 0.347070 0.497150 0.992969
O13   O     O_3   0.500010 0.500010 0.500010 -0.366562
H1    H     H_    0.448372 0.168392 0.109813 0.178464
H2    H     H_    0.462759 0.200881 0.183312 0.142953
H3    H     H_    0.462126 0.194308 0.311422 0.142223
H4    H     H_    0.499442 0.210746 0.384514 0.153568
C7    C     C_R   0.369390 0.365743 0.392822 -0.069731
C8    C     C_R   0.281453 0.445124 0.373331 -0.136511
C9    C     C_R   0.260881 0.435454 0.331607 -0.068418
C10   C     C_R   0.327402 0.346229 0.309158 0.108448
C11   C     C_R   0.410475 0.263790 0.328696 -0.108725
C12   C     C_R   0.431331 0.273254 0.370384 -0.145363
C13   C     C_R   0.392221 0.251480 0.166196 -0.109208
C14   C     C_R   0.383957 0.233485 0.124276 -0.124064
C15   C     C_R   0.208738 0.378041 0.121843 -0.141561
C16   C     C_R   0.217212 0.395732 0.163808 -0.090443
C17   C     C_R   0.307739 0.330412 0.186057 0.101742
C18   C     C_1   0.311639 0.338812 0.229415 -0.005510
C19   C     C_1   0.316849 0.342826 0.265812 -0.004432
C20   C     C_R   0.290672 0.294180 0.101894 -0.071415
H5    H     H_    0.232257 0.517277 0.389771 0.150450
H6    H     H_    0.151630 0.457269 0.179056 0.151487
H7    H     H_    0.135854 0.426053 0.105473 0.158964
H8    H     H_    0.196228 0.499487 0.316612 0.147817
N1    N     N_R   0.829482 0.398085 0.229383 -0.197647
N2    N     N_R   0.829472 0.401177 0.269536 -0.183676
C21   C     C_R   0.759825 0.371163 0.410855 -0.113155
C22   C     C_R   0.808742 0.423122 0.397584 -0.200451
C23   C     C_R   0.847449 0.399293 0.358880 0.407125
C24   C     C_R   0.832310 0.325085 0.332533 -0.095143
C25   C     C_R   0.792579 0.266574 0.347609 -0.175356
C26   C     C_R   0.757145 0.289033 0.386422 -0.145839
N3    N     N_R   0.851470 0.232657 0.265351 -0.271769
N4    N     N_R   0.850740 0.229937 0.225159 -0.264960
C27   C     C_R   0.838929 0.312958 0.206279 0.535867
C28   C     C_R   0.841903 0.318028 0.288389 0.557478
C29   C     C_R   0.818977 0.393557 0.139540 0.295376
C30   C     C_R   0.851064 0.379680 0.100188 -0.147817
C31   C     C_R   0.927430 0.193311 0.102894 -0.144900
C32   C     C_R   0.897801 0.206093 0.142331 -0.137945
C33   C     C_R   0.848310 0.305568 0.162011 -0.062538
C34   C     C_R   0.909127 0.279692 0.082364 -0.106126
H9    H     H_    0.815103 0.483665 0.417069 0.183537
H10   H     H_    0.720786 0.246837 0.396067 0.154702
H11   H     H_    0.833639 0.447144 0.084027 0.186368
H12   H     H_    0.781585 0.208244 0.328390 0.169697
H13   H     H_    0.971717 0.115116 0.089737 0.159638
H14   H     H_    0.919965 0.136969 0.158217 0.199228
N5    N     N_R   0.317008 0.772040 0.221087 -0.206500
N6    N     N_R   0.321929 0.765003 0.260873 -0.265151
C35   C     C_R   0.371612 0.756830 0.409721 -0.101352
C36   C     C_R   0.281120 0.781495 0.384782 -0.144230
C37   C     C_R   0.274694 0.809220 0.345425 -0.157803
C38   C     C_R   0.358126 0.813352 0.330466 -0.044665
C39   C     C_R   0.445199 0.798400 0.356619 0.286542
C40   C     C_R   0.450974 0.770864 0.396145 -0.170077
N7    N     N_R   0.387846 0.882142 0.271541 -0.215765
N8    N     N_R   0.382777 0.889337 0.231652 -0.256279
C41   C     C_R   0.346306 0.835113 0.205835 0.608070
C42   C     C_R   0.356543 0.820513 0.286781 0.554513
C43   C     C_R   0.237672 0.865133 0.140587 0.402124
C44   C     C_R   0.222827 0.887051 0.099890 -0.261566
C45   C     C_R   0.392527 0.877965 0.101782 0.391044
C46   C     C_R   0.407681 0.855405 0.142686 -0.217448
C47   C     C_R   0.330256 0.851471 0.162425 -0.171188
C48   C     C_R   0.295896 0.900763 0.080871 -0.223546
H15   H     H_    0.218288 0.772398 0.394594 0.156490
H16   H     H_    0.521181 0.752953 0.415140 0.172395
H17   H     H_    0.148655 0.903406 0.084350 0.196755
H18   H     H_    0.206519 0.822024 0.325847 0.166901
H19   H     H_    0.480351 0.840610 0.159265 0.209947
N9    N     N_R   0.298086 0.474831 0.783953 -0.240514
N10   N     N_R   0.312632 0.483130 0.745806 -0.249356
C49   C     C_R   0.425109 0.410942 0.599241 -0.079284
C50   C     C_R   0.341736 0.493469 0.618942 -0.149199
C51   C     C_R   0.333392 0.493853 0.660548 -0.109329
C52   C     C_R   0.408629 0.412064 0.683399 0.006619
C53   C     C_R   0.493831 0.331484 0.663897 -0.111522
C54   C     C_R   0.502060 0.331074 0.622365 -0.138082
N11   N     N_R   0.465290 0.324485 0.747728 -0.261588
N12   N     N_R   0.450686 0.316145 0.785775 -0.206624
C55   C     C_R   0.366953 0.391082 0.804748 0.577529
C56   C     C_R   0.396286 0.407740 0.726804 0.510966
C57   C     C_R   0.241264 0.413476 0.854370 -0.156128
C58   C     C_R   0.217019 0.381760 0.888108 -0.137837
C59   C     C_R   0.400020 0.276304 0.905899 -0.198107
C60   C     C_R   0.425585 0.310077 0.872812 0.403494
C61   C     C_R   0.345155 0.374945 0.845297 -0.106616
C62   C     C_R   0.296157 0.309764 0.913223 -0.117096
H20   H     H_    0.282724 0.557802 0.602238 0.147346
H21   H     H_    0.569018 0.268124 0.608383 0.185071
H22   H     H_    0.136243 0.409111 0.893207 0.163809
H23   H     H_    0.267377 0.557730 0.674666 0.158098
H24   H     H_    0.553982 0.267895 0.680605 0.182566
H25   H     H_    0.178238 0.463617 0.834027 0.179785
H26   H     H_    0.461568 0.223940 0.926169 0.184315
H27   H     H_    0.985253 0.123799 0.871219 0.170292
H28   H     H_    0.922425 0.150616 0.800586 0.185758
C63   C     C_R   0.746809 0.385110 0.604499 -0.204563
C64   C     C_R   0.737874 0.465924 0.632998 -0.230039
C65   C     C_R   0.757126 0.450315 0.674246 0.275471
C66   C     C_R   0.786116 0.352590 0.687988 -0.138360
C67   C     C_R   0.801645 0.268401 0.659952 0.315985
C68   C     C_R   0.783188 0.284391 0.617990 0.178206
C69   C     C_R   0.895099 0.216905 0.822367 -0.115068
C70   C     C_R   0.930424 0.201877 0.862800 -0.187762
C71   C     C_R   0.831099 0.388001 0.879213 0.337596
C72   C     C_R   0.794384 0.402572 0.838087 0.257403
C73   C     C_R   0.830096 0.316831 0.809668 -0.024485
C74   C     C_1   0.809557 0.330146 0.766883 0.120966
C75   C     C_1   0.797674 0.340004 0.730919 0.164507
C76   C     C_R   0.902766 0.286919 0.891258 -0.201622
H29   H     H_    0.710344 0.543718 0.623543 0.185832
H30   H     H_    0.425259 0.938108 0.892074 0.167062
H31   H     H_    0.464881 0.878837 0.821468 0.162741
H32   H     H_    0.521043 0.773507 0.686868 0.169720
H33   H     H_    0.534022 0.730588 0.613729 0.149938
C77   C     C_R   0.377967 0.749802 0.602943 -0.053103
C78   C     C_R   0.285426 0.777745 0.621264 -0.153327
C79   C     C_R   0.278988 0.801064 0.662977 -0.097812
C80   C     C_R   0.364509 0.797393 0.686776 0.091184
C81   C     C_R   0.454723 0.775864 0.668601 -0.093217
C82   C     C_R   0.461477 0.752358 0.626838 -0.150183
C83   C     C_R   0.402211 0.873851 0.833744 -0.124902
C84   C     C_R   0.379533 0.907411 0.874047 -0.119457
C85   C     C_R   0.236851 0.867651 0.865447 -0.176454
C86   C     C_R   0.259695 0.833558 0.825113 0.303788
C87   C     C_R   0.340559 0.840025 0.808886 0.046020
C88   C     C_1   0.353959 0.822406 0.766122 0.067782
C89   C     C_1   0.360594 0.810864 0.729999 0.022378
C90   C     C_R   0.294155 0.908314 0.889836 -0.106240
H34   H     H_    0.219934 0.776116 0.603792 0.156817
H35   H     H_    0.171240 0.866816 0.877031 0.178081
H36   H     H_    0.208659 0.818151 0.676877 0.164721
O14   O     O_R   0.170070 0.978950 0.027680 -0.553345
O15   O     O_R   0.001760 0.175230 0.026640 -0.539182
C91   C     C_R   0.963483 0.264051 0.045581 0.817233
O16   O     O_R   0.984760 0.333570 0.037150 -0.534602
O17   O     O_R   0.183410 0.309240 0.041890 -0.539379
C92   C     C_R   0.272629 0.259557 0.060048 0.776861
O18   O     O_R   0.340240 0.172500 0.045430 -0.530813
O19   O     O_R   0.309670 0.000990 0.032050 -0.500870
C93   C     C_R   0.259831 0.958182 0.043472 0.855778
O20   O     O_R   0.168330 0.982130 0.939200 -0.548010
O21   O     O_R   0.000140 0.178170 0.944610 -0.539613
C94   C     C_R   0.960722 0.268395 0.931248 0.865703
O22   O     O_R   0.983010 0.336750 0.948660 -0.513076
O23   O     O_R   0.181800 0.312190 0.959860 -0.534758
C95   C     C_R   0.271257 0.264460 0.945409 0.787928
O24   O     O_R   0.338500 0.175680 0.956950 -0.541892
O25   O     O_R   0.308050 0.003930 0.950020 -0.528227
C96   C     C_R   0.256822 0.964080 0.929186 0.801497
Cr4   Cr    Cr6+3 0.087320 0.083240 0.984860 0.978905
Cr5   Cr    Cr6+3 0.087720 0.316210 0.996740 1.011071
Cr6   Cr    Cr6+3 0.317350 0.090340 0.995890 1.039081
O26   O     O_3   0.164130 0.163270 0.992500 -0.357921
N13   N     N_R   0.901493 0.450555 0.346952 0.114757
O27   O     O_R   0.877305 0.544599 0.361185 -0.336099
O28   O     O_R   0.984476 0.398480 0.326740 -0.353737
Br1   Br    Br    0.735514 0.534459 0.159875 -0.412475
Br2   Br    Br    0.564576 0.799573 0.338887 -0.415836
N14   N     N_R   0.153626 0.867670 0.159971 0.106636
O29   O     O_R   0.098709 0.827193 0.140955 -0.345482
O30   O     O_R   0.119909 0.926478 0.192861 -0.355683
N15   N     N_R   0.475365 0.877262 0.082186 0.122623
O31   O     O_R   0.497135 0.833824 0.045832 -0.335543
O32   O     O_R   0.538845 0.905352 0.102651 -0.350428
N16   N     N_R   0.532708 0.279220 0.868006 0.114967
O33   O     O_R   0.558372 0.345430 0.856708 -0.337269
O34   O     O_R   0.605706 0.190566 0.880456 -0.346061
N17   N     N_R   0.834019 0.167514 0.674063 0.130154
O35   O     O_R   0.779814 0.119821 0.663230 -0.333906
O36   O     O_R   0.914004 0.125827 0.699751 -0.359688
Br3   Br    Br    0.815541 0.166565 0.579800 -0.412217
Br4   Br    Br    0.694054 0.538303 0.820774 -0.338481
N18   N     N_R   0.795798 0.474905 0.908466 0.141877
O37   O     O_R   0.803404 0.556867 0.902500 -0.314838
O38   O     O_R   0.761301 0.469976 0.942270 -0.334502
Br5   Br    Br    0.737288 0.567032 0.710954 -0.473067
Br6   Br    Br    0.174579 0.785025 0.792511 -0.453416

loop_
_geom_bond_atom_site_label_1
_geom_bond_atom_site_label_2
_geom_bond_distance
_ccdc_geom_bond_type
C30   C34   1.400669 A    
O25   C96   1.277021 A    
H3    C11   1.083751 S    
C91   O16   1.269376 A    
C95   O24   1.268853 A    
C78   H34   1.082950 S    
C16   H6    1.083622 S    
C50   C51   1.398326 A    
C72   Br4   1.927401 S    
C41   C47   1.461209 S    
C83   C87   1.397815 A    
C72   C73   1.407413 A    
N10   C56   1.359383 A    
C5    C49   1.480038 S    
C52   C53   1.406369 A    
N15   O31   1.301478 A    
C67   C68   1.412712 A    
O4    Cr2   1.921636 S    
N7    N8    1.330508 A    
O23   Cr5   1.919136 S    
C85   H35   1.083035 S    
O8    Cr1   1.917794 S    
O21   C94   1.272907 A    
C44   H17   1.083417 S    
C14   C20   1.406405 A    
C16   C17   1.397099 A    
C17   C18   1.429566 S    
C76   C94   1.476489 S    
C37   H18   1.083790 S    
C85   C86   1.397074 A    
O2    C1    1.273560 A    
C77   C82   1.408120 A    
C10   C11   1.397680 A    
O18   Cr6   2.039208 S    
C53   H24   1.082734 S    
C59   C60   1.404657 A    
O21   Cr4   1.918090 S    
C5    O11   1.300016 A    
C53   C54   1.395531 A    
C8    H5    1.083028 S    
N18   O37   1.300964 A    
N16   O34   1.301439 A    
C64   H29   1.083136 S    
C37   C38   1.402808 A    
N14   O29   1.301274 A    
C65   Br5   1.920580 S    
H32   C81   1.083320 S    
C86   C87   1.404722 A    
C31   H13   1.083518 S    
C71   C76   1.416421 A    
O23   C95   1.276953 A    
C80   C81   1.397593 A    
O16   Cr5   2.036046 S    
N14   O30   1.301509 A    
O17   C92   1.274517 A    
O6    C3    1.273428 A    
N13   O28   1.301619 A    
O17   Cr5   1.923654 S    
C21   C22   1.402366 A    
C60   C61   1.418225 A    
C55   C61   1.483063 S    
H28   C69   1.084175 S    
C15   H7    1.083022 S    
H27   C70   1.083644 S    
C40   H16   1.083214 S    
C2    C7    1.473655 S    
N9    C55   1.358876 A    
O14   Cr4   2.035016 S    
H33   C82   1.082918 S    
C31   C32   1.388837 A    
C38   C42   1.461519 S    
Cr3   O13   1.969792 S    
C86   Br6   1.919625 S    
C49   C50   1.406386 A    
C43   N14   1.437340 S    
C57   C58   1.396490 A    
C62   C95   1.477657 S    
C80   C89   1.431628 S    
C43   C44   1.391375 A    
C23   N13   1.438151 S    
O24   Cr6   2.034362 S    
C18   C19   1.199895 T    
O15   Cr4   1.918437 S    
O1    Cr1   2.035732 S    
C38   C39   1.408884 A    
N6    C42   1.355691 A    
N17   O35   1.301033 A    
N12   C55   1.357408 A    
O10   Cr2   1.916372 S    
Cr1   O13   1.975840 S    
O1    C3    1.270086 A    
C46   C47   1.400640 A    
N18   O38   1.301260 A    
C26   H10   1.083305 S    
N8    C41   1.357142 A    
C83   C84   1.394544 A    
C22   H9    1.083273 S    
O19   Cr6   1.917585 S    
O14   C93   1.271769 A    
N1    N2    1.329018 A    
C68   Br3   1.930155 S    
O25   Cr6   1.920727 S    
C60   N16   1.438805 S    
N11   C56   1.357283 A    
O12   Cr3   1.923006 S    
C90   C96   1.475904 S    
C25   C26   1.388597 A    
C59   H26   1.083351 S    
C32   C33   1.406251 A    
C15   C16   1.394905 A    
C21   C26   1.401084 A    
C1    C35   1.467930 S    
C39   C40   1.394433 A    
N17   O36   1.301219 A    
C9    C10   1.397057 A    
C57   H25   1.083089 S    
C30   H11   1.083450 S    
C45   C46   1.400260 A    
C70   C76   1.404955 A    
O7    Cr1   2.036195 S    
C78   C79   1.394093 A    
H1    C14   1.083064 S    
C54   H21   1.083043 S    
C51   C52   1.406087 A    
O12   C6    1.276720 A    
C34   C91   1.467358 S    
O20   Cr4   2.034759 S    
C24   C25   1.404125 A    
C52   C56   1.482270 S    
C79   C80   1.397568 A    
C29   C33   1.417877 A    
C32   H14   1.083045 S    
C65   C66   1.400253 A    
C84   C90   1.406398 A    
N13   O27   1.301474 A    
O22   Cr5   2.039224 S    
H31   C83   1.083741 S    
C46   H19   1.083914 S    
C58   H22   1.083296 S    
Cr2   O13   1.974220 S    
C3    C21   1.469898 S    
C9    H8    1.083635 S    
C69   C70   1.387716 A    
C4    C77   1.475561 S    
C51   H23   1.082811 S    
O20   C96   1.272750 A    
N15   O32   1.301446 A    
C67   N17   1.436866 S    
C1    O3    1.272341 A    
C39   Br2   1.920830 S    
C66   C75   1.437672 S    
C57   C61   1.407033 A    
C36   H15   1.083122 S    
C64   C65   1.388663 A    
C8    C9    1.394755 A    
C13   C17   1.397596 A    
O19   C93   1.278468 A    
N3    C28   1.357067 A    
H30   C84   1.082999 S    
C58   C62   1.401216 A    
N4    C27   1.358319 A    
O15   C91   1.272233 A    
C31   C34   1.400585 A    
O9    Cr2   2.036619 S    
O2    Cr1   1.919614 S    
O10   C5    1.305948 A    
C20   C92   1.473502 S    
C11   C12   1.393954 A    
C45   N15   1.437140 S    
C36   C37   1.388354 A    
C50   H20   1.082810 S    
O6    Cr3   1.918975 S    
C35   C40   1.405744 A    
C29   Br1   1.922870 S    
C63   C64   1.405328 A    
O11   Cr3   2.035161 S    
N3    N4    1.329749 A    
C2    O5    1.269727 A    
H4    C12   1.083010 S    
H2    C13   1.083742 S    
C92   O18   1.269804 A    
C74   C75   1.201747 T    
C73   C74   1.434295 S    
C35   C36   1.400442 A    
Cr6   O26   1.974072 S    
C44   C48   1.405835 A    
C71   N18   1.435673 S    
O5    Cr3   2.041310 S    
N7    C42   1.355928 A    
C29   C30   1.397224 A    
O4    C2    1.273729 A    
C94   O22   1.271861 A    
C49   C54   1.404836 A    
O7    C6    1.272520 A    
C22   C23   1.402234 A    
C27   C33   1.478288 S    
N9    N10   1.333092 A    
Cr4   O26   1.976022 S    
Cr5   O26   1.969723 S    
C13   C14   1.393824 A    
C10   C19   1.429498 S    
C15   C20   1.407708 A    
C63   C68   1.415949 A    
C87   C88   1.433613 S    
N5    N6    1.326944 A    
C24   C28   1.475047 S    
N5    C41   1.354163 A    
C77   C78   1.406798 A    
C7    C12   1.406293 A    
C85   C90   1.405886 A    
O3    Cr2   2.033616 S    
C69   C73   1.393431 A    
C45   C48   1.415803 A    
C4    O9    1.271235 A    
N1    C27   1.355675 A    
C23   C24   1.417920 A    
N2    C28   1.356289 A    
C7    C8    1.407741 A    
C81   C82   1.396244 A    
N16   O33   1.301680 A    
N11   N12   1.330278 A    
C48   C93   1.476738 S    
C66   C67   1.411318 A    
C88   C89   1.201273 T    
C6    C63   1.481035 S    
C25   H12   1.083127 S    
C43   C47   1.410117 A    
C71   C72   1.413082 A    
O8    C4    1.276888 A    
C79   H36   1.083796 S    
C59   C62   1.403684 A    
