data_mof_unit_38015.cif
_audit_creation_date              2012-12-10T19:13:32-0500
_audit_creation_method            fapswitch 2.2
_symmetry_space_group_name_H-M    P1
_symmetry_Int_Tables_number       1
_space_group_crystal_system       triclinic
_cell_length_a                    9.699439
_cell_length_b                    10.632146
_cell_length_c                    16.583338
_cell_angle_alpha                 90.39619
_cell_angle_beta                  84.6902
_cell_angle_gamma                 89.070032
_cell_volume                      1702.54716976

loop_
_atom_site_label
_atom_site_type_symbol
_atom_type_description
_atom_site_fract_x
_atom_site_fract_y
_atom_site_fract_z
_atom_type_partial_charge
C1    C     C_R   0.499973 0.742476 0.495704 0.855904
C2    C     C_R   0.534010 0.481767 0.258486 -0.168670
C3    C     C_3   0.391611 0.931418 0.437846 0.291098
C4    C     C_R   0.480764 0.489165 0.653453 0.894981
C5    C     C_3   0.402373 0.075628 0.434440 -0.464693
C6    C     C_3   0.468941 0.929808 0.582224 0.366370
C7    C     C_3   0.645897 0.926108 0.459546 -0.459282
C8    C     C_3   0.500271 0.879488 0.494024 0.036978
C9    C     C_3   0.504333 0.121889 0.494321 0.079533
C10   C     C_3   0.460632 0.074099 0.580664 -0.434875
C11   C     C_3   0.650709 0.069392 0.465445 -0.409320
C12   C     C_R   0.347672 0.437053 0.787310 0.517670
C13   C     C_3   0.907480 0.611390 0.545415 -0.322090
C14   C     C_3   0.070553 0.616877 0.542806 0.451923
C15   C     C_3   0.914718 0.388099 0.542153 -0.330433
C16   C     C_R   0.501816 0.257816 0.496713 0.868590
C17   C     C_3   0.931398 0.502866 0.418036 -0.295654
C18   C     C_3   0.078290 0.386651 0.539278 0.561666
C19   C     C_3   0.093994 0.504036 0.417411 -0.504448
C20   C     C_R   0.519830 0.498786 0.346070 0.906149
C21   C     C_R   0.472425 0.437632 0.735736 -0.143181
C22   C     C_R   0.591252 0.374761 0.758887 -0.257105
C23   C     C_R   0.425286 0.459553 0.133097 0.559535
C24   C     C_R   0.590813 0.318774 0.833707 -0.246465
C25   C     C_R   0.472846 0.327513 0.888015 -0.003492
C26   C     C_R   0.351657 0.384540 0.865199 -0.289009
C27   C     C_3   0.834598 0.258483 0.114828 -0.376016
C28   C     C_3   0.162604 0.909226 0.406622 0.098075
C29   C     C_3   0.024309 0.962093 0.443840 -0.923512
C30   C     C_3   0.524346 0.835642 0.702303 0.093568
C31   C     C_3   0.643683 0.797553 0.750775 -0.827381
C32   C     C_3   0.087319 0.757844 0.649286 0.063157
C33   C     C_3   0.124784 0.773667 0.735690 -0.790851
C34   C     C_R   0.416849 0.491249 0.215529 -0.367422
C35   C     C_3   0.100614 0.248026 0.646452 -0.372990
C36   C     C_3   0.190870 0.428393 0.124740 -0.240143
C37   C     C_3   0.104884 0.460057 0.804016 -0.218348
C38   C     C_3   0.358269 0.127070 0.981796 -0.353649
C39   C     C_R   0.662633 0.447009 0.218441 -0.319472
C40   C     C_R   0.673285 0.414952 0.136495 0.495954
C41   C     C_R   0.554543 0.420324 0.094328 -0.011222
C42   C     C_2   0.486365 0.309173 0.974568 0.549898
C43   C     C_2   0.567728 0.392068 0.007849 -0.209854
H1    H     H_    0.686232 0.368925 0.719180 0.169290
H2    H     H_    0.319520 0.524245 0.246179 0.166595
H3    H     H_    0.726110 0.096308 0.509037 0.205463
H4    H     H_    0.527944 0.114907 0.624745 0.186572
H5    H     H_    0.859825 0.610024 0.609016 0.179516
H6    H     H_    0.868534 0.698549 0.518241 0.136285
H7    H     H_    0.104536 0.699464 0.505734 0.091298
H8    H     H_    0.867229 0.385515 0.605684 0.166809
H9    H     H_    0.900558 0.419615 0.383322 0.164812
H10   H     H_    0.754582 0.441940 0.250797 0.171738
H11   H     H_    0.895687 0.587273 0.386005 0.173506
H12   H     H_    0.418609 0.890483 0.375974 0.050976
H13   H     H_    0.135225 0.587907 0.384261 0.174072
H14   H     H_    0.139473 0.421254 0.382434 0.178116
H15   H     H_    0.881095 0.301286 0.512342 0.124869
H16   H     H_    0.117780 0.305707 0.499960 0.028647
H17   H     H_    0.637939 0.450463 0.969928 0.131290
H18   H     H_    0.264345 0.394064 0.910526 0.171056
H19   H     H_    0.685564 0.276444 0.851653 0.141712
H20   H     H_    0.753367 0.192580 0.098373 0.177921
H21   H     H_    0.852112 0.248583 0.179859 0.159013
H22   H     H_    0.932506 0.231059 0.078612 0.188514
H23   H     H_    0.438399 0.104593 0.371699 0.128476
H24   H     H_    0.147027 0.814455 0.380926 0.136196
H25   H     H_    0.199098 0.971689 0.355496 0.128312
H26   H     H_    0.036919 0.059902 0.465575 0.242342
H27   H     H_    0.948363 0.962782 0.397704 0.219039
H28   H     H_    0.984199 0.903895 0.495791 0.242018
H29   H     H_    0.466626 0.749471 0.689370 0.138282
H30   H     H_    0.455146 0.903012 0.739221 0.131238
H31   H     H_    0.704108 0.881560 0.764682 0.249655
H32   H     H_    0.602703 0.753480 0.808418 0.208363
H33   H     H_    0.712881 0.728651 0.715637 0.252121
H34   H     H_    0.298098 0.119520 0.449286 0.207115
H35   H     H_    0.976573 0.786158 0.648463 0.119753
H36   H     H_    0.150489 0.823685 0.610485 0.174031
H37   H     H_    0.116459 0.874633 0.753385 0.178940
H38   H     H_    0.052403 0.720156 0.777701 0.254931
H39   H     H_    0.232379 0.740359 0.740803 0.267197
H40   H     H_    0.119686 0.173802 0.598926 0.141864
H41   H     H_    0.993692 0.240219 0.676005 0.148851
H42   H     H_    0.173115 0.228357 0.692907 0.192788
H43   H     H_    0.139063 0.497036 0.168861 0.146435
H44   H     H_    0.208430 0.336458 0.154359 0.163737
H45   H     H_    0.365564 0.895308 0.606499 0.066454
H46   H     H_    0.119022 0.411543 0.077656 0.210921
H47   H     H_    0.088683 0.510929 0.862958 0.139090
H48   H     H_    0.099524 0.356506 0.812635 0.125666
H49   H     H_    0.018202 0.487312 0.768184 0.216615
H50   H     H_    0.449401 0.077071 0.949697 0.160906
H51   H     H_    0.281089 0.152390 0.938868 0.168230
H52   H     H_    0.308004 0.060783 0.026276 0.189709
H53   H     H_    0.352973 0.105716 0.600078 0.140295
H54   H     H_    0.729562 0.886460 0.493715 0.235515
H55   H     H_    0.668239 0.895419 0.395273 0.150382
H56   H     H_    0.687515 0.108528 0.405297 0.166648
N1    N     N_3   0.861190 0.500250 0.501720 -0.059470
N2    N     N_3   0.138550 0.503270 0.501080 -0.088001
O1    O     O_R   0.383960 0.685090 0.500020 -0.596513
O2    O     O_3   0.255159 0.899017 0.467781 -0.626579
O3    O     O_3   0.577494 0.891652 0.629342 -0.612298
O4    O     O_3   0.112310 0.631705 0.622177 -0.516345
O5    O     O_3   0.123411 0.371707 0.617562 -0.510328
O6    O     O_3   0.314198 0.478492 0.086827 -0.604336
O7    O     O_3   0.230510 0.496403 0.761168 -0.552508
O8    O     O_3   0.397721 0.234350 0.024002 -0.598448
O9    O     O_R   0.616040 0.685320 0.499960 -0.611785
O10   O     O_R   0.370240 0.499890 0.615830 -0.472085
O11   O     O_R   0.602330 0.500120 0.615770 -0.636484
O12   O     O_R   0.383960 0.314680 0.500040 -0.626999
O13   O     O_R   0.616040 0.314910 0.499980 -0.636488
O14   O     O_R   0.397670 0.499880 0.384230 -0.638580
O15   O     O_R   0.629760 0.500110 0.384170 -0.630887
O16   O     O_3   0.800833 0.383864 0.096377 -0.615182
Zn1   Zn    Zn3+2 0.345040 0.499850 0.500040 1.000471
Zn2   Zn    Zn3+2 0.654960 0.500150 0.499960 0.901189

loop_
_geom_bond_atom_site_label_1
_geom_bond_atom_site_label_2
_ccdc_geom_bond_type
C19   H13   S    
C36   H46   S    
C15   C18   S    
C7    H55   S    
C1    C8    S    
C19   N2    S    
C15   N1    S    
C16   O12   A    
C7    C8    S    
C14   H7    S    
C19   H14   S    
C7    C11   S    
C37   H47   S    
O10   Zn1   S    
N2    Zn1   S    
C28   C29   S    
C28   H25   S    
C26   H18   S    
C30   C31   S    
C20   O15   A    
C6    H45   S    
C11   H56   S    
C3    H12   S    
C2    C39   A    
C14   O4    S    
C22   H1    S    
C38   H52   S    
C15   H8    S    
C9    C10   S    
O13   Zn2   S    
O1    Zn1   S    
C2    C34   A    
C40   O16   S    
C4    O11   A    
C13   C14   S    
C36   O6    S    
C41   C43   S    
C17   H9    S    
C29   H26   S    
C27   O16   S    
C36   H44   S    
C37   H48   S    
C2    C20   S    
C28   H24   S    
C24   C25   A    
C37   O7    S    
C3    C8    S    
C39   C40   A    
N1    Zn2   S    
C30   H30   S    
C35   H40   S    
C14   N2    S    
C6    C8    S    
C36   H43   S    
C25   C26   A    
C12   C21   A    
C12   C26   A    
C18   N2    S    
O9    Zn2   S    
C18   O5    S    
C5    C9    S    
C27   H22   S    
C1    O9    A    
C20   O14   A    
C31   H32   S    
C13   H5    S    
C10   H53   S    
O14   Zn1   S    
C23   O6    S    
C38   H51   S    
C34   H2    S    
C38   O8    S    
C9    C11   S    
C27   H20   S    
C43   H17   S    
C13   H6    S    
C40   C41   A    
C4    O10   A    
C6    O3    S    
C32   O4    S    
C15   H15   S    
C22   C24   A    
C42   C43   D    
C5    H34   S    
C12   O7    S    
C29   H27   S    
C33   H39   S    
C3    O2    S    
C23   C34   A    
C24   H19   S    
C7    H54   S    
C37   H49   S    
C42   O8    S    
C5    H23   S    
C3    C5    S    
C16   O13   A    
C25   C42   S    
C6    C10   S    
O11   Zn2   S    
C30   H29   S    
C35   H41   S    
C33   H37   S    
C23   C41   A    
O15   Zn2   S    
C32   C33   S    
C13   N1    S    
C35   O5    S    
C32   H36   S    
C4    C21   S    
C35   H42   S    
C28   O2    S    
C31   H33   S    
C39   H10   S    
C17   H11   S    
C38   H50   S    
C17   C19   S    
C31   H31   S    
C17   N1    S    
C27   H21   S    
C32   H35   S    
O12   Zn1   S    
C18   H16   S    
C30   O3    S    
C10   H4    S    
C11   H3    S    
C21   C22   A    
C33   H38   S    
C1    O1    A    
C9    C16   S    
C29   H28   S    
