data_mof_unit_42220.cif
_audit_creation_date              2013-03-05T15:45:59-0500
_audit_creation_method            fapswitch 2.2
_symmetry_space_group_name_H-M    P1
_symmetry_Int_Tables_number       1
_space_group_crystal_system       triclinic
_cell_length_a                    19.033454
_cell_length_b                    10.908979
_cell_length_c                    18.788264
_cell_angle_alpha                 90.19176
_cell_angle_beta                  90.35675
_cell_angle_gamma                 89.638837
_cell_volume                      3900.93706665

loop_
_atom_site_label
_atom_site_type_symbol
_atom_site_description
_atom_site_fract_x
_atom_site_fract_y
_atom_site_fract_z
_atom_type_partial_charge
O1    O     O_R   0.787510 0.042610 0.670410 -0.536864
O2    O     O_R   0.212490 0.042610 0.329590 -0.531578
O3    O     O_R   0.287510 0.542610 0.670410 -0.536532
O4    O     O_R   0.712490 0.542610 0.329590 -0.531733
O5    O     O_R   0.765670 0.292090 0.675090 -0.515908
O6    O     O_R   0.234330 0.292090 0.324910 -0.503294
O7    O     O_R   0.265670 0.792090 0.675090 -0.515847
O8    O     O_R   0.734330 0.792090 0.324910 -0.500731
C1    C     C_R   0.727634 0.371762 0.643616 0.587706
C2    C     C_R   0.271443 0.372658 0.355380 0.542913
C3    C     C_R   0.227633 0.871760 0.643615 0.587711
C4    C     C_R   0.771445 0.872651 0.355382 0.548670
O9    O     O_R   0.670220 0.409020 0.668560 -0.475376
O10   O     O_R   0.329780 0.409020 0.331440 -0.497722
O11   O     O_R   0.170220 0.909020 0.668560 -0.474959
O12   O     O_R   0.829780 0.909020 0.331440 -0.494959
O13   O     O_R   0.556580 0.251590 0.674980 -0.507907
O14   O     O_R   0.443420 0.251590 0.325020 -0.509909
O15   O     O_R   0.056580 0.751590 0.674980 -0.506666
O16   O     O_R   0.943420 0.751590 0.325020 -0.510304
C5    C     C_R   0.563648 0.149921 0.638813 0.566121
C6    C     C_R   0.469980 0.155509 0.352387 0.542541
C7    C     C_R   0.063648 0.649920 0.638813 0.566471
C8    C     C_R   0.969981 0.655510 0.352386 0.543365
O17   O     O_R   0.545890 0.049670 0.670030 -0.488742
O18   O     O_R   0.454110 0.049670 0.329970 -0.454558
O19   O     O_R   0.045890 0.549670 0.670030 -0.487489
O20   O     O_R   0.954110 0.549670 0.329970 -0.453724
O21   O     O_R   0.681340 0.957860 0.676500 -0.457204
O22   O     O_R   0.318660 0.957860 0.323500 -0.440162
O23   O     O_R   0.181340 0.457860 0.676500 -0.456491
O24   O     O_R   0.818660 0.457860 0.323500 -0.439437
C9    C     C_R   0.741489 0.970186 0.647389 0.590138
C10   C     C_R   0.258711 0.966099 0.351701 0.547941
C11   C     C_R   0.241488 0.470188 0.647388 0.590903
C12   C     C_R   0.758711 0.466102 0.351702 0.548470
O25   O     O_R   0.787380 0.044010 0.830940 -0.497715
O26   O     O_R   0.212620 0.044010 0.169060 -0.526000
O27   O     O_R   0.287380 0.544010 0.830940 -0.497369
O28   O     O_R   0.712620 0.544010 0.169060 -0.523000
O29   O     O_R   0.765540 0.293390 0.823910 -0.471576
O30   O     O_R   0.234460 0.293390 0.176090 -0.467294
O31   O     O_R   0.265540 0.793390 0.823910 -0.472629
O32   O     O_R   0.734460 0.793390 0.176090 -0.449731
C13   C     C_R   0.710909 0.329941 0.859923 0.579957
C14   C     C_R   0.271942 0.374390 0.145958 0.575311
C15   C     C_R   0.211822 0.832354 0.860066 0.576736
C16   C     C_R   0.787789 0.832441 0.140013 0.573804
O33   O     O_R   0.670090 0.410410 0.829090 -0.513231
O34   O     O_R   0.329910 0.410410 0.170910 -0.533410
O35   O     O_R   0.170090 0.910410 0.829090 -0.515881
O36   O     O_R   0.829910 0.910410 0.170910 -0.517672
O37   O     O_R   0.556450 0.252890 0.823790 -0.533911
O38   O     O_R   0.443550 0.252890 0.176210 -0.523054
O39   O     O_R   0.056450 0.752890 0.823790 -0.532679
O40   O     O_R   0.943550 0.752890 0.176210 -0.533345
C17   C     C_R   0.529967 0.158206 0.851719 0.578511
C18   C     C_R   0.463191 0.155348 0.143630 0.557146
C19   C     C_R   0.031643 0.658461 0.852636 0.581243
C20   C     C_R   0.963356 0.656055 0.144017 0.554504
O41   O     O_R   0.545750 0.051070 0.830560 -0.478588
O42   O     O_R   0.454250 0.051070 0.169440 -0.471499
O43   O     O_R   0.045750 0.551070 0.830560 -0.484750
O44   O     O_R   0.954250 0.551070 0.169440 -0.478732
O45   O     O_R   0.681210 0.959150 0.825320 -0.507795
O46   O     O_R   0.318790 0.959150 0.174680 -0.492260
O47   O     O_R   0.181210 0.459150 0.825320 -0.510696
O48   O     O_R   0.818790 0.459150 0.174680 -0.481804
C21   C     C_R   0.742376 0.967684 0.852935 0.565760
C22   C     C_R   0.257087 0.967595 0.147337 0.542412
C23   C     C_R   0.241123 0.470092 0.853845 0.565656
C24   C     C_R   0.756368 0.465200 0.148005 0.540474
Cr1   Cr    Cr6+3 0.771950 0.169480 0.750100 1.034805
Cr2   Cr    Cr6+3 0.228050 0.169480 0.249900 1.044242
Cr3   Cr    Cr6+3 0.271950 0.669480 0.750100 1.033384
Cr4   Cr    Cr6+3 0.728050 0.669480 0.249900 1.048161
Cr5   Cr    Cr6+3 0.614930 0.323340 0.749170 1.039663
Cr6   Cr    Cr6+3 0.385070 0.323340 0.250830 1.032755
Cr7   Cr    Cr6+3 0.114930 0.823340 0.749170 1.040916
Cr8   Cr    Cr6+3 0.885070 0.823340 0.250830 1.031146
Cr9   Cr    Cr6+3 0.616590 0.010620 0.750610 1.073781
Cr10  Cr    Cr6+3 0.383410 0.010620 0.249390 1.111539
Cr11  Cr    Cr6+3 0.116590 0.510620 0.750610 1.073357
Cr12  Cr    Cr6+3 0.883410 0.510620 0.249390 1.105356
O49   O     O_3   0.667820 0.167810 0.749960 -0.317399
O50   O     O_3   0.332180 0.167810 0.250040 -0.276964
O51   O     O_3   0.167820 0.667810 0.749960 -0.317682
O52   O     O_3   0.832180 0.667810 0.250040 -0.294041
C25   C     C_R   0.514206 0.165891 0.416049 0.010085
C26   C     C_R   0.549442 0.154698 0.561864 0.011168
C27   C     C_R   0.014206 0.665897 0.416047 0.009723
C28   C     C_R   0.049442 0.654699 0.561863 0.010863
C29   C     C_R   0.509168 0.269433 0.459607 -0.033820
C30   C     C_R   0.528160 0.264754 0.530496 -0.039987
C31   C     C_R   0.009162 0.769435 0.459608 -0.033904
C32   C     C_R   0.028154 0.764754 0.530497 -0.040046
C33   C     C_R   0.562501 0.051910 0.516878 0.095514
C34   C     C_R   0.551577 0.062753 0.442203 0.122497
C35   C     C_R   0.062506 0.551916 0.516873 0.095534
C36   C     C_R   0.051583 0.562764 0.442198 0.122504
C37   C     C_3   0.448820 0.354096 0.473659 -0.237082
C38   C     C_3   0.469945 0.349923 0.551553 -0.249571
C39   C     C_3   0.948809 0.854084 0.473661 -0.237203
C40   C     C_3   0.969934 0.849910 0.551556 -0.249362
H1    H     H_    0.897114 0.810701 0.462981 0.159393
H2    H     H_    0.989949 0.938987 0.571891 0.165798
H3    H     H_    0.397122 0.310724 0.462979 0.159578
H4    H     H_    0.489966 0.438998 0.571887 0.165759
H5    H     H_    0.456221 0.445696 0.449176 0.178286
H6    H     H_    0.430118 0.305383 0.585806 0.166955
H7    H     H_    0.956203 0.945687 0.449181 0.178172
H8    H     H_    0.930109 0.805360 0.585808 0.167236
C41   C     C_R   0.728007 0.823571 0.546224 0.194770
C42   C     C_R   0.308382 0.868964 0.462423 0.180477
C43   C     C_R   0.228003 0.323578 0.546219 0.194417
C44   C     C_R   0.808385 0.368978 0.462426 0.180505
C45   C     C_R   0.730819 0.805829 0.472813 -0.143707
C46   C     C_R   0.302431 0.865362 0.536382 -0.140569
C47   C     C_R   0.230815 0.305838 0.472808 -0.142984
C48   C     C_R   0.802433 0.365373 0.536384 -0.140552
H9    H     H_    0.716259 0.717518 0.450859 0.168627
H10   H     H_    0.346803 0.835964 0.568615 0.161501
H11   H     H_    0.216254 0.217528 0.450854 0.168866
H12   H     H_    0.846805 0.335978 0.568618 0.161586
C49   C     C_R   0.755851 0.899634 0.428440 -0.044548
C50   C     C_R   0.238534 0.893918 0.568498 0.007593
C51   C     C_R   0.255848 0.399643 0.428436 -0.043159
C52   C     C_R   0.738536 0.393924 0.568500 0.007745
C53   C     C_R   0.776312 0.011536 0.456418 -0.159517
C54   C     C_R   0.179438 0.920971 0.526439 -0.097773
C55   C     C_R   0.276309 0.511544 0.456415 -0.159660
C56   C     C_R   0.679439 0.420976 0.526440 -0.097786
H13   H     H_    0.795570 0.083664 0.422526 0.189139
H14   H     H_    0.128420 0.937551 0.549685 0.185445
H15   H     H_    0.295567 0.583672 0.422523 0.188603
H16   H     H_    0.628421 0.437554 0.549685 0.185481
C57   C     C_R   0.773484 0.029749 0.528561 -0.167017
C58   C     C_R   0.184731 0.927990 0.453776 -0.175418
C59   C     C_R   0.273482 0.529755 0.528559 -0.167076
C60   C     C_R   0.684733 0.427996 0.453777 -0.175307
H17   H     H_    0.788764 0.118400 0.549064 0.150048
H18   H     H_    0.138652 0.955639 0.423513 0.158276
H19   H     H_    0.288763 0.618404 0.549063 0.150042
H20   H     H_    0.638653 0.455643 0.423514 0.158404
C61   C     C_R   0.749902 0.936488 0.573823 0.035562
C62   C     C_R   0.249694 0.910047 0.421305 -0.002530
C63   C     C_R   0.249900 0.436493 0.573820 0.035180
C64   C     C_R   0.749696 0.410055 0.421307 -0.002137
C65   C     C_R   0.467349 0.064210 0.950567 0.097113
C66   C     C_R   0.465120 0.054148 0.024430 0.096659
C67   C     C_R   0.958428 0.580460 0.948871 0.088693
C68   C     C_R   0.946818 0.575222 0.022009 0.084249
C69   C     C_R   0.479878 0.158315 0.067703 0.044340
C70   C     C_R   0.495717 0.169525 0.920411 0.049556
C71   C     C_R   0.978258 0.661896 0.068232 0.035222
C72   C     C_R   0.001042 0.672505 0.922438 0.047754
C73   C     C_R   0.498801 0.268772 0.035721 -0.191498
C74   C     C_R   0.507336 0.273987 0.962434 -0.188237
C75   C     C_R   0.015149 0.760287 0.040207 -0.196704
C76   C     C_R   0.025602 0.766268 0.967324 -0.187113
H21   H     H_    0.508190 0.350199 0.067460 0.129620
H22   H     H_    0.525801 0.357956 0.938940 0.128486
H23   H     H_    0.036438 0.831033 0.074564 0.133561
H24   H     H_    0.056133 0.840443 0.946333 0.136245
C77   C     C_R   0.823724 0.905856 0.949764 -0.128942
C78   C     C_R   0.187291 0.969257 0.038769 -0.144627
C79   C     C_R   0.314836 0.410776 0.955110 -0.135348
C80   C     C_R   0.678516 0.445807 0.043934 -0.142801
H25   H     H_    0.868641 0.934343 0.918927 0.145488
H26   H     H_    0.154186 0.041858 0.059766 0.148929
H27   H     H_    0.361813 0.418588 0.923169 0.138935
H28   H     H_    0.641696 0.510367 0.067081 0.143537
C81   C     C_R   0.833028 0.879649 0.021362 -0.173080
C82   C     C_R   0.179911 0.942390 0.968304 -0.171960
C83   C     C_R   0.321027 0.399570 0.027827 -0.164462
C84   C     C_R   0.670858 0.419684 0.972717 -0.165957
H29   H     H_    0.885173 0.886388 0.044272 0.135007
H30   H     H_    0.140612 0.994193 0.939027 0.140086
H31   H     H_    0.373326 0.393935 0.050419 0.141953
H32   H     H_    0.628420 0.464940 0.944447 0.131254
C85   C     C_R   0.775220 0.850938 0.063868 0.062114
C86   C     C_R   0.223283 0.854785 0.935991 0.049734
C87   C     C_R   0.260890 0.396461 0.070987 0.075870
C88   C     C_R   0.719526 0.344513 0.937653 0.044486
C89   C     C_R   0.707835 0.838836 0.032182 0.088979
C90   C     C_R   0.273202 0.789080 0.977786 0.069594
C91   C     C_R   0.193696 0.398224 0.040352 0.072594
C92   C     C_R   0.772443 0.283739 0.978371 0.074023
C93   C     C_R   0.699170 0.865748 0.960390 -0.125731
C94   C     C_R   0.279671 0.817003 0.050412 -0.134926
C95   C     C_R   0.187725 0.410672 0.966961 -0.122446
C96   C     C_R   0.779287 0.310770 0.051404 -0.126366
H33   H     H_    0.646599 0.864022 0.937874 0.131791
H34   H     H_    0.318747 0.770669 0.082979 0.126305
H35   H     H_    0.135628 0.419813 0.943873 0.138372
H36   H     H_    0.822041 0.271070 0.082096 0.133780
C97   C     C_R   0.756099 0.905696 0.920118 0.027877
C98   C     C_R   0.239889 0.912118 0.079373 0.013119
C99   C     C_R   0.248363 0.421661 0.924848 0.034030
C100  C     C_R   0.736583 0.400768 0.082198 0.005853
N1    N     N_3   0.579977 0.935098 0.547966 -0.558504
H37   H     H_    0.534944 0.903574 0.573436 0.284175
H38   H     H_    0.589629 0.868527 0.509383 0.280445
N2    N     N_3   0.572181 0.964769 0.394928 -0.536548
H39   H     H_    0.575953 0.997826 0.342972 0.232548
H40   H     H_    0.624265 0.943376 0.406540 0.214622
N3    N     N_3   0.079983 0.435103 0.547958 -0.558605
H41   H     H_    0.034952 0.403580 0.573433 0.284242
H42   H     H_    0.089628 0.368534 0.509372 0.280475
N4    N     N_3   0.072193 0.464790 0.394918 -0.537031
H43   H     H_    0.075964 0.497853 0.342963 0.231688
H44   H     H_    0.124276 0.443401 0.406530 0.214340
N5    N     N_3   0.647124 0.807611 0.072889 -0.583408
H45   H     H_    0.611729 0.881208 0.070314 0.232731
H46   H     H_    0.623272 0.731703 0.048963 0.209862
N6    N     N_3   0.318869 0.698823 0.946716 -0.592094
H47   H     H_    0.347338 0.653241 0.986455 0.215126
H48   H     H_    0.356282 0.744901 0.916684 0.236712
N7    N     N_3   0.132016 0.392663 0.083538 -0.609104
H49   H     H_    0.102236 0.471993 0.074344 0.233831
H50   H     H_    0.102286 0.317674 0.066530 0.227284
N8    N     N_3   0.821332 0.200831 0.945609 -0.588934
H51   H     H_    0.849870 0.153271 0.984525 0.214956
H52   H     H_    0.857916 0.253346 0.918239 0.232615
N9    N     N_R   0.701954 0.728688 0.591413 0.080835
O53   O     O_R   0.644655 0.671240 0.574220 -0.364724
O54   O     O_R   0.733501 0.702736 0.651178 -0.330661
N10   N     N_R   0.373657 0.831010 0.430767 0.093529
O55   O     O_R   0.432689 0.850391 0.464089 -0.336978
O56   O     O_R   0.373496 0.757671 0.375994 -0.342513
N11   N     N_R   0.201948 0.228693 0.591405 0.080832
O57   O     O_R   0.144650 0.171245 0.574209 -0.364626
O58   O     O_R   0.233500 0.202724 0.651165 -0.330238
N12   N     N_R   0.873663 0.331034 0.430771 0.093508
O59   O     O_R   0.932693 0.350433 0.464092 -0.337010
O60   O     O_R   0.873506 0.257684 0.376003 -0.341698
N13   N     N_3   0.442184 0.966974 0.905506 -0.599650
H53   H     H_    0.469060 0.885753 0.917548 0.221656
H54   H     H_    0.388577 0.955520 0.914851 0.231952
N14   N     N_3   0.448547 0.937689 0.055064 -0.587329
H55   H     H_    0.400338 0.909913 0.034812 0.227936
H56   H     H_    0.486654 0.873676 0.039721 0.207570
N15   N     N_3   0.927982 0.492150 0.901077 -0.599623
H57   H     H_    0.946350 0.405004 0.915041 0.220363
H58   H     H_    0.873299 0.495052 0.905546 0.237479
N16   N     N_3   0.899404 0.486659 0.049035 -0.587151
H59   H     H_    0.850873 0.504735 0.025103 0.226044
H60   H     H_    0.917187 0.399261 0.034656 0.218689

loop_
_geom_bond_atom_site_label_1
_geom_bond_atom_site_label_2
_geom_bond_distance
_ccdc_geom_bond_type
O7    Cr3   1.948841 S    
C37   H3    1.111369 S    
Cr11  O51   1.978076 S    
O4    C12   1.277372 A    
C18   O42   1.251134 A    
C29   C30   1.378912 A    
C26   C30   1.395887 A    
O39   C19   1.261290 A    
O20   Cr12  2.064437 S    
N1    H37   1.044929 S    
O37   Cr5   1.957693 S    
C31   C32   1.378916 A    
C28   C32   1.395885 A    
C47   H11   1.083659 S    
C82   C86   1.398504 A    
C77   H25   1.083451 S    
N10   O56   1.301391 A    
C33   C34   1.422265 A    
C79   C99   1.388426 A    
O1    C9    1.257083 A    
C91   N7    1.432950 S    
N5    H45   1.045869 S    
O45   C21   1.275429 A    
O7    C3    1.272550 A    
C84   H32   1.081526 S    
C59   C63   1.405700 A    
C73   C74   1.388873 A    
N12   O60   1.301390 A    
O36   Cr8   2.058273 S    
C96   H36   1.083376 S    
C57   C61   1.405698 A    
N6    H48   1.043819 S    
C70   C74   1.402104 A    
C87   C91   1.399261 A    
C85   C89   1.417369 A    
C86   C90   1.420929 A    
C16   C85   1.463472 S    
C44   C48   1.395567 A    
C56   H16   1.081171 S    
O47   C23   1.263144 A    
O46   Cr10  1.944286 S    
C50   C54   1.401087 A    
C37   H5    1.111571 S    
N15   H57   1.044598 S    
C34   N2    1.441525 S    
O21   C9    1.279896 A    
O8    Cr4   1.943392 S    
O23   Cr11  1.948320 S    
C39   H7    1.111570 S    
O30   C14   1.275367 A    
C73   H21   1.083383 S    
C41   C61   1.399783 A    
C17   O41   1.268144 A    
O32   Cr4   1.944711 S    
C1    O9    1.256380 A    
O44   Cr12  2.075147 S    
C45   H9    1.083660 S    
C3    O11   1.256382 A    
C12   C64   1.457036 S    
O11   Cr7   2.077642 S    
C4    O12   1.267087 A    
O33   Cr5   2.059740 S    
N15   H58   1.044971 S    
C66   C69   1.423440 A    
C90   N6    1.434371 S    
C65   N13   1.437601 S    
C67   C68   1.394568 A    
C38   H4    1.111642 S    
O27   Cr3   2.066376 S    
C27   C36   1.415111 A    
O3    Cr3   2.057043 S    
Cr4   O52   1.981910 S    
C26   C33   1.423463 A    
C43   N11   1.433777 S    
O2    Cr2   2.066278 S    
O8    C4    1.264351 A    
O2    C10   1.277378 A    
C96   C100  1.396884 A    
O24   C12   1.263607 A    
O42   Cr10  2.075147 S    
Cr5   O49   1.967427 S    
C22   C98   1.447771 S    
C82   H30   1.083077 S    
C21   C97   1.455388 S    
N1    H38   1.040710 S    
C60   C64   1.394606 A    
C54   H14   1.081171 S    
C59   H19   1.080688 S    
C15   C86   1.461778 S    
C52   C56   1.401087 A    
C36   N4    1.441531 S    
Cr7   O51   1.967427 S    
N10   O55   1.300929 A    
C31   C39   1.493594 S    
O29   C13   1.303748 A    
O6    Cr2   1.943392 S    
C94   H34   1.083830 S    
O9    Cr5   2.077642 S    
C5    C26   1.470187 S    
N5    H46   1.045749 S    
O31   Cr3   1.937176 S    
O24   Cr12  1.955651 S    
C66   N14   1.434229 S    
N16   H60   1.044946 S    
C78   C82   1.361608 A    
C1    C52   1.449089 S    
O30   Cr2   1.944711 S    
O22   C10   1.263611 A    
C71   C75   1.392921 A    
N3    H41   1.044926 S    
O48   Cr12  1.944286 S    
C37   C38   1.516074 S    
C8    O20   1.265420 A    
C72   C76   1.404019 A    
C3    C50   1.449095 S    
C55   C59   1.370620 A    
N6    H47   1.045165 S    
C42   C62   1.425028 A    
C39   H1    1.111369 S    
C5    O17   1.290614 A    
C58   H18   1.084015 S    
C29   C37   1.493596 S    
N7    H49   1.045779 S    
C44   C64   1.425027 A    
O16   Cr8   1.940647 S    
C15   O35   1.297592 A    
C4    C49   1.435324 S    
C95   H35   1.083997 S    
Cr10  O50   1.967319 S    
O29   Cr1   1.937176 S    
O14   Cr6   1.940647 S    
C25   C29   1.395785 A    
O13   C5    1.305439 A    
O28   Cr4   2.062089 S    
C43   C47   1.393450 A    
C35   N3    1.439737 S    
C83   H31   1.081189 S    
O12   Cr8   2.067084 S    
C14   C87   1.443699 S    
C90   C94   1.401949 A    
O15   C7    1.305443 A    
C65   C70   1.395869 A    
C78   C98   1.399495 A    
O5    C1    1.272552 A    
C18   C69   1.463909 S    
C77   C97   1.399309 A    
C24   C100  1.468424 S    
O39   Cr7   1.957693 S    
O25   C21   1.270238 A    
C55   H15   1.081133 S    
C41   N9    1.433783 S    
C75   C76   1.386761 A    
C68   C71   1.414728 A    
C13   O33   1.303454 A    
O48   C24   1.287994 A    
O43   Cr11  2.069387 S    
C42   N10   1.438694 S    
N14   H56   1.044839 S    
N9    O53   1.299758 A    
C88   C92   1.422894 A    
C53   C57   1.370611 A    
N11   O58   1.301206 A    
C11   C63   1.438710 S    
C67   C72   1.389744 A    
Cr2   O50   1.981910 S    
O15   Cr7   1.942532 S    
O35   Cr7   2.059740 S    
Cr1   O49   1.982137 S    
C42   C46   1.395570 A    
C9    C61   1.438693 S    
C89   C93   1.389975 A    
C41   C45   1.393459 A    
N4    H44   1.038999 S    
Cr3   O51   1.982137 S    
O26   C22   1.253383 A    
N11   O57   1.299761 A    
N2    H40   1.039009 S    
O21   Cr9   1.948320 S    
C78   H26   1.083810 S    
C7    O19   1.290617 A    
N13   H54   1.044738 S    
C49   C53   1.384678 A    
C2    O10   1.267092 A    
C53   H13   1.081136 S    
C19   O43   1.269163 A    
C81   C85   1.401239 A    
N12   O59   1.300927 A    
O3    C11   1.257088 A    
C2    C51   1.435306 S    
C54   C58   1.371978 A    
C8    C27   1.462802 S    
C76   H24   1.076529 S    
O34   Cr6   2.058273 S    
O47   Cr11  1.942522 S    
C89   N5    1.433159 S    
C94   C98   1.391938 A    
C40   H8    1.112523 S    
O38   C18   1.280693 A    
C80   H28   1.082501 S    
C93   C97   1.398185 A    
C7    C28   1.470212 S    
C84   C88   1.399619 A    
C57   H17   1.080694 S    
N16   H59   1.042804 S    
N8    H52   1.043542 S    
O37   C17   1.268784 A    
O22   Cr10  1.955651 S    
O28   C24   1.257695 A    
O14   C6    1.269744 A    
C83   C87   1.407512 A    
C91   C95   1.389897 A    
O5    Cr1   1.948841 S    
C80   C100  1.401923 A    
Cr12  O52   1.967319 S    
C95   C99   1.409323 A    
O17   Cr9   2.063025 S    
O6    C2    1.264360 A    
C79   H27   1.083918 S    
C19   C72   1.445587 S    
C48   C52   1.394026 A    
C28   C35   1.423475 A    
C23   C99   1.441967 S    
C40   H2    1.111643 S    
C33   N1    1.439746 S    
C56   C60   1.371977 A    
C17   C70   1.454062 S    
C14   O34   1.260684 A    
O25   Cr1   2.066376 S    
O40   Cr8   1.948482 S    
C35   C36   1.422276 A    
C92   C96   1.407937 A    
C25   C34   1.415130 A    
C20   O44   1.255807 A    
C43   C63   1.399788 A    
O1    Cr1   2.057043 S    
C60   H20   1.084014 S    
C32   C40   1.495832 S    
C20   C71   1.455262 S    
C68   N16   1.423242 S    
Cr8   O52   1.978257 S    
O32   C16   1.298913 A    
O41   Cr9   2.069387 S    
C65   C66   1.393390 A    
O13   Cr5   1.942532 S    
C10   C62   1.457043 S    
Cr6   O50   1.978257 S    
O46   C22   1.281830 A    
O31   C15   1.299520 A    
C58   C62   1.394610 A    
C46   H10   1.083699 S    
O23   C11   1.279895 A    
O19   Cr11  2.063025 S    
N14   H55   1.037755 S    
N9    O54   1.301211 A    
C6    C25   1.462809 S    
O26   Cr2   2.062089 S    
C79   C83   1.376353 A    
C75   H23   1.083447 S    
N7    H50   1.045647 S    
O10   Cr6   2.067084 S    
C69   C73   1.398487 A    
N8    H51   1.045409 S    
C51   C55   1.384674 A    
O4    Cr4   2.066278 S    
C38   H6    1.112524 S    
C74   H22   1.079884 S    
C67   N15   1.437022 S    
C93   H33   1.084166 S    
C16   O36   1.304859 A    
O40   C20   1.271779 A    
N2    H39   1.044824 S    
C30   C38   1.495830 S    
C27   C31   1.395787 A    
O18   Cr10  2.064437 S    
N4    H43   1.044830 S    
C6    O18   1.265416 A    
C44   N12   1.438688 S    
C39   C40   1.516072 S    
N3    H42   1.040713 S    
O27   C23   1.275379 A    
O45   Cr9   1.942522 S    
C46   C50   1.394030 A    
C80   C84   1.374167 A    
C81   H29   1.082175 S    
N13   H53   1.045043 S    
C77   C81   1.386241 A    
C45   C49   1.409268 A    
O16   C8    1.269729 A    
Cr9   O49   1.978076 S    
C48   H12   1.083698 S    
C13   C88   1.476739 S    
C92   N8    1.433729 S    
O38   Cr6   1.948482 S    
C47   C51   1.409258 A    
