data_mof_unit_51348.cif
_audit_creation_date              2012-12-10T19:03:41-0500
_audit_creation_method            fapswitch 2.2
_symmetry_space_group_name_H-M    P1
_symmetry_Int_Tables_number       1
_space_group_crystal_system       triclinic
_cell_length_a                    15.880538
_cell_length_b                    10.842333
_cell_length_c                    9.558229
_cell_angle_alpha                 89.80672
_cell_angle_beta                  90.059012
_cell_angle_gamma                 89.993421
_cell_volume                      1645.74551348

loop_
_atom_site_label
_atom_site_type_symbol
_atom_type_description
_atom_site_fract_x
_atom_site_fract_y
_atom_site_fract_z
_atom_type_partial_charge
C1    C     C_R   0.499892 0.262715 0.500308 0.805427
C2    C     C_3   0.952335 0.409336 0.626681 0.330622
C3    C     C_3   0.916862 0.500278 0.506914 0.184428
C4    C     C_3   0.949859 0.635707 0.532774 -0.039926
C5    C     C_3   0.048938 0.636801 0.527839 0.271788
C6    C     C_1   0.824444 0.499845 0.502441 -0.091995
C7    C     C_1   0.175139 0.503067 0.501443 -0.074103
C8    C     C_1   0.250655 0.501817 0.500209 -0.190386
C9    C     C_R   0.496685 0.061399 0.623115 0.005865
C10   C     C_R   0.499456 0.130000 0.499846 -0.108044
C11   C     C_R   0.502439 0.064997 0.372252 -0.201942
C12   C     C_R   0.340265 0.500382 0.500013 0.838102
C13   C     C_R   0.502503 0.935945 0.371640 -0.213678
C14   C     C_R   0.500040 0.869756 0.498762 -0.098220
C15   C     C_R   0.497302 0.936846 0.622082 0.047380
C16   C     C_3   0.496003 0.924374 0.777668 0.189184
C17   C     C_3   0.495442 0.068339 0.780629 0.252325
C18   C     C_R   0.573580 0.489511 0.073071 0.186107
C19   C     C_R   0.426650 0.502986 0.073986 -0.070809
C20   C     C_R   0.426660 0.503485 0.925782 -0.102394
C21   C     C_R   0.573213 0.486260 0.926076 0.193728
C22   C     C_3   0.649540 0.564903 0.914118 -0.469503
C23   C     C_R   0.500171 0.737200 0.499811 0.806169
C24   C     C_3   0.649882 0.572561 0.073297 -0.099554
C25   C     C_R   0.659623 0.500235 0.500006 0.825693
C26   C     C_3   0.051763 0.420416 0.625198 -0.512905
C27   C     C_3   0.048094 0.453446 0.363916 -0.364310
C28   C     C_3   0.950933 0.459086 0.361818 -0.430320
C29   C     C_1   0.748992 0.500305 0.500411 -0.212867
C30   C     C_3   0.082818 0.503891 0.504121 0.195433
Cu1   Cu    Cu3+1 0.500000 0.499980 0.640670 0.922124
Cu2   Cu    Cu3+1 0.500000 0.500020 0.359330 0.926075
H1    H     H_    0.078724 0.456086 0.723561 0.183930
H2    H     H_    0.505229 0.113168 0.273045 0.161969
H3    H     H_    0.504785 0.888831 0.271992 0.161930
H4    H     H_    0.553642 0.879894 0.821350 0.080971
H5    H     H_    0.367047 0.507089 0.127873 0.152333
H6    H     H_    0.082293 0.328377 0.614460 0.164117
H7    H     H_    0.367065 0.508348 0.871722 0.153161
H8    H     H_    0.704126 0.512616 0.872256 0.170762
H9    H     H_    0.636071 0.652905 0.858230 0.207880
H10   H     H_    0.705648 0.526697 0.121180 0.160058
H11   H     H_    0.073467 0.507810 0.274422 0.207543
H12   H     H_    0.069015 0.356387 0.349182 0.156929
H13   H     H_    0.924709 0.368350 0.330439 0.176541
H14   H     H_    0.930120 0.524198 0.278653 0.173400
H15   H     H_    0.071972 0.670855 0.631223 0.055653
H16   H     H_    0.929778 0.661211 0.639783 0.132440
N1    N     N_R   0.500530 0.500930 0.147930 -0.189115
N2    N     N_R   0.500530 0.500890 0.852020 -0.187204
O1    O     O_R   0.500000 0.319640 0.618810 -0.591496
O2    O     O_R   0.500010 0.319680 0.381230 -0.582084
O3    O     O_R   0.379430 0.499990 0.618840 -0.588263
O4    O     O_R   0.379440 0.500030 0.381260 -0.581449
O5    O     O_R   0.499990 0.680320 0.618770 -0.581489
O6    O     O_R   0.500000 0.680360 0.381190 -0.599708
O7    O     O_R   0.620560 0.499970 0.618740 -0.577344
O8    O     O_R   0.620570 0.500010 0.381160 -0.592860
C31   C     C_3   0.932721 0.269091 0.594913 -0.384333
C32   C     C_3   0.839863 0.232129 0.581526 -0.875012
H17   H     H_    0.800514 0.275923 0.663200 0.254090
H18   H     H_    0.815298 0.256152 0.476264 0.255608
H19   H     H_    0.834104 0.130528 0.593290 0.245073
H20   H     H_    0.965890 0.237421 0.499378 0.197640
H21   H     H_    0.959970 0.212175 0.680919 0.193556
C33   C     C_3   0.912721 0.438879 0.776131 -0.376877
C34   C     C_3   0.962716 0.517599 0.880780 -0.920942
H22   H     H_    0.013167 0.461699 0.930676 0.251799
H23   H     H_    0.990749 0.600765 0.832603 0.243902
H24   H     H_    0.919986 0.548321 0.965807 0.246957
H25   H     H_    0.850306 0.483330 0.763641 0.196960
H26   H     H_    0.898993 0.351808 0.833534 0.210129
C35   C     C_3   0.909012 0.736009 0.436011 -0.311086
C36   C     C_3   0.920040 0.866483 0.494227 -0.835872
H27   H     H_    0.888239 0.874546 0.597251 0.231175
H28   H     H_    0.987513 0.890299 0.506896 0.281408
H29   H     H_    0.891041 0.934197 0.421251 0.236935
H30   H     H_    0.935351 0.732233 0.328550 0.242546
H31   H     H_    0.840203 0.721308 0.425588 0.185542
O9    O     O_3   0.420427 0.870548 0.823326 -0.728718
H32   H     H_    0.433747 0.783700 0.847604 0.338650
C37   C     C_3   0.412614 0.127500 0.835080 -0.327879
C38   C     C_3   0.404168 0.121191 0.994368 -0.826436
H33   H     H_    0.414048 0.025752 0.033399 0.280443
H34   H     H_    0.450520 0.183706 0.044492 0.229725
H35   H     H_    0.340151 0.151898 0.025254 0.238998
H36   H     H_    0.409886 0.226001 0.803742 0.202241
H37   H     H_    0.357016 0.082058 0.786702 0.228641
C39   C     C_3   0.576134 0.125967 0.846113 -0.397724
C40   C     C_3   0.658619 0.098614 0.768914 -0.890988
H38   H     H_    0.669561 0.997960 0.759574 0.241299
H39   H     H_    0.658026 0.141064 0.663076 0.262580
H40   H     H_    0.711973 0.138897 0.828407 0.244816
H41   H     H_    0.568765 0.227668 0.851191 0.227498
H42   H     H_    0.582601 0.091902 0.955408 0.199400
C41   C     C_3   0.634573 0.704076 0.128260 -0.301643
C42   C     C_3   0.708962 0.789199 0.097228 -0.897450
H43   H     H_    0.767764 0.750533 0.142753 0.251132
H44   H     H_    0.717277 0.801929 0.982797 0.256306
H45   H     H_    0.697202 0.880986 0.144577 0.244164
H46   H     H_    0.576207 0.744005 0.082166 0.199975
H47   H     H_    0.627486 0.700401 0.243137 0.238498
O10   O     O_3   0.079293 0.715236 0.421304 -0.732147
H48   H     H_    0.134688 0.747551 0.452514 0.321321

loop_
_geom_bond_atom_site_label_1
_geom_bond_atom_site_label_2
_ccdc_geom_bond_type
C5    O10   S    
C41   H47   S    
C18   C21   A    
C24   H10   S    
C35   C36   S    
C19   C20   A    
Cu2   O8    S    
C3    C6    S    
C42   H43   S    
C7    C8    T    
C5    H15   S    
C28   H14   S    
C31   H20   S    
C36   H28   S    
C32   H19   S    
C18   C24   S    
C21   C22   S    
C3    C28   S    
C13   H3    S    
C24   C41   S    
O9    H32   S    
C22   H9    S    
C15   C16   S    
C32   H18   S    
C17   C37   S    
C39   H41   S    
Cu2   O2    S    
C20   N2    A    
C19   H5    S    
C27   H12   S    
C33   H26   S    
C38   H33   S    
C16   C17   S    
C36   H29   S    
C35   H30   S    
C9    C10   A    
C12   O3    A    
C33   C34   S    
C31   C32   S    
C7    C30   S    
C13   C14   A    
C27   C30   S    
C25   O7    A    
Cu2   O4    S    
C21   N2    A    
C42   H44   S    
C11   H2    S    
C25   C29   S    
C28   H13   S    
C36   H27   S    
C34   H22   S    
C23   O6    A    
C17   C39   S    
C20   H7    S    
C2    C31   S    
C26   H6    S    
C32   H17   S    
C34   H23   S    
C14   C23   S    
C39   H42   S    
C19   N1    A    
C26   H1    S    
C40   H39   S    
C33   H25   S    
C8    C12   S    
C22   H8    S    
C41   C42   S    
C38   H35   S    
C35   H31   S    
C2    C26   S    
Cu1   O3    S    
C1    O1    A    
C4    C35   S    
C9    C17   S    
C38   H34   S    
C26   C30   S    
C22   C24   S    
C25   O8    A    
Cu1   N2    S    
C3    C4    S    
O10   H48   S    
C42   H45   S    
C40   H40   S    
C5    C30   S    
C4    H16   S    
Cu1   Cu2   S    
C1    C10   S    
Cu1   O1    S    
C4    C5    S    
C2    C33   S    
C23   O5    A    
C34   H24   S    
Cu1   O5    S    
Cu1   O7    S    
C2    C3    S    
C9    C15   A    
C31   H21   S    
C11   C13   A    
C40   H38   S    
C37   H37   S    
C1    O2    A    
C12   O4    A    
Cu2   N1    S    
C10   C11   A    
C27   H11   S    
C6    C29   T    
C37   C38   S    
C27   C28   S    
C14   C15   A    
C16   O9    S    
C39   C40   S    
C41   H46   S    
Cu2   O6    S    
C16   H4    S    
C37   H36   S    
C18   N1    A    
