data_mof_unit_18035.cif
_audit_creation_date              2012-12-10T18:18:15-0500
_audit_creation_method            fapswitch 2.2
_symmetry_space_group_name_H-M    P1
_symmetry_Int_Tables_number       1
_space_group_crystal_system       triclinic
_cell_length_a                    14.138884
_cell_length_b                    14.901536
_cell_length_c                    15.667312
_cell_angle_alpha                 89.531012
_cell_angle_beta                  67.389282
_cell_angle_gamma                 92.497303
_cell_volume                      3043.23827279

loop_
_atom_site_label
_atom_site_type_symbol
_atom_type_description
_atom_site_fract_x
_atom_site_fract_y
_atom_site_fract_z
_atom_type_partial_charge
Br1   Br    Br    0.224018 0.667377 0.270137 -0.634407
Br2   Br    Br    0.763634 0.363366 0.749704 -0.613523
Br3   Br    Br    0.619500 0.262583 0.306556 -0.547058
Br4   Br    Br    0.386207 0.739798 0.696952 -0.543024
C1    C     C_R   0.501561 0.672842 0.499858 0.955669
C2    C     C_R   0.503913 0.768456 0.499955 -0.139104
C3    C     C_R   0.549126 0.190297 0.418673 0.163738
C4    C     C_R   0.449356 0.810348 0.582915 0.167926
C5    C     C_R   0.555548 0.097381 0.419440 0.029515
C6    C     C_R   0.437104 0.902501 0.580241 0.032276
C7    C     C_R   0.492737 0.046636 0.499239 -0.018439
C8    C     C_R   0.497368 0.953159 0.499563 -0.018390
C9    C     C_R   0.424928 0.089157 0.578559 0.052745
C10   C     C_R   0.562167 0.910166 0.419398 0.068775
C11   C     C_R   0.626428 0.054692 0.343971 -0.159362
C12   C     C_R   0.497464 0.327196 0.501914 0.966656
C13   C     C_R   0.362148 0.944102 0.653593 -0.154209
C14   C     C_R   0.635706 0.962095 0.345895 0.146839
C15   C     C_R   0.348361 0.035823 0.648735 0.146054
C16   C     C_R   0.435779 0.498911 0.675659 0.902231
C17   C     C_R   0.563931 0.498258 0.324248 0.895447
C18   C     C_R   0.171204 0.447318 0.564242 0.245184
C19   C     C_R   0.829509 0.554395 0.438074 0.243583
C20   C     C_R   0.231123 0.550921 0.436614 -0.044970
C21   C     C_R   0.768455 0.448595 0.563682 -0.041389
C22   C     C_R   0.132989 0.547609 0.431670 -0.036046
C23   C     C_R   0.373483 0.507197 0.104009 -0.173942
C24   C     C_R   0.866399 0.451850 0.569887 -0.061458
C25   C     C_R   0.050114 0.499420 0.501137 -0.011552
C26   C     C_R   0.950173 0.497141 0.499096 -0.025990
C27   C     C_R   0.066771 0.456272 0.574192 -0.061499
C28   C     C_R   0.933554 0.541238 0.426656 -0.045912
C29   C     C_R   0.116824 0.589128 0.357707 0.185451
C30   C     C_R   0.880950 0.415646 0.647261 0.242557
C31   C     C_R   0.020968 0.576484 0.349243 0.128817
C32   C     C_R   0.978959 0.423931 0.653221 0.104664
C33   C     C_R   0.396401 0.500286 0.776402 -0.039180
C34   C     C_R   0.619418 0.534558 0.898187 -0.159702
C35   C     C_R   0.602064 0.497993 0.223139 -0.037864
C36   C     C_R   0.260119 0.505731 0.927425 -0.184555
C37   C     C_R   0.736127 0.515505 0.070839 -0.188418
C38   C     C_R   0.291799 0.503121 0.831445 -0.164945
C39   C     C_R   0.706309 0.504672 0.166215 -0.171911
C40   C     C_R   0.468109 0.500923 0.817437 -0.235297
C41   C     C_R   0.528926 0.494013 0.183495 -0.219968
C42   C     C_R   0.439223 0.510494 0.912134 0.097975
C43   C     C_R   0.555899 0.507904 0.088903 0.087953
C44   C     C_R   0.333192 0.508557 0.968064 0.164484
C45   C     C_R   0.301655 0.507899 0.063615 -0.201151
C46   C     C_R   0.661729 0.519054 0.032082 0.165706
C47   C     C_R   0.513491 0.517973 0.952310 0.066599
C48   C     C_R   0.480511 0.510496 0.049642 0.058655
C49   C     C_3   0.198899 0.362911 0.601732 -0.413651
C50   C     C_3   0.217699 0.288028 0.531716 -0.791261
C51   C     C_3   0.807276 0.647654 0.412092 -0.340409
C52   C     C_3   0.779396 0.652729 0.327177 -0.825703
C53   C     C_3   0.017941 0.586963 0.253480 -0.368773
C54   C     C_3   0.984046 0.498782 0.221670 -0.894341
C55   C     C_3   0.982826 0.421070 0.749338 -0.389118
C56   C     C_R   0.692015 0.534244 0.937530 -0.191108
C57   C     C_3   0.963916 0.326554 0.794770 -0.782881
C58   C     C_3   0.414921 0.227584 0.677635 -0.472581
C59   C     C_3   0.511925 0.246905 0.696831 -0.768401
C60   C     C_3   0.542940 0.775693 0.328004 -0.468436
C61   C     C_3   0.435513 0.781691 0.327776 -0.729696
C62   C     C_3   0.731690 0.923331 0.275822 -0.451041
C63   C     C_3   0.829464 0.965101 0.282161 -0.822245
C64   C     C_3   0.244941 0.070755 0.709305 -0.458394
C65   C     C_3   0.156595 0.022204 0.692093 -0.824808
C66   C     C_R   0.439124 0.182537 0.584456 0.037711
C67   C     C_R   0.547849 0.816933 0.415475 0.027990
C68   C     C_R   0.493812 0.231634 0.501647 -0.130848
H1    H     H_    0.220870 0.505635 0.107549 0.160753
H2    H     H_    0.817180 0.522080 0.027475 0.135490
H3    H     H_    0.341599 0.506194 0.178352 0.172902
H4    H     H_    0.648705 0.550537 0.825063 0.163777
H5    H     H_    0.679692 0.093276 0.285107 0.200813
H6    H     H_    0.308046 0.904661 0.711363 0.197109
H7    H     H_    0.271679 0.311519 0.461788 0.282545
H8    H     H_    0.249844 0.230054 0.554310 0.243122
H9    H     H_    0.144108 0.265024 0.526964 0.246422
H10   H     H_    0.264401 0.376397 0.621648 0.235737
H11   H     H_    0.139442 0.335705 0.665506 0.206327
H12   H     H_    0.772328 0.546133 0.893593 0.145226
H13   H     H_    0.804376 0.593766 0.284016 0.258722
H14   H     H_    0.696814 0.657778 0.346293 0.262684
H15   H     H_    0.816879 0.713860 0.284604 0.218131
H16   H     H_    0.748553 0.677426 0.472701 0.224328
H17   H     H_    0.875023 0.694535 0.399163 0.175310
H18   H     H_    0.039632 0.446678 0.216743 0.265126
H19   H     H_    0.907009 0.473438 0.270070 0.274615
H20   H     H_    0.981569 0.509387 0.152326 0.242868
H21   H     H_    0.971303 0.642722 0.249882 0.221276
H22   H     H_    0.094224 0.605687 0.199883 0.246080
H23   H     H_    0.295266 0.589216 0.386564 0.184346
H24   H     H_    0.886184 0.319054 0.850438 0.293492
H25   H     H_    0.971646 0.273298 0.743593 0.270956
H26   H     H_    0.019925 0.315845 0.827369 0.220157
H27   H     H_    0.056735 0.451427 0.747622 0.178464
H28   H     H_    0.924480 0.465609 0.794977 0.216956
H29   H     H_    0.549643 0.183278 0.697924 0.271312
H30   H     H_    0.567273 0.293391 0.644247 0.267516
H31   H     H_    0.491290 0.278317 0.765295 0.253817
H32   H     H_    0.374975 0.290588 0.680044 0.187161
H33   H     H_    0.365084 0.184906 0.737117 0.222157
H34   H     H_    0.704305 0.409817 0.613016 0.180729
H35   H     H_    0.377398 0.746025 0.389269 0.272006
H36   H     H_    0.416011 0.853101 0.327798 0.260167
H37   H     H_    0.432914 0.750365 0.264614 0.272257
H38   H     H_    0.596112 0.809944 0.263599 0.216301
H39   H     H_    0.562194 0.704209 0.322517 0.187504
H40   H     H_    0.840475 0.037312 0.261034 0.262488
H41   H     H_    0.826025 0.957892 0.353961 0.266761
H42   H     H_    0.896891 0.930026 0.235213 0.251512
H43   H     H_    0.733623 0.850303 0.288051 0.215148
H44   H     H_    0.733916 0.934512 0.204851 0.215307
H45   H     H_    0.450412 0.479504 0.228366 0.163288
H46   H     H_    0.169928 0.026982 0.617490 0.265634
H47   H     H_    0.148179 0.950408 0.714405 0.262194
H48   H     H_    0.083687 0.054106 0.732285 0.252155
H49   H     H_    0.232855 0.062224 0.783363 0.215728
H50   H     H_    0.239990 0.142841 0.694272 0.213274
H51   H     H_    0.546986 0.491000 0.774434 0.174490
H52   H     H_    0.764363 0.501253 0.194732 0.156182
H53   H     H_    0.235066 0.502217 0.800648 0.151940
H54   H     H_    0.178836 0.505567 0.969830 0.136531
N1    N     N_R   0.249980 0.499930 0.499960 -0.119238
N2    N     N_R   0.750020 0.500070 0.500040 -0.120150
O1    O     O_R   0.419720 0.632140 0.499980 -0.596717
O2    O     O_R   0.580280 0.367860 0.500020 -0.600975
O3    O     O_R   0.580270 0.632160 0.499970 -0.627031
O4    O     O_R   0.419730 0.367840 0.500030 -0.628378
O5    O     O_R   0.373870 0.499980 0.632250 -0.630888
O6    O     O_R   0.626130 0.500020 0.367750 -0.599362
O7    O     O_R   0.534420 0.500000 0.632240 -0.625450
O8    O     O_R   0.465580 0.500000 0.367760 -0.627958
Zn1   Zn    Zn3+2 0.392800 0.499980 0.500010 0.948138
Zn2   Zn    Zn3+2 0.607200 0.500020 0.499990 0.962482

loop_
_geom_bond_atom_site_label_1
_geom_bond_atom_site_label_2
_ccdc_geom_bond_type
O7    Zn2   S    
C51   C52   S    
O5    Zn1   S    
C11   C14   A    
C55   H27   S    
C10   C67   A    
C17   O6    A    
C57   H26   S    
C12   C68   S    
C59   H29   S    
C32   C55   S    
C18   N1    A    
C57   H24   S    
Br1   C29   S    
C58   H33   S    
C34   H4    S    
C49   C50   S    
C21   C24   A    
C58   C59   S    
C62   H44   S    
C21   N2    A    
C20   C22   A    
Br3   C3    S    
C1    C2    S    
C7    C9    A    
C9    C66   A    
C6    C13   A    
C65   H46   S    
C33   C38   A    
C58   C66   S    
C3    C5    A    
C60   C67   S    
C51   H16   S    
N2    Zn2   S    
C38   H53   S    
C13   C15   A    
C37   H2    S    
C52   H14   S    
C64   C65   S    
C20   N1    A    
C16   O5    A    
C18   C49   S    
C12   O2    A    
C54   H19   S    
C17   O8    A    
C50   H8    S    
Br4   C4    S    
C35   C41   A    
Br2   C30   S    
C1    O1    A    
C62   C63   S    
C24   C30   A    
C53   H21   S    
C55   H28   S    
C37   C39   A    
C59   H30   S    
C23   H3    S    
C40   C42   A    
C21   H34   S    
C43   C46   A    
C58   H32   S    
C41   C43   A    
C2    C67   A    
C42   C44   A    
C55   C57   S    
C18   C27   A    
C9    C15   A    
C47   C48   A    
C28   C31   A    
C59   H31   S    
C62   H43   S    
C20   H23   S    
C64   H50   S    
C3    C68   A    
C60   H39   S    
C2    C4    A    
C34   C47   A    
O4    Zn1   S    
C42   C47   A    
C65   H47   S    
C49   H10   S    
C25   C26   A    
C54   H18   S    
C22   C29   A    
C60   H38   S    
C17   C35   S    
C36   H54   S    
C15   C64   S    
C5    C7    A    
C61   H37   S    
C6    C8    A    
C34   C56   A    
C4    C6    A    
C44   C45   A    
C8    C10   A    
C53   H22   S    
C45   H1    S    
C65   H48   S    
O2    Zn2   S    
C37   C46   A    
C23   C48   A    
C50   H7    S    
C41   H45   S    
C36   C44   A    
C61   H36   S    
C10   C14   A    
C63   H42   S    
C57   H25   S    
O8    Zn1   S    
C52   H15   S    
C64   H49   S    
O6    Zn2   S    
C35   C39   A    
C7    C8    A    
C19   C51   S    
C43   C48   A    
C14   C62   S    
C40   H51   S    
C52   H13   S    
C49   H11   S    
C31   C53   S    
C46   C56   A    
C19   C28   A    
C33   C40   A    
C24   C26   A    
C63   H41   S    
C25   C27   A    
O3    Zn2   S    
C60   C61   S    
C26   C28   A    
C16   C33   S    
C56   H12   S    
C53   C54   S    
C11   H5    S    
C36   C38   A    
C13   H6    S    
C29   C31   A    
C30   C32   A    
C16   O7    A    
C5    C11   A    
C12   O4    A    
C63   H40   S    
C1    O3    A    
O1    Zn1   S    
C22   C25   A    
C51   H17   S    
C27   C32   A    
C66   C68   A    
N1    Zn1   S    
C54   H20   S    
C39   H52   S    
C61   H35   S    
C50   H9    S    
C23   C45   A    
C19   N2    A    
