data_mof_unit_29523.cif
_audit_creation_date              2013-03-05T16:02:58-0500
_audit_creation_method            fapswitch 2.2
_symmetry_space_group_name_H-M    P1
_symmetry_Int_Tables_number       1
_space_group_crystal_system       triclinic
_cell_length_a                    15.03608
_cell_length_b                    14.206958
_cell_length_c                    10.654783
_cell_angle_alpha                 89.203997
_cell_angle_beta                  86.98653
_cell_angle_gamma                 91.130656
_cell_volume                      2272.19840225

loop_
_atom_site_label
_atom_site_type_symbol
_atom_site_description
_atom_site_fract_x
_atom_site_fract_y
_atom_site_fract_z
_atom_type_partial_charge
O1    O     O_R   0.367850 0.580280 0.500030 -0.570393
O2    O     O_R   0.632150 0.419720 0.499970 -0.574375
O3    O     O_R   0.632150 0.580280 0.499970 -0.594534
O4    O     O_R   0.367850 0.419720 0.500030 -0.596299
C1    C     C_R   0.326998 0.499220 0.501986 0.966279
C2    C     C_R   0.672852 0.500930 0.502029 0.978678
O5    O     O_R   0.499970 0.580260 0.313950 -0.563868
O6    O     O_R   0.500030 0.419740 0.686050 -0.564656
O7    O     O_R   0.500030 0.580260 0.686050 -0.587192
O8    O     O_R   0.499970 0.419740 0.313950 -0.590040
C3    C     C_R   0.500030 0.500786 0.257906 1.077768
C4    C     C_R   0.500156 0.498787 0.741882 1.064791
Zn1   Zn    Zn3+2 0.500000 0.607200 0.500000 1.146356
Zn2   Zn    Zn3+2 0.500000 0.392800 0.500000 1.145577
C5    C     C_3   0.469415 0.581935 0.037308 0.146216
C6    C     C_3   0.530349 0.414886 0.962078 0.151572
C7    C     C_3   0.552661 0.567172 0.950600 0.120366
C8    C     C_3   0.447869 0.430426 0.049440 0.103439
C9    C     C_3   0.416407 0.509594 0.963174 0.263143
C10   C     C_3   0.584001 0.487086 0.035871 0.295016
C11   C     C_3   0.500116 0.494931 0.875750 -0.408675
C12   C     C_3   0.500598 0.502485 0.123652 -0.416879
C13   C     C_R   0.818114 0.563869 0.427403 -0.090425
C14   C     C_R   0.181900 0.442620 0.588126 -0.092145
C15   C     C_R   0.768340 0.503073 0.508276 -0.152595
C16   C     C_R   0.231280 0.498358 0.500016 -0.144445
C17   C     C_R   0.809217 0.443324 0.592085 0.304457
C18   C     C_R   0.189961 0.557579 0.415795 0.292434
C19   C     C_R   0.902200 0.443260 0.591835 -0.047058
C20   C     C_R   0.097083 0.557553 0.416717 -0.051761
C21   C     C_R   0.953161 0.500957 0.504704 0.022197
C22   C     C_R   0.046447 0.499509 0.504038 0.024101
C23   C     C_R   0.910743 0.562096 0.420968 -0.026657
C24   C     C_R   0.088970 0.441610 0.591954 -0.022550
C25   C     C_R   0.944608 0.388918 0.680084 -0.167159
C26   C     C_R   0.054344 0.614605 0.331417 -0.166522
C27   C     C_R   0.036737 0.386458 0.681567 0.399801
C28   C     C_R   0.962255 0.619347 0.333712 0.385551
H1    H     H_    0.783117 0.610139 0.367351 0.264522
H2    H     H_    0.217614 0.403297 0.655421 0.253913
H3    H     H_    0.905727 0.349322 0.751551 0.247166
H4    H     H_    0.092819 0.657430 0.262992 0.253759
C29   C     C_R   0.563709 0.800569 0.430128 0.396713
C30   C     C_R   0.434105 0.199485 0.565623 0.390964
C31   C     C_R   0.437434 0.795769 0.573465 0.363895
C32   C     C_R   0.566445 0.203543 0.434536 0.373207
N1    N     N_R   0.500000 0.750030 0.500000 -0.212274
N2    N     N_R   0.500000 0.249970 0.500000 -0.207992
C33   C     C_R   0.435791 0.896793 0.577035 -0.173431
C34   C     C_R   0.565061 0.102844 0.426364 -0.175283
C35   C     C_R   0.561508 0.900959 0.422409 -0.170069
C36   C     C_R   0.436403 0.099106 0.575320 -0.172263
C37   C     C_R   0.498767 0.949388 0.499502 0.009572
C38   C     C_R   0.499971 0.050377 0.500183 0.010637
C39   C     C_R   0.375253 0.947195 0.657320 0.231472
C40   C     C_R   0.624950 0.053041 0.344855 0.233233
C41   C     C_R   0.620970 0.954009 0.340068 0.238070
C42   C     C_R   0.376814 0.046384 0.657813 0.233392
S1    S     S_3+6 0.304671 0.508426 0.913131 0.162770
O9    O     O_2   0.299484 0.561614 0.791412 -0.232746
O10   O     O_2   0.277520 0.407846 0.893023 -0.202440
O11   O     O_3   0.234195 0.555769 0.021366 -0.404873
H5    H     H_    0.206464 0.501731 0.069565 0.399212
S2    S     S_3+6 0.697504 0.474816 0.075928 0.173604
O12   O     O_2   0.706400 0.502158 0.210065 -0.293110
O13   O     O_2   0.725797 0.374732 0.059559 -0.159622
O14   O     O_3   0.764306 0.544723 0.981916 -0.421718
H6    H     H_    0.824194 0.517134 0.984461 0.395154
N3    N     N_R   0.437530 0.674016 0.076443 0.299695
O15   O     O_R   0.361901 0.704312 0.040142 -0.165508
O16   O     O_R   0.486506 0.728625 0.142508 -0.254396
N4    N     N_R   0.560836 0.320249 0.931529 0.312991
O17   O     O_R   0.577087 0.261903 0.021979 -0.202395
O18   O     O_R   0.566045 0.290522 0.816754 -0.255450
N5    N     N_R   0.610695 0.643017 0.897558 0.290471
O19   O     O_R   0.633414 0.712083 0.968716 -0.185223
O20   O     O_R   0.655744 0.631184 0.791599 -0.305057
N6    N     N_R   0.388548 0.357553 0.107387 0.280026
O21   O     O_R   0.393747 0.270658 0.071593 -0.214393
O22   O     O_R   0.325206 0.380703 0.188202 -0.335840
N7    N     N_R   0.755907 0.387664 0.682145 0.210955
O23   O     O_R   0.703880 0.428932 0.764568 -0.353744
O24   O     O_R   0.758545 0.296192 0.681273 -0.260862
N8    N     N_R   0.242667 0.617853 0.330286 0.214774
O25   O     O_R   0.239164 0.708868 0.340806 -0.275189
O26   O     O_R   0.303467 0.582084 0.255182 -0.365618
S3    S     S_3+6 0.079245 0.318411 0.805206 0.121484
O27   O     O_2   0.161866 0.267663 0.763367 -0.156400
O28   O     O_2   0.098944 0.383260 0.910776 -0.239487
O29   O     O_3   0.002379 0.237772 0.858582 -0.481207
H7    H     H_    0.028033 0.208233 0.932908 0.423806
S4    S     S_3+6 0.916743 0.703176 0.231234 0.118498
O30   O     O_2   0.841974 0.660142 0.162109 -0.206107
O31   O     O_2   0.882398 0.783383 0.308768 -0.162621
O32   O     O_3   0.995196 0.745041 0.125372 -0.487097
H8    H     H_    0.964055 0.790950 0.073241 0.426465
N9    N     N_R   0.641156 0.753073 0.383887 0.224102
O33   O     O_R   0.715733 0.766652 0.438056 -0.323128
O34   O     O_R   0.639405 0.701561 0.284184 -0.262125
N10   N     N_R   0.357907 0.248023 0.613200 0.227603
O35   O     O_R   0.362049 0.298677 0.713299 -0.281247
O36   O     O_R   0.282779 0.237769 0.559228 -0.320133
N11   N     N_R   0.378231 0.740184 0.654024 0.241190
O37   O     O_R   0.297142 0.723437 0.622213 -0.269843
O38   O     O_R   0.399526 0.723139 0.768690 -0.281023
N12   N     N_R   0.638789 0.257547 0.377165 0.236429
O39   O     O_R   0.630035 0.299566 0.269787 -0.269446
O40   O     O_R   0.716179 0.257469 0.426255 -0.284678
N13   N     N_R   0.313655 0.899766 0.744979 0.258885
O41   O     O_R   0.332758 0.893378 0.862450 -0.212782
O42   O     O_R   0.231358 0.887420 0.715677 -0.222590
N14   N     N_R   0.684886 0.101557 0.256012 0.253621
O43   O     O_R   0.768871 0.109223 0.278776 -0.220796
O44   O     O_R   0.661011 0.114424 0.141643 -0.213545
N15   N     N_R   0.670581 0.909057 0.239870 0.255684
O45   O     O_R   0.628801 0.875867 0.145738 -0.216119
O46   O     O_R   0.757059 0.915809 0.231518 -0.204258
N16   N     N_R   0.323368 0.092174 0.753308 0.256429
O47   O     O_R   0.236972 0.084248 0.755382 -0.208371
O48   O     O_R   0.361197 0.127279 0.849737 -0.221378

loop_
_geom_bond_atom_site_label_1
_geom_bond_atom_site_label_2
_geom_bond_distance
_ccdc_geom_bond_type
S3    O27   1.499288 D    
C33   C37   1.417780 A    
C6    C11   1.543118 S    
C18   N8    1.437709 S    
C24   C27   1.420726 A    
N15   O46   1.300219 A    
C26   H4    1.079723 S    
O32   H8    0.991209 S    
C6    N4    1.464428 S    
O3    C2    1.293767 A    
N14   O44   1.299855 A    
N7    O23   1.298884 A    
C41   N15   1.434590 S    
C37   C38   1.434630 A    
C5    C9    1.540078 S    
C34   C38   1.416362 A    
O1    C1    1.293848 A    
C9    C11   1.545237 S    
C14   C16   1.393747 A    
N13   O42   1.301158 A    
N6    O22   1.300280 A    
C2    C15   1.440539 S    
C17   C19   1.397985 A    
N12   O39   1.297142 A    
N15   O45   1.300230 A    
C28   S4    1.775800 S    
C42   N16   1.434339 S    
C7    C10   1.542571 S    
C40   C41   1.408788 A    
C8    C9    1.540017 S    
N3    O16   1.298771 A    
O7    Zn1   2.013730 S    
N16   O47   1.300722 A    
N10   O35   1.298379 A    
C31   N11   1.423329 S    
N9    O34   1.299450 A    
C5    C12   1.541962 S    
C13   C23   1.391600 A    
C21   C23   1.420355 A    
C35   C41   1.417628 A    
O3    Zn1   2.030871 S    
C6    C10   1.541933 S    
C30   C36   1.429622 A    
S1    O9    1.498247 D    
C39   N13   1.432178 S    
O2    C2    1.296311 A    
O2    Zn2   2.016048 S    
N10   O36   1.300816 A    
N14   O43   1.301100 A    
N7    O24   1.301066 A    
C36   C38   1.412380 A    
N9    O33   1.300137 A    
N16   O48   1.300910 A    
C31   N1    1.371423 A    
C5    N3    1.460809 S    
C32   N2    1.373040 A    
S1    O10   1.499699 D    
O14   H6    0.990672 S    
S2    O14   1.681018 S    
C17   N7    1.435834 S    
N8    O25   1.301309 A    
N4    O18   1.298297 A    
O8    Zn2   2.013731 S    
Zn1   N1    2.029180 S    
N6    O21   1.299739 A    
N4    O17   1.298518 A    
Zn2   N2    2.029181 S    
C9    S1    1.789005 S    
C33   C39   1.426159 A    
C4    C11   1.426590 S    
S4    O32   1.682651 S    
C14   C24   1.395547 A    
C35   C37   1.413466 A    
S2    O13   1.502044 D    
C10   S2    1.792046 S    
O5    C3    1.284565 A    
N5    O19   1.299600 A    
O11   H5    0.990384 S    
C21   C22   1.402860 A    
C31   C33   1.436934 A    
O6    C4    1.278142 A    
S4    O31   1.500702 D    
N11   O38   1.299911 A    
N5    O20   1.300392 A    
C36   C42   1.417313 A    
C8    N6    1.461688 S    
C10   C12   1.545467 S    
S3    O28   1.501616 D    
C39   C42   1.408991 A    
O1    Zn1   2.016049 S    
C5    C7    1.535701 S    
C19   C25   1.396081 A    
S1    O11   1.681207 S    
O6    Zn2   2.024168 S    
C25   C27   1.387311 A    
C8    C12   1.535654 S    
C27   S3    1.776529 S    
C29   N9    1.426188 S    
N8    O26   1.298865 A    
O4    C1    1.296187 A    
C15   C17   1.397474 A    
C32   C34   1.434297 A    
C3    C12   1.429888 S    
C16   C18   1.399072 A    
C23   C28   1.415702 A    
C20   C26   1.399091 A    
S2    O12   1.498296 D    
C18   C20   1.396030 A    
C19   C21   1.414272 A    
N13   O41   1.301153 A    
C20   C22   1.415890 A    
C30   N10   1.423015 S    
C29   C35   1.428605 A    
O29   H7    0.990616 S    
N12   O40   1.300638 A    
C13   H1    1.075077 S    
C32   N12   1.424665 S    
C26   C28   1.386571 A    
S4    O30   1.500856 D    
C14   H2    1.075054 S    
C13   C15   1.390911 A    
O4    Zn2   2.030872 S    
N3    O15   1.299591 A    
C25   H3    1.079989 S    
O7    C4    1.294112 A    
C34   C40   1.423267 A    
O8    C3    1.289627 A    
C1    C16   1.440277 S    
O5    Zn1   2.024169 S    
C6    C8    1.532432 S    
S3    O29   1.682924 S    
N11   O37   1.300897 A    
C7    N5    1.461514 S    
C29   N1    1.367636 A    
C40   N14   1.432122 S    
C30   N2    1.367539 A    
C22   C24   1.423099 A    
C7    C11   1.539669 S    
