data_mof_unit_18208.cif
_audit_creation_date              2012-12-10T17:05:41-0500
_audit_creation_method            fapswitch 2.2
_symmetry_space_group_name_H-M    P1
_symmetry_Int_Tables_number       1
_space_group_crystal_system       triclinic
_cell_length_a                    15.892737
_cell_length_b                    11.073854
_cell_length_c                    9.877164
_cell_angle_alpha                 111.89821
_cell_angle_beta                  98.461098
_cell_angle_gamma                 90.732323
_cell_volume                      1591.00081101

loop_
_atom_site_label
_atom_site_type_symbol
_atom_type_description
_atom_site_fract_x
_atom_site_fract_y
_atom_site_fract_z
_atom_type_partial_charge
C1    C     C_R   0.493557 0.253382 0.439222 0.827082
C2    C     C_3   0.959380 0.421338 0.588004 0.345962
C3    C     C_3   0.916671 0.501273 0.498431 0.161453
C4    C     C_3   0.956504 0.643621 0.562622 -0.400545
C5    C     C_3   0.054975 0.645909 0.567597 0.040861
C6    C     C_1   0.824432 0.500202 0.497178 -0.013189
C7    C     C_1   0.175520 0.501578 0.501241 -0.063051
C8    C     C_1   0.251040 0.500714 0.502297 -0.201924
C9    C     C_2   0.489353 0.111989 0.401251 0.011334
C10   C     C_2   0.500555 0.067502 0.511701 -0.149241
C11   C     C_2   0.509205 0.886115 0.594447 -0.362566
C12   C     C_R   0.340372 0.499909 0.500825 0.817048
C13   C     C_2   0.498026 0.928471 0.483679 -0.157491
C14   C     C_2   0.504067 0.515867 0.084397 0.069304
C15   C     C_2   0.493720 0.490098 0.920266 0.049804
C16   C     C_R   0.506061 0.746178 0.560218 0.856220
C17   C     C_R   0.659638 0.499901 0.499085 0.819790
C18   C     C_3   0.058813 0.430870 0.597444 -0.610388
C19   C     C_3   0.032509 0.425278 0.338093 0.045424
C20   C     C_3   0.935099 0.438493 0.337427 -0.479262
C21   C     C_1   0.749000 0.499848 0.497368 -0.166302
C22   C     C_3   0.082986 0.502823 0.498144 0.270176
Cu1   Cu    Cu3+1 0.514650 0.521810 0.644910 0.946954
Cu2   Cu    Cu3+1 0.485350 0.478190 0.355090 0.957581
H1    H     H_    0.938949 0.317296 0.517977 0.108474
H2    H     H_    0.094422 0.480434 0.711080 0.166156
H3    H     H_    0.926480 0.695965 0.493252 0.178512
H4    H     H_    0.486955 0.858649 0.370268 0.191643
H5    H     H_    0.512142 0.135240 0.626518 0.168022
H6    H     H_    0.520462 0.954031 0.709107 0.162233
H7    H     H_    0.446153 0.414497 0.845407 0.166048
H8    H     H_    0.543769 0.600256 0.162879 0.099726
H9    H     H_    0.081098 0.330444 0.558710 0.159381
H10   H     H_    0.043326 0.320148 0.311175 0.143103
H11   H     H_    0.900618 0.340169 0.280056 0.151687
H12   H     H_    0.910245 0.498758 0.273921 0.201367
H13   H     H_    0.085195 0.686174 0.686208 0.136886
H14   H     H_    0.940749 0.697713 0.674347 0.153033
N1    N     N_2   0.463320 0.445430 0.137380 -0.017499
N2    N     N_2   0.536720 0.554500 0.862620 -0.148636
O1    O     O_R   0.507820 0.332330 0.577400 -0.597845
O2    O     O_R   0.483070 0.295500 0.332660 -0.563807
O3    O     O_R   0.391820 0.518430 0.622420 -0.574552
O4    O     O_R   0.367070 0.481600 0.377680 -0.611021
O5    O     O_R   0.516930 0.704500 0.667340 -0.573482
O6    O     O_R   0.492180 0.667670 0.422600 -0.602473
O7    O     O_R   0.632930 0.518400 0.622320 -0.561388
O8    O     O_R   0.608180 0.481570 0.377580 -0.578742
O9    O     O_3   0.925712 0.442128 0.720766 -0.566031
C23   C     C_3   0.972385 0.536010 0.851519 0.102952
H15   H     H_    0.001615 0.619315 0.834423 0.122387
H16   H     H_    0.023212 0.488432 0.899123 0.148536
C24   C     C_3   0.912722 0.589739 0.963743 -0.811913
H17   H     H_    0.885014 0.509626 0.989271 0.252914
H18   H     H_    0.948483 0.663583 0.067479 0.187682
H19   H     H_    0.860312 0.636532 0.918698 0.250614
C25   C     C_3   0.472693 0.020267 0.239687 -0.874721
H20   H     H_    0.464395 0.072715 0.162960 0.261031
H21   H     H_    0.527337 0.958904 0.213555 0.228379
H22   H     H_    0.413367 0.956976 0.216757 0.228728
C26   C     C_3   0.600818 0.657308 0.956789 -0.545807
H23   H     H_    0.632335 0.697268 0.887967 0.229079
H24   H     H_    0.570773 0.738256 0.035286 0.158772
H25   H     H_    0.650663 0.618378 0.017566 0.169236
O10   O     O_3   0.430127 0.327798 0.037131 -0.512988
C27   C     C_3   0.347260 0.307278 0.062328 0.212603
H26   H     H_    0.312084 0.397611 0.087560 0.132730
H27   H     H_    0.349787 0.271530 0.153677 0.177167
C28   C     C_3   0.297542 0.203056 0.923577 -0.911995
H28   H     H_    0.329850 0.110540 0.895888 0.259736
H29   H     H_    0.232068 0.185197 0.942106 0.208816
H30   H     H_    0.293253 0.235668 0.829371 0.251122
C29   C     C_3   0.062309 0.455475 0.211763 -0.877259
H31   H     H_    0.131993 0.447626 0.214089 0.234830
H32   H     H_    0.029833 0.382991 0.103970 0.230051
H33   H     H_    0.046243 0.552830 0.214474 0.245654
C30   C     C_3   0.085814 0.742998 0.503683 -0.867126
H34   H     H_    0.082054 0.844177 0.583114 0.223630
H35   H     H_    0.153093 0.731696 0.486311 0.244586
H36   H     H_    0.045147 0.733784 0.398826 0.234744

loop_
_geom_bond_atom_site_label_1
_geom_bond_atom_site_label_2
_ccdc_geom_bond_type
C27   H27   S    
Cu1   O5    S    
C5    H13   S    
C2    C18   S    
Cu2   O2    S    
C29   H31   S    
C19   C20   S    
C18   H2    S    
C17   O8    A    
C3    C6    S    
C7    C8    T    
C30   H34   S    
C12   O3    A    
C25   H21   S    
C27   C28   S    
Cu1   N2    S    
Cu2   N1    S    
Cu1   O3    S    
C28   H29   S    
C26   H24   S    
C14   N1    D    
C20   H11   S    
C5    C22   S    
C11   H6    S    
C23   H16   S    
Cu1   Cu2   S    
C13   H4    S    
C9    C10   D    
C24   H19   S    
C24   H18   S    
C27   H26   S    
N1    O10   S    
C28   H28   S    
C30   H35   S    
C23   C24   S    
Cu1   O7    S    
Cu2   O8    S    
C19   C29   S    
C19   C22   S    
C1    C9    S    
C16   O6    A    
C25   H22   S    
C24   H17   S    
C6    C21   T    
C19   H10   S    
C17   C21   S    
N2    C26   S    
C26   H25   S    
C2    O9    S    
C11   C16   S    
C8    C12   S    
C23   H15   S    
C3    C20   S    
C1    O1    A    
C4    H14   S    
O10   C27   S    
Cu2   O4    S    
C29   H33   S    
C29   H32   S    
C5    C30   S    
C3    C4    S    
C4    H3    S    
C30   H36   S    
C18   C22   S    
C17   O7    A    
C14   H8    S    
C4    C5    S    
C10   C13   S    
C16   O5    A    
C15   H7    S    
C7    C22   S    
Cu1   O1    S    
Cu2   O6    S    
C2    C3    S    
C12   O4    A    
C11   C13   D    
C10   H5    S    
C25   H20   S    
C2    H1    S    
C9    C25   S    
C26   H23   S    
C18   H9    S    
C15   N2    D    
C20   H12   S    
C1    O2    A    
O9    C23   S    
C14   C15   S    
C28   H30   S    
