data_mof_unit_61039.cif
_audit_creation_date              2012-12-10T20:48:28-0500
_audit_creation_method            fapswitch 2.2
_symmetry_space_group_name_H-M    P1
_symmetry_Int_Tables_number       1
_space_group_crystal_system       triclinic
_cell_length_a                    16.065763
_cell_length_b                    19.133323
_cell_length_c                    19.230491
_cell_angle_alpha                 94.675001
_cell_angle_beta                  95.100422
_cell_angle_gamma                 90.540895
_cell_volume                      5867.46416393

loop_
_atom_site_label
_atom_site_type_symbol
_atom_type_description
_atom_site_fract_x
_atom_site_fract_y
_atom_site_fract_z
_atom_type_partial_charge
C1    C     C_R   0.509153 0.310582 0.492410 0.518710
C2    C     C_R   0.416214 0.798270 0.490874 -0.138792
C3    C     C_R   0.446784 0.119385 0.473636 -0.098454
C4    C     C_R   0.491611 0.689221 0.507423 0.496265
C5    C     C_R   0.442322 0.192220 0.474629 -0.201657
C6    C     C_R   0.524641 0.087137 0.484901 0.177762
C7    C     C_R   0.515198 0.233844 0.487866 0.035942
C8    C     C_R   0.593633 0.201554 0.496577 0.246342
C9    C     C_R   0.597620 0.128381 0.494917 -0.093839
C10   C     C_R   0.492474 0.486042 0.232678 0.028026
C11   C     C_R   0.554500 0.520733 0.199815 0.238841
C12   C     C_1   0.111326 0.483736 0.479952 -0.029316
C13   C     C_R   0.550864 0.517190 0.126770 -0.054528
C14   C     C_R   0.487881 0.477268 0.085357 0.184048
C15   C     C_R   0.429547 0.439959 0.118159 -0.125261
C16   C     C_R   0.509452 0.508824 0.689972 0.559590
C17   C     C_R   0.431204 0.444709 0.191079 -0.192882
C18   C     C_R   0.510688 0.456030 0.872762 -0.119372
C19   C     C_R   0.512344 0.453335 0.800642 -0.177388
C20   C     C_R   0.513025 0.520830 0.913125 0.231903
C21   C     C_R   0.515444 0.515001 0.766779 0.041778
C22   C     C_R   0.520182 0.581175 0.806192 -0.042477
C23   C     C_1   0.888371 0.517047 0.516588 -0.006320
C24   C     C_R   0.519087 0.583987 0.880103 -0.009960
C25   C     C_R   0.492272 0.491481 0.309712 0.519963
C26   C     C_R   0.723995 0.509967 0.509933 0.502301
C27   C     C_R   0.275954 0.490044 0.490035 0.505155
C28   C     C_1   0.813254 0.513868 0.513725 0.013197
C29   C     C_2   0.979370 0.520934 0.520092 0.285481
C30   C     C_2   0.021086 0.480464 0.473771 0.041198
C31   C     C_2   0.981260 0.431948 0.415365 0.175190
C32   C     C_2   0.640848 0.770864 0.560098 0.322924
C33   C     C_2   0.526343 0.647301 0.770894 0.228427
C34   C     C_1   0.186540 0.486646 0.484913 0.024139
C35   C     C_2   0.526961 0.652858 0.922826 0.233258
C36   C     C_3   0.688811 0.519125 0.247229 -0.003270
C37   C     C_3   0.757380 0.561576 0.291948 -0.330030
C38   C     C_3   0.978394 0.609764 0.612131 -0.006297
C39   C     C_3   0.036206 0.657011 0.662920 -0.349234
C40   C     C_3   0.283629 0.907959 0.517944 -0.007927
C41   C     C_3   0.206793 0.946808 0.490922 -0.353872
C42   C     C_3   0.700505 0.248322 0.445247 -0.019993
C43   C     C_3   0.777737 0.295815 0.457952 -0.331724
C44   C     C_2   0.621533 0.925875 0.588790 0.297723
C45   C     C_R   0.490406 0.766019 0.512864 -0.052985
C46   C     C_R   0.561639 0.806860 0.539798 -0.007672
C47   C     C_R   0.556058 0.881265 0.545988 0.004476
C48   C     C_R   0.482448 0.912732 0.516944 0.179770
C49   C     C_R   0.412003 0.871080 0.492590 0.273353
H1    H     H_    0.509260 0.402672 0.770800 0.132755
H2    H     H_    0.020727 0.399030 0.383875 0.116149
H3    H     H_    0.639171 0.719627 0.580392 0.122216
H4    H     H_    0.495521 0.694174 0.790381 0.102809
H5    H     H_    0.557257 0.697309 0.903436 0.101039
H6    H     H_    0.712503 0.502840 0.195734 0.120077
H7    H     H_    0.675099 0.471551 0.274359 0.130609
H8    H     H_    0.735568 0.578985 0.343642 0.197605
H9    H     H_    0.813603 0.528907 0.300259 0.134025
H10   H     H_    0.774398 0.608376 0.265335 0.161783
H11   H     H_    0.937626 0.579521 0.643201 0.142976
H12   H     H_    0.508707 0.407093 0.897206 0.147231
H13   H     H_    0.939721 0.643671 0.578051 0.148123
H14   H     H_    0.077515 0.688328 0.633510 0.166712
H15   H     H_    0.998661 0.693300 0.695105 0.116760
H16   H     H_    0.075345 0.624829 0.698176 0.169624
H17   H     H_    0.312269 0.938237 0.566327 0.141158
H18   H     H_    0.263219 0.855183 0.531096 0.128542
H19   H     H_    0.175953 0.917541 0.443130 0.170684
H20   H     H_    0.161826 0.951826 0.531620 0.106037
H21   H     H_    0.225105 0.000071 0.478105 0.161779
H22   H     H_    0.654959 0.272419 0.407415 0.120627
H23   H     H_    0.381426 0.408318 0.086995 0.139417
H24   H     H_    0.719378 0.196335 0.421808 0.129022
H25   H     H_    0.824959 0.273086 0.495020 0.166087
H26   H     H_    0.805335 0.301293 0.407709 0.135275
H27   H     H_    0.760643 0.348537 0.480251 0.187639
H28   H     H_    0.633280 0.979484 0.577917 0.133946
H29   H     H_    0.383879 0.416520 0.214884 0.151329
H30   H     H_    0.598095 0.545275 0.102737 0.160373
H31   H     H_    0.381750 0.216199 0.466832 0.137067
H32   H     H_    0.389680 0.088188 0.464253 0.161242
H33   H     H_    0.361824 0.766685 0.470258 0.136148
H34   H     H_    0.657735 0.103708 0.503022 0.130508
N1    N     N_2   0.474893 0.986381 0.515600 -0.223222
N2    N     N_2   0.531574 0.013476 0.485968 -0.252163
N3    N     N_2   0.482209 0.473006 0.010981 -0.244522
N4    N     N_2   0.516297 0.523806 0.987372 -0.175203
O1    O     O_3   0.500000 0.500000 0.500000 -0.450794
O2    O     O_R   0.688130 0.469010 0.547620 -0.532468
O3    O     O_R   0.315580 0.449250 0.449280 -0.543981
O4    O     O_R   0.680710 0.547310 0.468650 -0.547623
O5    O     O_R   0.315580 0.534430 0.534450 -0.531003
O6    O     O_2   0.905757 0.428322 0.400791 -0.550191
O7    O     O_2   0.708608 0.796621 0.551461 -0.460182
O8    O     O_2   0.567564 0.650584 0.720841 -0.498019
O9    O     O_2   0.499035 0.661211 0.979880 -0.454296
O10   O     O_3   0.617118 0.560776 0.238474 -0.523271
O11   O     O_3   0.027049 0.563905 0.571660 -0.559287
O12   O     O_R   0.456860 0.545290 0.655940 -0.511930
O13   O     O_3   0.340078 0.901969 0.465660 -0.530679
O14   O     O_3   0.666405 0.241394 0.509547 -0.532672
O15   O     O_2   0.660744 0.904177 0.639746 -0.457686
O16   O     O_R   0.446440 0.450430 0.339790 -0.558095
O17   O     O_R   0.557290 0.347960 0.537250 -0.495706
O18   O     O_R   0.539410 0.656320 0.467010 -0.529917
O19   O     O_R   0.456880 0.340240 0.450910 -0.557659
O20   O     O_R   0.446420 0.655480 0.544820 -0.523643
O21   O     O_R   0.557280 0.467820 0.657110 -0.536643
O22   O     O_R   0.539420 0.536460 0.347160 -0.487877
Zn1   Zn    Zn3+2 0.430910 0.557800 0.557800 0.976235
Zn2   Zn    Zn3+2 0.574380 0.447110 0.559460 0.975074
Zn3   Zn    Zn3+2 0.563780 0.559000 0.446630 0.970541
Zn4   Zn    Zn3+2 0.430930 0.436090 0.436110 0.926992

loop_
_geom_bond_atom_site_label_1
_geom_bond_atom_site_label_2
_ccdc_geom_bond_type
C32   O7    D    
C13   H30   S    
C16   C21   S    
C38   O11   S    
C3    C6    A    
C6    C9    A    
C7    C8    A    
C35   O9    D    
C26   O2    A    
C39   H15   S    
C6    N2    S    
C29   O11   S    
C36   H7    S    
C23   C29   S    
C44   H28   S    
O16   Zn4   S    
C30   C31   S    
C10   C17   A    
C20   N4    S    
C27   O3    A    
C18   C19   A    
O3    Zn4   S    
O1    Zn4   S    
C32   H3    S    
O1    Zn2   S    
C20   C24   A    
C42   H22   S    
C8    C9    A    
C40   H18   S    
C3    H32   S    
C36   O10   S    
C8    O14   S    
C37   H9    S    
C44   C47   S    
C25   O22   A    
C1    O19   A    
O1    Zn1   S    
C43   H25   S    
C2    C45   A    
C40   H17   S    
C13   C14   A    
C35   H5    S    
C33   H4    S    
C39   H16   S    
C33   O8    D    
C41   H19   S    
C4    C45   S    
C27   C34   S    
C43   H26   S    
C4    O20   A    
C24   C35   S    
O19   Zn4   S    
N1    N2    D    
C14   N3    S    
O22   Zn3   S    
C5    C7    A    
C44   O15   D    
N3    N4    D    
C25   O16   A    
C26   O4    A    
C45   C46   A    
O12   Zn1   S    
C12   C30   S    
C48   N1    S    
O4    Zn3   S    
C29   C30   D    
C15   H23   S    
C2    C49   A    
C47   C48   A    
C27   O5    A    
C18   H12   S    
C23   C28   T    
C5    H31   S    
C1    O17   A    
C37   H10   S    
C9    H34   S    
C38   H11   S    
C10   C25   S    
C40   C41   S    
O18   Zn3   S    
O20   Zn1   S    
C22   C24   A    
C2    H33   S    
C42   C43   S    
C12   C34   T    
C42   O14   S    
C41   H20   S    
C43   H27   S    
C15   C17   A    
C22   C33   S    
C46   C47   A    
C36   C37   S    
C42   H24   S    
C19   C21   A    
C1    C7    S    
C32   C46   S    
C31   H2    S    
C3    C5    A    
C40   O13   S    
O17   Zn2   S    
C16   O12   A    
C39   H14   S    
C4    O18   A    
O2    Zn2   S    
C26   C28   S    
O21   Zn2   S    
C11   O10   S    
C36   H6    S    
C31   O6    D    
C49   O13   S    
C11   C13   A    
C19   H1    S    
O5    Zn1   S    
C38   C39   S    
C48   C49   A    
C17   H29   S    
C18   C20   A    
C10   C11   A    
C16   O21   A    
O1    Zn3   S    
C14   C15   A    
C21   C22   A    
C37   H8    S    
C41   H21   S    
C38   H13   S    
