data_mof_unit_16301.cif
_audit_creation_date              2012-12-10T18:49:59-0500
_audit_creation_method            fapswitch 2.2
_symmetry_space_group_name_H-M    P1
_symmetry_Int_Tables_number       1
_space_group_crystal_system       triclinic
_cell_length_a                    10.684035
_cell_length_b                    9.939565
_cell_length_c                    10.690749
_cell_angle_alpha                 89.138684
_cell_angle_beta                  89.561722
_cell_angle_gamma                 91.383979
_cell_volume                      1134.80457357

loop_
_atom_site_label
_atom_site_type_symbol
_atom_type_description
_atom_site_fract_x
_atom_site_fract_y
_atom_site_fract_z
_atom_type_partial_charge
C1    C     C_R   0.260697 0.498713 0.502348 0.870078
C2    C     C_3   0.619360 0.468158 0.927022 -0.380068
C3    C     C_R   0.063283 0.421013 0.593159 -0.227369
C4    C     C_R   0.069508 0.584022 0.422273 -0.229390
C5    C     C_R   0.934339 0.420817 0.593247 0.231287
C6    C     C_R   0.942100 0.593375 0.427274 0.234007
C7    C     C_R   0.873188 0.505757 0.507899 -0.155247
C8    C     C_R   0.128918 0.497798 0.504016 -0.098876
C9    C     C_R   0.604974 0.073567 0.530397 -0.117245
C10   C     C_R   0.603981 0.930539 0.533632 -0.115670
C11   C     C_R   0.397237 0.926152 0.461371 0.238426
C12   C     C_R   0.393855 0.069033 0.471956 0.216700
C13   C     C_R   0.492770 0.500722 0.257865 0.828014
C14   C     C_R   0.739968 0.501701 0.502262 0.953218
C15   C     C_R   0.493501 0.499149 0.741579 0.859604
C16   C     C_3   0.440455 0.639873 0.065302 0.040609
C17   C     C_3   0.390620 0.390631 0.072483 0.064831
C18   C     C_3   0.446838 0.638651 0.922671 -0.443042
C19   C     C_3   0.390727 0.391385 0.927090 -0.424433
C20   C     C_3   0.619573 0.467924 0.069966 -0.386496
C21   C     C_3   0.487777 0.501193 0.120669 0.080090
C22   C     C_3   0.487451 0.498668 0.877424 0.084860
H1    H     H_    0.339268 0.643094 0.090037 0.090016
H2    H     H_    0.295833 0.423339 0.101914 0.076734
H3    H     H_    0.353229 0.662570 0.883971 0.154822
H4    H     H_    0.295749 0.416691 0.893029 0.139000
H5    H     H_    0.512559 0.718752 0.886644 0.208192
H6    H     H_    0.410360 0.291724 0.887468 0.209028
H7    H     H_    0.693479 0.537839 0.103138 0.185562
H8    H     H_    0.648681 0.368466 0.106413 0.201273
H9    H     H_    0.688767 0.544763 0.890640 0.187809
H10   H     H_    0.649074 0.368410 0.893877 0.220978
H11   H     H_    0.112164 0.363514 0.663373 0.165858
H12   H     H_    0.122634 0.645536 0.355674 0.185897
H13   H     H_    0.689645 0.128177 0.554807 0.204455
H14   H     H_    0.687525 0.878935 0.561393 0.183047
N1    N     N_R   0.499970 0.857200 0.499970 -0.105203
N2    N     N_R   0.499970 0.142800 0.499970 -0.106721
O1    O     O_R   0.316750 0.614620 0.499990 -0.615568
O2    O     O_R   0.316750 0.385380 0.499990 -0.596068
O3    O     O_R   0.499970 0.614670 0.314790 -0.571280
O4    O     O_R   0.499970 0.385330 0.314790 -0.597454
O5    O     O_R   0.683220 0.614710 0.500010 -0.591103
O6    O     O_R   0.683220 0.385290 0.500010 -0.596800
O7    O     O_R   0.500010 0.614660 0.685200 -0.635186
O8    O     O_R   0.500010 0.385340 0.685200 -0.612325
Zn1   Zn    Zn3+2 0.499980 0.653120 0.500000 0.982015
Zn2   Zn    Zn3+2 0.499980 0.346880 0.500000 0.979182
N3    N     N_2   0.494946 0.765402 0.112655 -0.279417
H15   H     H_    0.445871 0.847933 0.083191 0.216976
C23   C     C_3   0.628521 0.790781 0.107097 -0.654603
H16   H     H_    0.649824 0.898695 0.124409 0.228106
H17   H     H_    0.669259 0.764745 0.015223 0.221133
H18   H     H_    0.671986 0.733454 0.182603 0.292342
N4    N     N_2   0.405195 0.256609 0.129209 -0.262151
H19   H     H_    0.329440 0.220806 0.181275 0.222312
C24   C     C_3   0.477032 0.151820 0.071959 -0.773786
H20   H     H_    0.513292 0.085284 0.146804 0.237169
H21   H     H_    0.557777 0.192608 0.017167 0.253514
H22   H     H_    0.415816 0.090848 0.010024 0.219623
N5    N     N_2   0.292258 0.854137 0.413379 -0.260508
H23   H     H_    0.216193 0.845557 0.472933 0.235320
C25   C     C_3   0.260234 0.879826 0.283934 -0.798599
H24   H     H_    0.164742 0.921159 0.277856 0.246527
H25   H     H_    0.259837 0.783954 0.233102 0.247788
H26   H     H_    0.327425 0.951806 0.237527 0.225422
N6    N     N_2   0.277335 0.133488 0.464118 -0.267532
H27   H     H_    0.227928 0.115578 0.383666 0.220027
C26   C     C_3   0.201559 0.118458 0.576698 -0.728292
H28   H     H_    0.190110 0.011581 0.606492 0.207991
H29   H     H_    0.106738 0.157031 0.559058 0.255709
H30   H     H_    0.246159 0.174767 0.654205 0.243759
Br1   Br    Br    0.848986 0.310171 0.717128 -0.611918
Br2   Br    Br    0.873463 0.730987 0.324023 -0.606964

loop_
_geom_bond_atom_site_label_1
_geom_bond_atom_site_label_2
_ccdc_geom_bond_type
C2    C22   S    
C26   H30   S    
C23   H17   S    
C11   C12   A    
C25   H25   S    
C11   N1    A    
C6    C7    A    
N1    Zn1   S    
C1    C8    S    
C9    C10   A    
C17   N4    S    
C1    O1    A    
N2    Zn2   S    
C15   O8    A    
C3    H11   S    
C4    C8    A    
C23   H18   S    
C3    C5    A    
N4    H19   S    
C13   O3    A    
O3    Zn1   S    
C25   H26   S    
C13   C21   S    
C23   H16   S    
C16   C18   S    
O4    Zn2   S    
C16   N3    S    
C5    Br1   S    
C19   H6    S    
C24   H20   S    
C16   C21   S    
C18   H3    S    
N5    C25   S    
C10   N1    A    
C2    H10   S    
C9    N2    A    
C17   C19   S    
C6    Br2   S    
C16   H1    S    
O8    Zn2   S    
C20   H7    S    
N4    C24   S    
C26   H28   S    
C12   N2    A    
N5    H23   S    
C12   N6    S    
C4    H12   S    
C24   H21   S    
C4    C6    A    
C26   H29   S    
C15   O7    A    
C2    C20   S    
N6    H27   S    
C17   H2    S    
O6    Zn2   S    
C19   C22   S    
C20   C21   S    
C3    C8    A    
C14   O5    A    
C14   O6    A    
N3    H15   S    
O7    Zn1   S    
N6    C26   S    
C20   H8    S    
C5    C7    A    
C19   H4    S    
O2    Zn2   S    
C13   O4    A    
C24   H22   S    
C10   H14   S    
C9    H13   S    
C1    O2    A    
C11   N5    S    
C18   C22   S    
O1    Zn1   S    
O5    Zn1   S    
C15   C22   S    
C7    C14   S    
C18   H5    S    
C25   H24   S    
C2    H9    S    
N3    C23   S    
C17   C21   S    
