data_mof_unit_5197.cif
_audit_creation_date              2013-03-05T16:48:30-0500
_audit_creation_method            fapswitch 2.2
_symmetry_space_group_name_H-M    P1
_symmetry_Int_Tables_number       1
_space_group_crystal_system       triclinic
_cell_length_a                    10.847543
_cell_length_b                    14.661018
_cell_length_c                    14.619056
_cell_angle_alpha                 65.589193
_cell_angle_beta                  102.933331
_cell_angle_gamma                 102.402154
_cell_volume                      2043.73298932

loop_
_atom_site_label
_atom_site_type_symbol
_atom_site_description
_atom_site_fract_x
_atom_site_fract_y
_atom_site_fract_z
_atom_type_partial_charge
O1    O     O_R   0.455540 0.022090 0.338120 -0.587036
O2    O     O_R   0.544460 0.977910 0.661880 -0.587205
O3    O     O_R   0.512510 0.160150 0.379180 -0.585076
O4    O     O_R   0.487490 0.839850 0.620820 -0.585037
C1    C     C_R   0.480004 0.119461 0.312227 0.800263
C2    C     C_R   0.520013 0.880536 0.687774 0.800144
O5    O     O_R   0.291160 0.930970 0.479480 -0.579032
O6    O     O_R   0.708840 0.069030 0.520520 -0.578991
O7    O     O_R   0.348130 0.069020 0.520540 -0.582496
O8    O     O_R   0.651870 0.930980 0.479460 -0.582539
C3    C     C_R   0.262891 0.999889 0.502075 0.797110
C4    C     C_R   0.737109 0.000119 0.497910 0.797123
Cu1   Cu    Cu3+1 0.466270 0.918260 0.475690 0.961327
Cu2   Cu    Cu3+1 0.533730 0.081740 0.524310 0.961238
H1    H     H_    0.402064 0.260946 0.764422 0.123495
H2    H     H_    0.598160 0.737878 0.236652 0.123629
C5    C     C_R   0.343620 0.112952 0.758431 0.008337
C6    C     C_R   0.656200 0.886088 0.242170 0.008307
C7    C     C_R   0.260122 0.056476 0.704616 0.019174
C8    C     C_R   0.739651 0.942885 0.295676 0.019398
C9    C     C_R   0.181600 0.107086 0.613108 0.024089
C10   C     C_R   0.818431 0.892599 0.387164 0.024040
C11   C     C_R   0.179631 0.211237 0.580996 -0.194957
C12   C     C_R   0.820715 0.788459 0.419532 -0.195136
H3    H     H_    0.115559 0.249543 0.513389 0.159238
H4    H     H_    0.884978 0.750398 0.487123 0.159307
C13   C     C_R   0.255998 0.265452 0.637162 0.036167
C14   C     C_R   0.744439 0.733943 0.363639 0.036039
C15   C     C_R   0.340503 0.217311 0.723157 -0.282784
C16   C     C_R   0.659675 0.781756 0.277683 -0.282817
C17   C     C_R   0.962037 0.050502 0.549099 -0.216616
C18   C     C_R   0.037969 0.949556 0.450826 -0.216724
H5    H     H_    0.933005 0.088359 0.589188 0.161726
H6    H     H_    0.067010 0.911687 0.410753 0.161709
C19   C     C_R   0.870325 0.999345 0.496374 -0.074165
C20   C     C_R   0.129674 0.000687 0.503572 -0.074175
C21   C     C_R   0.908519 0.948134 0.446093 0.016006
C22   C     C_R   0.091484 0.051855 0.553894 0.015977
C23   C     C_R   0.465406 0.187322 0.204494 -0.078835
C24   C     C_R   0.534724 0.812668 0.795506 -0.078738
C25   C     C_R   0.366819 0.220025 0.030435 -0.162144
C26   C     C_R   0.633480 0.779984 0.969528 -0.161728
C27   C     C_R   0.386083 0.153783 0.131545 -0.124824
C28   C     C_R   0.614062 0.846235 0.868431 -0.124855
C29   C     C_R   0.525600 0.288299 0.175107 -0.101542
C30   C     C_R   0.474686 0.711647 0.824904 -0.101572
C31   C     C_R   0.484856 0.360084 0.078076 0.037163
C32   C     C_R   0.515570 0.639883 0.921909 0.037132
C33   C     C_R   0.414917 0.322863 0.003283 0.138775
C34   C     C_R   0.585511 0.677124 0.996686 0.138865
C35   C     C_R   0.512613 0.466822 0.051753 0.066844
C36   C     C_R   0.487906 0.533145 0.948231 0.066780
C37   C     C_R   0.442174 0.490497 0.874117 -0.192185
C38   C     C_R   0.558405 0.509476 0.125860 -0.192204
C39   C     C_R   0.398050 0.388162 0.901654 -0.191523
C40   C     C_R   0.602492 0.611820 0.098309 -0.191614
H7    H     H_    0.353456 0.359732 0.842774 0.148492
H8    H     H_    0.647115 0.640260 0.157179 0.148392
H9    H     H_    0.658953 0.924110 0.847628 0.155225
H10   H     H_    0.341079 0.075937 0.152342 0.155642
H11   H     H_    0.311047 0.191552 0.973934 0.137847
H12   H     H_    0.689253 0.808476 0.026016 0.137765
H13   H     H_    0.439885 0.534841 0.793874 0.153119
H14   H     H_    0.560747 0.465140 0.206108 0.153115
N1    N     N_R   0.584450 0.204570 0.560790 -0.175513
N2    N     N_R   0.415550 0.795430 0.439210 -0.175568
C41   C     C_R   0.703100 0.277885 0.678703 -0.108355
C42   C     C_R   0.296821 0.722084 0.321343 -0.108525
C43   C     C_R   0.672502 0.198887 0.644084 -0.003965
C44   C     C_R   0.327464 0.801099 0.355938 -0.003840
C45   C     C_R   0.524151 0.287600 0.506712 0.041473
C46   C     C_R   0.475836 0.712393 0.493295 0.041543
C47   C     C_R   0.550159 0.371613 0.536090 -0.029946
C48   C     C_R   0.449784 0.628364 0.463940 -0.029798
C49   C     C_R   0.637263 0.363698 0.626729 0.137517
C50   C     C_R   0.362652 0.636268 0.373317 0.137301
C51   C     C_R   0.489650 0.461158 0.480431 0.094378
C52   C     C_R   0.510288 0.538817 0.519599 0.094591
C53   C     C_R   0.588582 0.523431 0.614231 -0.255096
C54   C     C_R   0.411333 0.476537 0.385810 -0.255252
C55   C     C_R   0.651166 0.438814 0.665697 -0.142421
C56   C     C_R   0.348727 0.561143 0.334358 -0.142460
H15   H     H_    0.707107 0.431803 0.738759 0.198409
H16   H     H_    0.292761 0.568145 0.261305 0.198451
H17   H     H_    0.547900 0.715773 0.556118 0.126044
H18   H     H_    0.452113 0.284227 0.443873 0.126051
H19   H     H_    0.281026 0.868351 0.315967 0.116666
H20   H     H_    0.718943 0.131637 0.684055 0.116598
H21   H     H_    0.602038 0.575035 0.652006 0.136576
H22   H     H_    0.397861 0.424931 0.348035 0.136651
C57   C     C_2   0.804930 0.266275 0.767937 0.332089
H23   H     H_    0.819473 0.191102 0.823748 0.067805
O9    O     O_2   0.878547 0.338774 0.777018 -0.518333
C58   C     C_2   0.194956 0.733680 0.232133 0.332148
H24   H     H_    0.180398 0.808848 0.176319 0.067997
O10   O     O_2   0.121329 0.661174 0.223079 -0.518406
C59   C     C_2   0.433253 0.067517 0.852872 0.331069
H25   H     H_    0.495329 0.115818 0.889011 0.107410
O11   O     O_2   0.439645 0.976986 0.891833 -0.549894
C60   C     C_2   0.566235 0.931151 0.147829 0.330957
H26   H     H_    0.504323 0.882639 0.111864 0.107282
O12   O     O_2   0.559333 0.021606 0.108783 -0.550174
C61   C     C_1   0.247714 0.947275 0.744913 0.297774
N3    N     N_1   0.236551 0.859888 0.777269 -0.262950
C62   C     C_1   0.751761 0.052081 0.255068 0.297950
N4    N     N_1   0.762684 0.139468 0.222457 -0.263242
C63   C     C_1   0.242587 0.369535 0.609498 0.253362
N5    N     N_1   0.230746 0.452889 0.587780 -0.243082
C64   C     C_1   0.758186 0.629882 0.391560 0.253722
N6    N     N_1   0.770300 0.546546 0.413488 -0.242850
C65   C     C_1   0.356774 0.688232 0.763421 0.291841
N7    N     N_1   0.262726 0.670006 0.714342 -0.233966
C66   C     C_1   0.643540 0.311608 0.236622 0.291685
N8    N     N_1   0.737613 0.329746 0.285726 -0.234149

loop_
_geom_bond_atom_site_label_1
_geom_bond_atom_site_label_2
_geom_bond_distance
_ccdc_geom_bond_type
O5    Cu1   1.963066 S    
C13   C15   1.395540 A    
C46   C48   1.419470 A    
C5    C15   1.403659 A    
C37   C39   1.385899 A    
C65   N7    1.157878 T    
C25   H11   1.084147 S    
C46   H17   1.075459 S    
C31   C33   1.418770 A    
C51   C52   1.430492 A    
O5    C3    1.295535 A    
C48   C50   1.421812 A    
O1    C1    1.298938 A    
C18   C20   1.400083 A    
C3    C20   1.452758 S    
C7    C9    1.416565 A    
C12   H4    1.084754 S    
C66   N8    1.157879 T    
C28   H9    1.083347 S    
H2    C16   1.083643 S    
C59   H25   1.085903 S    
O4    Cu1   1.937793 S    
C55   H15   1.079615 S    
C7    C61   1.446268 S    
N2    C46   1.360068 A    
C9    C22   1.490360 S    
C63   N5    1.157228 T    
C17   H5    1.085017 S    
C6    C16   1.403672 A    
C11   C13   1.394394 A    
C26   H12   1.084149 S    
C23   C29   1.409696 A    
C32   C34   1.418744 A    
C30   C65   1.453793 S    
C47   C49   1.421822 A    
O2    C2    1.298961 A    
C26   C28   1.390720 A    
C44   H19   1.082920 S    
C25   C33   1.401107 A    
C59   O11   1.219783 D    
H1    C15   1.083634 S    
C30   C32   1.414352 A    
Cu1   N2    2.016661 S    
C29   C31   1.414331 A    
C38   C40   1.385934 A    
C41   C57   1.484283 S    
C35   C36   1.421866 A    
C2    C24   1.468455 S    
C13   C63   1.439518 S    
C54   C56   1.388386 A    
C50   C56   1.403144 A    
C57   H23   1.085840 S    
C45   C47   1.419472 A    
C52   C53   1.408702 A    
C49   C55   1.403147 A    
C31   C35   1.428055 A    
C33   C39   1.391138 A    
C10   C21   1.490373 S    
C6    C60   1.487379 S    
C42   C58   1.484283 S    
C41   C43   1.397095 A    
C18   H6    1.085022 S    
C24   C30   1.409711 A    
O7    Cu2   1.971993 S    
C57   O9    1.220524 D    
C45   H18   1.075449 S    
C32   C36   1.428028 A    
O6    C4    1.295561 A    
C60   O12   1.219831 D    
C18   C21   1.386422 A    
C4    C19   1.452799 S    
C58   O10   1.220525 D    
O7    C3    1.291096 A    
C43   H20   1.082919 S    
O8    C4    1.291095 A    
C27   H10   1.083348 S    
C26   C34   1.401106 A    
O4    C2    1.294592 A    
C8    C10   1.416551 A    
C56   H16   1.079616 S    
C39   H7    1.082699 S    
C10   C12   1.403390 A    
C41   C49   1.422355 A    
C20   C22   1.414775 A    
C36   C37   1.413193 A    
C53   C55   1.388385 A    
C8    C62   1.446257 S    
C51   C54   1.408704 A    
C1    C23   1.468426 S    
O6    Cu2   1.963067 S    
C19   C21   1.414844 A    
C25   C27   1.390713 A    
C12   C14   1.394339 A    
O3    C1    1.294596 A    
O8    Cu1   1.971993 S    
C23   C27   1.400142 A    
O3    Cu2   1.937793 S    
C14   C64   1.439502 S    
C42   C50   1.422352 A    
C62   N4    1.156703 T    
C17   C22   1.386420 A    
C35   C38   1.413220 A    
C9    C11   1.403386 A    
N1    C45   1.360065 A    
C64   N6    1.157237 T    
C37   H13   1.078387 S    
N2    C44   1.353397 A    
C38   H14   1.078370 S    
N1    C43   1.353396 A    
C17   C19   1.400155 A    
C14   C16   1.395513 A    
C60   H26   1.085904 S    
C5    C7    1.422043 A    
Cu2   N1    2.016661 S    
C40   H8    1.082713 S    
C6    C8    1.422087 A    
C11   H3    1.084747 S    
C54   H22   1.077259 S    
C58   H24   1.085834 S    
O2    Cu2   1.953550 S    
C34   C40   1.391146 A    
C53   H21   1.077263 S    
C29   C66   1.453782 S    
C24   C28   1.400150 A    
O1    Cu1   1.953549 S    
C42   C44   1.397094 A    
C48   C52   1.436846 A    
C61   N3    1.156693 T    
C47   C51   1.436857 A    
Cu1   Cu2   2.684618 S    
C5    C59   1.487419 S    
