data_mof_unit_57166.cif
_audit_creation_date              2012-12-10T18:58:48-0500
_audit_creation_method            fapswitch 2.2
_symmetry_space_group_name_H-M    P1
_symmetry_Int_Tables_number       1
_space_group_crystal_system       triclinic
_cell_length_a                    12.950114
_cell_length_b                    10.826667
_cell_length_c                    9.54124
_cell_angle_alpha                 90.221251
_cell_angle_beta                  96.069504
_cell_angle_gamma                 89.945258
_cell_volume                      1330.23552212

loop_
_atom_site_label
_atom_site_type_symbol
_atom_type_description
_atom_site_fract_x
_atom_site_fract_y
_atom_site_fract_z
_atom_type_partial_charge
C1    C     C_R   0.496740 0.262390 0.499250 0.860369
C2    C     C_R   0.027289 0.457528 0.551960 0.087160
C3    C     C_R   0.973866 0.537297 0.452464 0.184396
C4    C     C_R   0.866973 0.551021 0.450394 -0.323125
C5    C     C_R   0.864764 0.395464 0.634904 0.440716
C6    C     C_R   0.972810 0.388255 0.642940 -0.261551
C7    C     C_R   0.467268 0.064032 0.616951 0.095554
C8    C     C_R   0.485535 0.129392 0.496021 -0.063149
C9    C     C_R   0.488804 0.064016 0.368908 -0.201181
C10   C     C_R   0.489856 0.935325 0.369214 -0.211899
C11   C     C_R   0.487817 0.870895 0.496681 -0.084982
C12   C     C_R   0.300709 0.501936 0.473882 0.781335
C13   C     C_R   0.469119 0.936919 0.617322 0.130691
C14   C     C_3   0.521547 0.931874 0.764208 -0.479496
C15   C     C_3   0.517706 0.072060 0.764985 -0.413876
C16   C     C_R   0.545361 0.594478 0.080606 0.250815
C17   C     C_R   0.446534 0.413468 0.066370 -0.066563
C18   C     C_R   0.446524 0.413460 0.917456 -0.043097
C19   C     C_R   0.545176 0.594715 0.933231 0.248545
C20   C     C_3   0.656263 0.633679 0.943952 -0.476570
C21   C     C_3   0.656408 0.632698 0.102945 -0.498481
C22   C     C_R   0.498332 0.737756 0.499760 0.788831
C23   C     C_R   0.699257 0.493829 0.526246 0.889055
C24   C     C_R   0.811935 0.481312 0.540970 -0.185874
C25   C     C_R   0.188320 0.509120 0.460121 -0.035782
C26   C     C_R   0.028159 0.600553 0.355416 -0.168748
C27   C     C_R   0.135169 0.585186 0.358116 -0.193904
C28   C     C_R   0.134469 0.445448 0.556489 -0.224236
Cu1   Cu    Cu3+1 0.499990 0.499980 0.640670 0.988890
Cu2   Cu    Cu3+1 0.500010 0.500020 0.359330 0.955438
H1    H     H_    0.826019 0.614458 0.376262 0.157641
H2    H     H_    0.601927 0.895223 0.768227 0.201236
H3    H     H_    0.464251 0.109888 0.838271 0.178122
H4    H     H_    0.595719 0.115458 0.773730 0.266550
H5    H     H_    0.404829 0.342080 0.115873 0.133877
H6    H     H_    0.404680 0.342200 0.855351 0.125191
H7    H     H_    0.708231 0.562848 0.905021 0.259463
H8    H     H_    0.666084 0.727574 0.901406 0.179529
H9    H     H_    0.707691 0.559942 0.154280 0.233702
H10   H     H_    0.666057 0.726015 0.151541 0.189066
H11   H     H_    0.987985 0.661317 0.277725 0.140457
H12   H     H_    0.014410 0.324060 0.715234 0.195652
H13   H     H_    0.176846 0.635587 0.283977 0.150441
H14   H     H_    0.176166 0.385688 0.634177 0.138483
H15   H     H_    0.496482 0.111542 0.270857 0.164350
H16   H     H_    0.497987 0.887168 0.271251 0.162518
H17   H     H_    0.471881 0.888901 0.838742 0.195840
N1    N     N_R   0.500660 0.500930 0.148010 -0.183850
N2    N     N_R   0.500660 0.500890 0.852110 -0.172001
O1    O     O_R   0.500000 0.319640 0.618810 -0.560816
O2    O     O_R   0.500010 0.319680 0.381230 -0.595091
O3    O     O_R   0.348990 0.499960 0.599490 -0.591426
O4    O     O_R   0.349000 0.500000 0.361910 -0.587678
O5    O     O_R   0.499990 0.680320 0.618770 -0.585734
O6    O     O_R   0.500000 0.680360 0.381190 -0.592810
O7    O     O_R   0.651000 0.500000 0.638090 -0.538224
O8    O     O_R   0.651010 0.500040 0.400510 -0.583509
S1    S     S_3+6 0.798995 0.281495 0.724282 -0.024326
O9    O     O_2   0.741306 0.339769 0.835998 -0.308307
O10   O     O_2   0.723574 0.216356 0.618649 -0.341378
O11   O     O_3   0.883515 0.177483 0.800448 -0.546682
H18   H     H_    0.839775 0.114055 0.839843 0.370433

loop_
_geom_bond_atom_site_label_1
_geom_bond_atom_site_label_2
_ccdc_geom_bond_type
C10   H16   S    
C2    C28   A    
C23   C24   S    
C15   H4    S    
C9    H15   S    
C16   C21   S    
Cu1   O7    S    
C25   C27   A    
C1    C8    S    
C20   H8    S    
C9    C10   A    
C19   N2    A    
C11   C22   S    
C12   O4    A    
C21   H9    S    
C17   N1    A    
C12   C25   S    
Cu2   O2    S    
C10   C11   A    
C16   N1    A    
S1    O11   S    
C7    C15   S    
C17   C18   A    
C22   O6    A    
C7    C8    A    
C22   O5    A    
C2    C6    A    
C13   C14   S    
C25   C28   A    
C20   H7    S    
C11   C13   A    
C23   O7    A    
C26   C27   A    
C14   H17   S    
C5    C24   A    
C5    S1    S    
C16   C19   A    
C5    C6    A    
Cu2   N1    S    
C12   O3    A    
C28   H14   S    
C2    C3    A    
Cu1   O1    S    
C6    H12   S    
O11   H18   S    
C4    C24   A    
Cu2   O4    S    
C4    H1    S    
Cu1   O5    S    
S1    O10   D    
C3    C4    A    
Cu2   O8    S    
C27   H13   S    
C7    C13   A    
C20   C21   S    
C26   H11   S    
C1    O1    A    
C23   O8    A    
C14   C15   S    
Cu1   N2    S    
C1    O2    A    
C17   H5    S    
S1    O9    D    
C18   H6    S    
Cu2   O6    S    
C15   H3    S    
C3    C26   A    
Cu1   Cu2   S    
C19   C20   S    
C18   N2    A    
C14   H2    S    
C8    C9    A    
Cu1   O3    S    
C21   H10   S    
