data_mof_unit_7262.cif
_audit_creation_date              2012-10-26T19:04:15-0400
_audit_creation_method            fapswitch 2.2
_symmetry_space_group_name_H-M    P1
_symmetry_Int_Tables_number       1
_space_group_crystal_system       triclinic
_cell_length_a                    14.949879
_cell_length_b                    15.614047
_cell_length_c                    9.584994
_cell_angle_alpha                 90.594094
_cell_angle_beta                  89.659883
_cell_angle_gamma                 90.235822
_cell_volume                      2237.22898202

loop_
_atom_site_label
_atom_site_type_symbol
_atom_type_description
_atom_site_fract_x
_atom_site_fract_y
_atom_site_fract_z
_atom_type_partial_charge
C1    C     C_R   0.378542 0.883968 0.499935 0.612294
C2    C     C_R   0.764670 0.176457 0.441579 -0.153324
C3    C     C_R   0.226542 0.288251 0.379452 -0.167503
C4    C     C_R   0.264758 0.676374 0.441906 -0.153339
C5    C     C_R   0.677608 0.806054 0.501025 -0.005770
C6    C     C_R   0.680453 0.190303 0.499902 0.011197
C7    C     C_R   0.177605 0.306053 0.501005 -0.005754
C8    C     C_R   0.180463 0.690290 0.499903 0.011253
C9    C     C_R   0.664512 0.997893 0.142786 -0.090551
C10   C     C_R   0.164512 0.497890 0.142787 -0.090526
C11   C     C_R   0.744944 0.995911 0.069862 -0.174209
C12   C     C_R   0.386389 0.123638 0.502150 0.590104
C13   C     C_R   0.244944 0.495903 0.069862 -0.174200
C14   C     C_R   0.745054 0.996340 0.926131 -0.159283
C15   C     C_R   0.245054 0.496331 0.926131 -0.159294
C16   C     C_R   0.664728 0.998747 0.854497 -0.073142
C17   C     C_R   0.164728 0.498742 0.854497 -0.073121
C18   C     C_R   0.580947 0.999154 0.924454 0.154338
C19   C     C_R   0.080946 0.499150 0.924454 0.154342
C20   C     C_R   0.580881 0.998934 0.074119 0.154888
C21   C     C_R   0.080881 0.498931 0.074119 0.154887
C22   C     C_R   0.423036 0.001156 0.074632 -0.017494
C23   C     C_R   0.878536 0.383976 0.499933 0.612239
C24   C     C_R   0.923036 0.501162 0.074632 -0.017485
C25   C     C_R   0.618334 0.119047 0.500044 0.516239
C26   C     C_R   0.614210 0.877042 0.499708 0.524539
C27   C     C_R   0.118337 0.619043 0.500044 0.516273
C28   C     C_R   0.114211 0.377044 0.499704 0.524536
C29   C     C_R   0.423068 0.001060 0.926646 -0.002093
C30   C     C_R   0.923068 0.501067 0.926646 -0.002115
C31   C     C_R   0.318235 0.211225 0.773121 0.259056
C32   C     C_R   0.193177 0.921528 0.605615 0.245815
C33   C     C_R   0.818369 0.711326 0.773078 0.259036
C34   C     C_R   0.886387 0.623635 0.502145 0.590088
C35   C     C_R   0.693268 0.421450 0.606142 0.245838
C36   C     C_R   0.260871 0.216291 0.889936 -0.121222
C37   C     C_R   0.105510 0.933598 0.656492 -0.121341
C38   C     C_R   0.761062 0.716422 0.889957 -0.121246
C39   C     C_R   0.605682 0.433443 0.657413 -0.121396
C40   C     C_R   0.671840 0.738097 0.873861 -0.164431
C41   C     C_R   0.544034 0.366920 0.655076 -0.145241
C42   C     C_R   0.171659 0.237978 0.873757 -0.164397
C43   C     C_R   0.043847 0.867085 0.654083 -0.145192
C44   C     C_R   0.641240 0.763507 0.744130 -0.117331
C45   C     C_R   0.296436 0.230767 0.382374 -0.171573
C46   C     C_R   0.568468 0.287208 0.602624 -0.099427
C47   C     C_R   0.141124 0.263427 0.744013 -0.117342
C48   C     C_R   0.068354 0.787307 0.601991 -0.099325
C49   C     C_R   0.699283 0.764444 0.627067 -0.015463
C50   C     C_R   0.656102 0.271584 0.553916 -0.019577
C51   C     C_R   0.199223 0.264397 0.627023 -0.015492
C52   C     C_R   0.156048 0.771629 0.553605 -0.019530
C53   C     C_R   0.282604 0.223289 0.636740 0.053604
C54   C     C_R   0.219873 0.839179 0.554358 0.060258
C55   C     C_R   0.782670 0.723341 0.636731 0.053606
C56   C     C_R   0.327415 0.741460 0.441797 -0.171619
C57   C     C_R   0.719921 0.339141 0.554641 0.060281
C58   C     C_R   0.324621 0.196417 0.509138 -0.000975
C59   C     C_R   0.306803 0.821524 0.499520 0.016297
C60   C     C_R   0.824628 0.696421 0.509116 -0.000987
C61   C     C_R   0.806787 0.321542 0.499506 0.016265
C62   C     C_R   0.796394 0.730727 0.382346 -0.171581
C63   C     C_R   0.827324 0.241544 0.441470 -0.171648
C64   C     C_R   0.726498 0.788209 0.379439 -0.167510
Cu1   Cu    Cu3+1 0.499990 1.000000 0.640660 0.970939
Cu2   Cu    Cu3+1 0.999990 0.500000 0.640660 0.970980
Cu3   Cu    Cu3+1 0.500010 0.000000 0.359340 0.931839
Cu4   Cu    Cu3+1 0.000010 0.500000 0.359340 0.931796
H1    H     H_    0.328944 0.213696 0.284711 0.134043
H2    H     H_    0.860029 0.502100 0.871848 0.145505
H3    H     H_    0.285659 0.204530 0.993923 0.091338
H4    H     H_    0.084246 0.995557 0.695920 0.097207
H5    H     H_    0.785901 0.704688 0.993924 0.091330
H6    H     H_    0.584458 0.495361 0.697063 0.097195
H7    H     H_    0.627421 0.739584 0.963469 0.123297
H8    H     H_    0.476402 0.377507 0.692299 0.142753
H9    H     H_    0.127198 0.239451 0.963314 0.123306
H10   H     H_    0.976157 0.877720 0.691010 0.142608
H11   H     H_    0.571605 0.781176 0.736251 0.151749
H12   H     H_    0.393344 0.728813 0.398690 0.117826
H13   H     H_    0.517563 0.238315 0.598045 0.184281
H14   H     H_    0.071495 0.281110 0.736064 0.151726
H15   H     H_    0.017463 0.738400 0.597450 0.184074
H16   H     H_    0.710342 0.818085 0.281276 0.138125
H17   H     H_    0.782426 0.114398 0.398078 0.106680
H18   H     H_    0.210426 0.318164 0.281304 0.138118
H19   H     H_    0.282562 0.614263 0.398648 0.106626
H20   H     H_    0.359957 0.002152 0.130491 0.124653
H21   H     H_    0.859957 0.502163 0.130490 0.124639
H22   H     H_    0.672267 0.998877 0.252661 0.181376
H23   H     H_    0.828860 0.713621 0.284664 0.134042
H24   H     H_    0.172267 0.498877 0.252662 0.181386
H25   H     H_    0.807713 0.994706 0.125641 0.116645
H26   H     H_    0.307713 0.494696 0.125641 0.116652
H27   H     H_    0.422422 0.199724 0.893234 0.318539
H28   H     H_    0.222094 0.041491 0.642700 0.311119
H29   H     H_    0.922620 0.699855 0.893062 0.318582
H30   H     H_    0.722146 0.541431 0.643150 0.311117
H31   H     H_    0.893197 0.228943 0.398116 0.117908
H32   H     H_    0.807923 0.995456 0.869388 0.118857
H33   H     H_    0.307923 0.495446 0.869389 0.118832
H34   H     H_    0.672786 0.000622 0.744590 0.184518
H35   H     H_    0.172786 0.500621 0.744591 0.184507
H36   H     H_    0.360029 0.002087 0.871849 0.145508
N1    N     N_R   0.501200 1.000000 0.147910 -0.246790
N2    N     N_R   0.001200 0.500000 0.147910 -0.246787
N3    N     N_R   0.501270 1.000000 0.852040 -0.240759
N4    N     N_R   0.001270 0.500000 0.852040 -0.240768
O1    O     O_R   0.409820 0.909830 0.618810 -0.472589
O2    O     O_R   0.590170 0.909830 0.618760 -0.537744
O3    O     O_R   0.090170 0.590170 0.618760 -0.515691
O4    O     O_R   0.090170 0.409830 0.618760 -0.537727
O5    O     O_R   0.590190 0.090180 0.381190 -0.521702
O6    O     O_R   0.590190 0.909820 0.381190 -0.531254
O7    O     O_R   0.090190 0.590180 0.381190 -0.521722
O8    O     O_R   0.090190 0.409820 0.381190 -0.531259
O9    O     O_3   0.409480 0.205711 0.792434 -0.705966
O10   O     O_3   0.251462 0.990094 0.601960 -0.699394
O11   O     O_3   0.909625 0.705817 0.792276 -0.705848
O12   O     O_R   0.409820 0.090170 0.618810 -0.419973
O13   O     O_3   0.751494 0.490057 0.602293 -0.699394
O14   O     O_R   0.909820 0.409830 0.618810 -0.472552
O15   O     O_R   0.909820 0.590170 0.618810 -0.419964
O16   O     O_R   0.409840 0.909830 0.381240 -0.497494
O17   O     O_R   0.409840 0.090170 0.381240 -0.508828
O18   O     O_R   0.909840 0.409830 0.381240 -0.497551
O19   O     O_R   0.909840 0.590170 0.381240 -0.508884
O20   O     O_R   0.590170 0.090170 0.618760 -0.515802

loop_
_geom_bond_atom_site_label_1
_geom_bond_atom_site_label_2
_ccdc_geom_bond_type
C44   C49   A    
C33   C55   A    
H30   O13   S    
Cu2   Cu4   S    
H29   O11   S    
C34   O15   A    
C22   C29   A    
C36   C42   A    
C4    C8    A    
Cu3   O16   S    
C39   C41   A    
C4    H19   S    
C28   O4    A    
C43   H10   S    
H28   O10   S    
C19   C21   A    
C25   O20   A    
C3    C7    A    
C1    C59   S    
C11   C14   A    
C47   H14   S    
C6    C25   S    
C2    H17   S    
C60   C62   A    
C39   H6    S    
C61   C63   A    
C56   C59   A    
C18   N3    A    
C64   H16   S    
C62   C64   A    
C28   O8    A    
C1    O1    A    
C12   O12   A    
C31   O9    S    
C34   O19   A    
Cu1   Cu3   S    
C63   H31   S    
C41   C46   A    
Cu2   O14   S    
C22   H20   S    
Cu2   O3    S    
C43   C48   A    
C8    C52   A    
C40   C44   A    
C21   N2    A    
C36   H3    S    
C12   C58   S    
C19   N4    A    
C11   H25   S    
C10   H24   S    
C55   C60   A    
C24   H21   S    
C3    H18   S    
C34   C60   S    
C5    C49   A    
C2    C6    A    
Cu4   N2    S    
C32   C54   A    
C30   H2    S    
C52   C54   A    
C23   O14   A    
C54   C59   A    
C10   C21   A    
C45   C58   A    
C45   H1    S    
Cu1   O20   S    
C35   O13   S    
Cu2   N4    S    
Cu3   N1    S    
C47   C51   A    
C12   O17   A    
C49   C55   A    
C3    C45   A    
H27   O9    S    
C7    C28   S    
C5    C64   A    
C51   C53   A    
C37   C43   A    
C35   C39   A    
C26   O6    A    
C25   O5    A    
C46   H13   S    
C9    C20   A    
C23   C61   S    
C62   H23   S    
C32   C37   A    
C15   H33   S    
C57   C61   A    
C9    C11   A    
Cu4   O19   S    
Cu1   O1    S    
Cu4   O8    S    
C23   O18   A    
C16   H34   S    
C33   O11   S    
C13   C15   A    
C14   C16   A    
C31   C53   A    
C24   N2    A    
Cu4   O18   S    
C2    C63   A    
C20   N1    A    
C15   C17   A    
C26   O2    A    
C6    C50   A    
C30   N4    A    
C31   C36   A    
C50   C57   A    
Cu3   O6    S    
C44   H11   S    
C32   O10   S    
C10   C13   A    
C9    H22   S    
C53   C58   A    
C40   H7    S    
C14   H32   S    
C22   N1    A    
C46   C50   A    
C33   C38   A    
C56   H12   S    
C48   H15   S    
C13   H26   S    
C35   C57   A    
Cu3   O17   S    
C17   H35   S    
C1    O16   A    
C7    C51   A    
C41   H8    S    
C38   C40   A    
C17   C19   A    
Cu1   O12   S    
C18   C20   A    
C42   C47   A    
Cu3   O5    S    
C24   C30   A    
Cu1   O2    S    
Cu4   O7    S    
C27   O3    A    
C5    C26   S    
C48   C52   A    
C29   H36   S    
C42   H9    S    
C16   C18   A    
C37   H4    S    
C8    C27   S    
Cu2   O15   S    
C29   N3    A    
Cu2   O4    S    
Cu1   N3    S    
C4    C56   A    
C38   H5    S    
C27   O7    A    
