data_mof_unit_14707.cif
_audit_creation_date              2012-12-10T17:48:16-0500
_audit_creation_method            fapswitch 2.2
_symmetry_space_group_name_H-M    P1
_symmetry_Int_Tables_number       1
_space_group_crystal_system       triclinic
_cell_length_a                    13.883497
_cell_length_b                    14.670558
_cell_length_c                    14.644127
_cell_angle_alpha                 115.05735
_cell_angle_beta                  106.315197
_cell_angle_gamma                 72.083829
_cell_volume                      2531.38856899

loop_
_atom_site_label
_atom_site_type_symbol
_atom_type_description
_atom_site_fract_x
_atom_site_fract_y
_atom_site_fract_z
_atom_type_partial_charge
C1    C     C_R   0.507278 0.120188 0.688941 0.785898
C2    C     C_R   0.486385 0.880730 0.310931 0.784524
C3    C     C_R   0.448272 0.363411 0.932515 0.040646
C4    C     C_R   0.436741 0.640866 0.092804 0.055360
C5    C     C_R   0.488423 0.318368 0.007161 0.107135
C6    C     C_R   0.365668 0.685259 0.023838 0.109647
C7    C     C_R   0.409051 0.471977 0.968745 0.060993
C8    C     C_R   0.446684 0.533936 0.069365 0.058283
C9    C     C_R   0.484222 0.487312 0.142464 -0.212091
C10   C     C_R   0.326597 0.520230 0.912392 -0.218744
C11   C     C_R   0.500985 0.380655 0.111738 -0.205925
C12   C     C_R   0.305725 0.625974 0.938761 -0.227176
C13   C     C_R   0.309785 0.313321 0.351915 -0.325979
C14   C     C_R   0.684482 0.692411 0.656992 -0.330413
C15   C     C_R   0.341616 0.226490 0.377695 0.070139
C16   C     C_R   0.650860 0.780954 0.633870 0.060053
C17   C     C_R   0.495943 0.278224 0.478376 0.003245
C18   C     C_R   0.511499 0.715350 0.510975 -0.003434
C19   C     C_R   0.465886 0.370844 0.458692 -0.028405
C20   C     C_R   0.541393 0.623135 0.531194 -0.027622
C21   C     C_R   0.371840 0.385330 0.391402 0.164046
C22   C     C_R   0.630446 0.613075 0.605673 0.168256
C23   C     C_R   0.687189 0.986632 0.503940 0.820993
C24   C     C_R   0.312835 0.013442 0.496194 0.810873
C25   C     C_R   0.522908 0.450700 0.505956 0.068657
C26   C     C_R   0.486445 0.541643 0.481206 0.075334
C27   C     C_R   0.395189 0.548934 0.409009 -0.244167
C28   C     C_R   0.612996 0.444346 0.579698 -0.239934
C29   C     C_R   0.338860 0.472688 0.365941 -0.196294
C30   C     C_R   0.665167 0.524106 0.628553 -0.198973
C31   C     C_1   0.207398 0.021783 0.494665 -0.190569
C32   C     C_1   0.792714 0.978507 0.505919 -0.189392
C33   C     C_2   0.013052 0.035883 0.492270 -0.165126
C34   C     C_2   0.987186 0.964704 0.509018 -0.163915
C35   C     C_1   0.881543 0.971698 0.507494 -0.001471
C36   C     C_1   0.118639 0.028743 0.493471 -0.001324
C37   C     C_R   0.492597 0.189941 0.797850 -0.125851
C38   C     C_R   0.470614 0.812092 0.201145 -0.143077
C39   C     C_R   0.513622 0.212049 0.977613 -0.234909
C40   C     C_R   0.358974 0.786549 0.036580 -0.234128
C41   C     C_R   0.509622 0.146976 0.874478 0.065537
C42   C     C_R   0.413303 0.850347 0.123283 0.075703
C43   C     C_R   0.458261 0.300976 0.827494 0.001118
C44   C     C_R   0.498894 0.703949 0.176301 0.012776
Cu1   Cu    Cu3+1 0.526370 0.916390 0.524860 0.922753
Cu2   Cu    Cu3+1 0.473630 0.083610 0.475140 0.911279
H1    H     H_    0.045091 0.900856 0.523792 0.154299
H2    H     H_    0.955144 0.099713 0.477466 0.153716
H3    H     H_    0.363391 0.614047 0.385577 0.134734
H4    H     H_    0.644648 0.379183 0.603082 0.129630
H5    H     H_    0.527885 0.346654 0.169724 0.148669
H6    H     H_    0.245882 0.660655 0.889920 0.138934
H7    H     H_    0.534871 0.179420 0.036423 0.133503
H8    H     H_    0.313373 0.814995 0.976831 0.138009
H9    H     H_    0.493044 0.532613 0.223328 0.148877
H10   H     H_    0.277531 0.476617 0.848758 0.168077
H11   H     H_    0.446361 0.728983 0.454242 0.131139
H12   H     H_    0.566699 0.260022 0.527297 0.126086
H13   H     H_    0.693104 0.841836 0.672494 0.125118
H14   H     H_    0.291931 0.173020 0.350316 0.130613
N1    N     N_R   0.433980 0.209250 0.437830 -0.185149
N2    N     N_R   0.566020 0.790750 0.562170 -0.173312
O1    O     O_R   0.534760 0.019630 0.662610 -0.581956
O2    O     O_R   0.465240 0.980370 0.337390 -0.574657
O3    O     O_R   0.490220 0.160840 0.620610 -0.592222
O4    O     O_R   0.509780 0.839160 0.379390 -0.580786
O5    O     O_R   0.663260 0.919400 0.523940 -0.576723
O6    O     O_R   0.336740 0.080600 0.476060 -0.594674
O7    O     O_R   0.618720 0.060610 0.481950 -0.578601
O8    O     O_R   0.381280 0.939390 0.518050 -0.577435
H15   H     H_    0.236278 0.324865 0.302629 0.139410
H16   H     H_    0.752635 0.685759 0.714245 0.137373
C45   C     C_3   0.606439 0.660151 0.224941 -0.360688
C46   C     C_3   0.675897 0.590023 0.144894 -0.355744
C47   C     C_3   0.784637 0.553682 0.195899 -0.854104
H17   H     H_    0.819832 0.620635 0.247569 0.253095
H18   H     H_    0.783087 0.509263 0.240701 0.257989
H19   H     H_    0.832840 0.503068 0.136365 0.241137
H20   H     H_    0.645309 0.520937 0.091235 0.233339
H21   H     H_    0.679559 0.633143 0.099612 0.217535
H22   H     H_    0.645919 0.723894 0.277419 0.202163
H23   H     H_    0.604160 0.621170 0.274074 0.195617
C48   C     C_3   0.448792 0.355736 0.754696 -0.351483
C49   C     C_3   0.345985 0.356591 0.677126 -0.309808
C50   C     C_3   0.311725 0.453142 0.650180 -0.863904
H24   H     H_    0.375962 0.465683 0.629132 0.266760
H25   H     H_    0.246906 0.444081 0.584405 0.245561
H26   H     H_    0.285667 0.522489 0.715520 0.248964
H27   H     H_    0.352607 0.290361 0.604362 0.263572
H28   H     H_    0.283839 0.349079 0.705572 0.192483
H29   H     H_    0.459771 0.435611 0.798897 0.200872
H30   H     H_    0.515833 0.324023 0.715093 0.187855
C51   C     C_3   0.421902 0.949696 0.120721 -0.375181
C52   C     C_3   0.318623 0.027297 0.121137 -0.329811
C53   C     C_3   0.329296 0.123562 0.112083 -0.859635
H31   H     H_    0.389612 0.158656 0.174064 0.264378
H32   H     H_    0.350455 0.103517 0.037093 0.251474
H33   H     H_    0.255024 0.180851 0.117611 0.239075
H34   H     H_    0.260378 0.992838 0.055731 0.208605
H35   H     H_    0.290265 0.048462 0.192550 0.218312
H36   H     H_    0.480932 0.985488 0.183692 0.213637
H37   H     H_    0.449988 0.930246 0.049246 0.181900
C54   C     C_3   0.520550 0.033364 0.852641 -0.374462
C55   C     C_3   0.417071 0.001057 0.801348 -0.313134
C56   C     C_3   0.424806 0.889619 0.786027 -0.833925
H38   H     H_    0.482758 0.836611 0.737339 0.269100
H39   H     H_    0.446772 0.880042 0.860951 0.238554
H40   H     H_    0.349196 0.868627 0.747808 0.238131
H41   H     H_    0.358423 0.051873 0.850374 0.203693
H42   H     H_    0.389638 0.009791 0.726120 0.236821
H43   H     H_    0.583097 0.983411 0.808933 0.209112
H44   H     H_    0.545301 0.018578 0.925202 0.175532
H45   H     H_    0.267711 0.483014 0.313070 0.142515
H46   H     H_    0.733440 0.516144 0.685383 0.137095

loop_
_geom_bond_atom_site_label_1
_geom_bond_atom_site_label_2
_ccdc_geom_bond_type
C7    C10   A    
C51   C52   S    
C27   C29   A    
C42   C51   S    
C43   C48   S    
C15   H14   S    
C23   O7    A    
C53   H31   S    
C4    C8    A    
C53   H33   S    
C24   O8    A    
C7    C8    A    
C39   C41   A    
C50   H24   S    
C25   C28   A    
C38   C44   A    
C48   H30   S    
C56   H39   S    
C3    C43   A    
C26   C27   A    
C16   N2    A    
C19   C21   A    
C5    C11   A    
C3    C7    A    
C6    C12   A    
C55   H41   S    
Cu1   N2    S    
C33   C36   S    
C54   H43   S    
C34   C35   S    
C45   C46   S    
C23   O5    A    
Cu2   O7    S    
C17   N1    A    
C28   H4    S    
C8    C9    A    
Cu1   O5    S    
C1    O3    A    
C9    H9    S    
C10   H10   S    
C18   C20   A    
C1    C37   S    
C17   H12   S    
C40   C42   A    
C46   H21   S    
C52   C53   S    
C49   H28   S    
C1    O1    A    
C45   H22   S    
C55   C56   S    
C12   H6    S    
C2    O2    A    
C50   H25   S    
C56   H40   S    
C46   C47   S    
Cu2   N1    S    
C32   C35   T    
C49   C50   S    
Cu2   O3    S    
C4    C6    A    
C51   H36   S    
C18   N2    A    
C13   H15   S    
C3    C5    A    
C25   C26   A    
Cu1   Cu2   S    
C21   C29   A    
Cu1   O1    S    
C41   C54   S    
Cu2   O2    S    
C54   H44   S    
C16   H13   S    
C37   C43   A    
C47   H17   S    
Cu2   O6    S    
C47   H18   S    
C2    C38   S    
C18   H11   S    
C48   C49   S    
C52   H35   S    
C33   C34   D    
C15   N1    A    
C13   C21   A    
C9    C11   A    
C10   C12   A    
C20   C22   A    
C40   H8    S    
C46   H20   S    
C13   C15   A    
C14   C16   A    
C49   H27   S    
C45   H23   S    
C54   C55   S    
C30   H46   S    
C50   H26   S    
C29   H45   S    
C22   C30   A    
Cu1   O8    S    
C14   H16   S    
C2    O4    A    
C51   H37   S    
C53   H32   S    
C38   C42   A    
C48   H29   S    
C56   H38   S    
C23   C32   S    
C14   C22   A    
C5    C39   A    
C24   C31   S    
C55   H42   S    
C39   H7    S    
C20   C26   A    
C52   H34   S    
C28   C30   A    
C17   C19   A    
C6    C40   A    
C37   C41   A    
C44   C45   S    
C19   C25   A    
C47   H19   S    
C11   H5    S    
C24   O6    A    
Cu1   O4    S    
C33   H2    S    
C31   C36   T    
C34   H1    S    
C27   H3    S    
C4    C44   A    
