data_mof_unit_56238.cif
_audit_creation_date              2012-10-26T20:03:41-0400
_audit_creation_method            fapswitch 2.2
_symmetry_space_group_name_H-M    P1
_symmetry_Int_Tables_number       1
_space_group_crystal_system       triclinic
_cell_length_a                    12.381531
_cell_length_b                    13.185825
_cell_length_c                    15.838187
_cell_angle_alpha                 77.386257
_cell_angle_beta                  100.718704
_cell_angle_gamma                 116.788506
_cell_volume                      2241.12128771

loop_
_atom_site_label
_atom_site_type_symbol
_atom_type_description
_atom_site_fract_x
_atom_site_fract_y
_atom_site_fract_z
_atom_type_partial_charge
C1    C     C_R   0.854983 0.286623 0.507158 0.521022
C2    C     C_R   0.228712 0.835121 0.469515 0.009549
C3    C     C_R   0.813963 0.083354 0.560834 -0.123448
C4    C     C_R   0.999214 0.499615 0.659782 0.540978
C5    C     C_R   0.734812 0.967801 0.576601 -0.133272
C6    C     C_R   0.612190 0.930838 0.546825 -0.118888
C7    C     C_R   0.566569 0.009089 0.497070 0.035142
C8    C     C_R   0.650553 0.124327 0.472072 0.026569
C9    C     C_R   0.440593 0.976499 0.470368 0.034064
C10   C     C_R   0.402148 0.055198 0.412271 0.049275
C11   C     C_R   0.487958 0.163114 0.379977 -0.130944
C12   C     C_3   0.997886 0.497520 0.917036 0.035517
C13   C     C_R   0.610344 0.196623 0.408318 -0.112436
C14   C     C_R   0.351238 0.868261 0.500429 -0.107632
C15   C     C_R   0.191784 0.914081 0.413417 -0.125588
C16   C     C_R   0.145081 0.713449 0.487329 0.559246
C17   C     C_R   0.772805 0.163253 0.510706 0.002884
C18   C     C_R   0.346461 0.331044 0.640879 -0.156125
C19   C     C_R   0.770419 0.657227 0.391997 0.055515
C20   C     C_R   0.692429 0.709003 0.383591 -0.151448
C21   C     C_R   0.592758 0.657509 0.431741 -0.086583
C22   C     C_R   0.563375 0.548345 0.483230 0.014565
C23   C     C_3   0.106621 0.577343 0.029260 -0.085072
C24   C     C_R   0.654711 0.507146 0.498524 0.173249
C25   C     C_R   0.453323 0.483725 0.526018 0.002952
C26   C     C_R   0.448545 0.392428 0.594188 0.004233
C27   C     C_R   0.545073 0.361531 0.614711 -0.163416
C28   C     C_R   0.000589 0.500112 0.340237 0.565812
C29   C     C_R   0.644637 0.415950 0.566761 -0.091351
C30   C     C_R   0.344797 0.500129 0.501771 0.364383
C31   C     C_R   0.246792 0.356825 0.618405 0.014212
C32   C     C_3   0.982859 0.394318 0.043881 0.030449
C33   C     C_3   0.891026 0.417308 0.971157 -0.158583
C34   C     C_3   0.999794 0.497232 0.083569 0.028098
C35   C     C_1   0.997844 0.499061 0.749422 -0.004128
C36   C     C_1   0.001133 0.499350 0.250732 0.032990
C37   C     C_3   0.089493 0.473121 0.988724 -0.154004
C38   C     C_2   0.964701 0.277037 0.090828 0.235786
C39   C     C_3   0.014798 0.600334 0.956600 0.277240
C40   C     C_3   0.908172 0.521539 0.011709 -0.095162
C41   C     C_1   0.997454 0.498356 0.825107 -0.005344
C42   C     C_1   0.000844 0.498500 0.175237 0.019867
C43   C     C_R   0.278168 0.024018 0.385407 -0.118650
Cl1   Cl    Cl    0.326480 0.585423 0.402603 -0.603476
Cl2   Cl    Cl    0.036052 0.738115 0.897189 -0.596330
Cu1   Cu    Cu3+1 0.098270 0.475420 0.519690 1.022482
Cu2   Cu    Cu3+1 0.901730 0.524580 0.480310 0.931396
H1    H     H_    0.803010 0.351281 0.946530 0.117739
H2    H     H_    0.850413 0.699506 0.357048 0.132400
H3    H     H_    0.545438 0.708665 0.432191 0.173626
H4    H     H_    0.712101 0.791428 0.342732 0.123230
H5    H     H_    0.713949 0.386531 0.587777 0.181403
H6    H     H_    0.834506 0.542359 0.021839 0.136274
H7    H     H_    0.194613 0.643563 0.053695 0.146874
H8    H     H_    0.163242 0.452513 0.978424 0.121439
H9    H     H_    0.097205 0.889506 0.388595 0.128468
H10   H     H_    0.460398 0.222145 0.332550 0.122686
H11   H     H_    0.248428 0.083698 0.340860 0.128584
H12   H     H_    0.374470 0.807010 0.547618 0.126508
H13   H     H_    0.953818 0.211724 0.054409 0.103046
H14   H     H_    0.907245 0.110502 0.589690 0.136833
H15   H     H_    0.556299 0.839997 0.562083 0.110323
H16   H     H_    0.767980 0.906774 0.614573 0.138923
H17   H     H_    0.672814 0.278827 0.377445 0.158584
H18   H     H_    0.168340 0.310259 0.654870 0.128261
H19   H     H_    0.542457 0.292448 0.667278 0.119517
H20   H     H_    0.343520 0.262858 0.694280 0.116706
N1    N     N_R   0.246280 0.438200 0.549540 -0.219824
N2    N     N_R   0.754330 0.561180 0.450980 -0.239761
O1    O     O_R   0.972510 0.318130 0.524770 -0.504986
O2    O     O_R   0.806530 0.359650 0.491510 -0.536759
O3    O     O_R   0.082970 0.479240 0.637550 -0.507679
O4    O     O_R   0.916990 0.520750 0.604290 -0.506513
O5    O     O_R   0.193470 0.640350 0.508490 -0.461187
O6    O     O_R   0.027490 0.681870 0.475230 -0.512290
O7    O     O_R   0.083010 0.479250 0.395710 -0.412623
O8    O     O_R   0.917030 0.520760 0.362450 -0.522679
O9    O     O_2   0.962020 0.254247 0.169540 -0.492721

loop_
_geom_bond_atom_site_label_1
_geom_bond_atom_site_label_2
_ccdc_geom_bond_type
C8    C13   A    
C27   C29   A    
C16   O6    A    
C36   C42   T    
C19   C20   A    
C34   C42   S    
C4    O3    A    
Cu1   O7    S    
C7    C8    A    
C14   H12   S    
C26   C27   A    
C1    O2    A    
C16   O5    A    
C20   H4    S    
C5    C6    A    
C5    H16   S    
C31   H18   S    
C12   C37   S    
C24   C29   A    
Cu2   N2    S    
C43   H11   S    
C22   C25   A    
C18   C26   A    
C32   C38   S    
C2    C16   S    
C9    C10   A    
Cu1   O3    S    
C39   Cl2   S    
C4    C35   S    
C21   C22   A    
C30   Cl1   S    
C2    C14   A    
C21   H3    S    
C24   N2    A    
C3    H14   S    
C31   N1    A    
C33   C40   S    
Cu2   O4    S    
C39   C40   S    
C38   O9    D    
C18   H20   S    
C23   C37   S    
C32   C34   S    
C9    C14   A    
Cu1   N1    S    
C12   C41   S    
C28   O8    A    
C19   H2    S    
C23   C34   S    
C32   C37   S    
C2    C15   A    
Cu2   O2    S    
C4    O4    A    
C38   H13   S    
C22   C24   A    
C19   N2    A    
Cu2   O8    S    
C28   O7    A    
Cu1   O5    S    
C23   H7    S    
C25   C30   A    
C7    C9    A    
Cu1   Cu2   S    
C10   C43   A    
C1    O1    A    
C3    C5    A    
C6    C7    A    
C1    C17   S    
C8    C17   A    
C15   H9    S    
C6    H15   S    
C12   C39   S    
C25   C26   A    
C15   C43   A    
C27   H19   S    
C32   C33   S    
C11   C13   A    
C13   H17   S    
C23   C39   S    
C3    C17   A    
C35   C41   T    
Cu1   O1    S    
C10   C11   A    
Cu2   O6    S    
C37   H8    S    
C20   C21   A    
C28   C36   S    
C40   H6    S    
C33   H1    S    
C34   C40   S    
C18   C31   A    
C12   C33   S    
C11   H10   S    
C30   N1    A    
C29   H5    S    
