data_mof_unit_9146.cif
_audit_creation_date              2012-10-26T19:42:40-0400
_audit_creation_method            fapswitch 2.2
_symmetry_space_group_name_H-M    P1
_symmetry_Int_Tables_number       1
_space_group_crystal_system       triclinic
_cell_length_a                    19.379867
_cell_length_b                    10.865762
_cell_length_c                    9.565521
_cell_angle_alpha                 90.524435
_cell_angle_beta                  90.192832
_cell_angle_gamma                 92.520809
_cell_volume                      2012.23112998

loop_
_atom_site_label
_atom_site_type_symbol
_atom_type_description
_atom_site_fract_x
_atom_site_fract_y
_atom_site_fract_z
_atom_type_partial_charge
C1    C     C_R   0.505669 0.263145 0.500144 0.549929
C2    C     C_R   0.854334 0.516085 0.489043 -0.009371
C3    C     C_R   0.549485 0.124538 0.752166 -0.088416
C4    C     C_R   0.367531 0.500258 0.499761 0.551367
C5    C     C_R   0.543731 0.067472 0.881600 -0.127360
C6    C     C_R   0.510091 0.952520 0.891280 -0.131874
C7    C     C_R   0.488659 0.889426 0.770090 -0.103211
C8    C     C_R   0.501276 0.940476 0.635894 0.025440
C9    C     C_R   0.521655 0.066360 0.629854 0.024651
C10   C     C_R   0.512321 0.129520 0.502385 -0.006280
C11   C     C_R   0.499916 0.062731 0.378476 -0.159076
C12   C     C_R   0.291729 0.503155 0.498695 0.013475
C13   C     C_R   0.494188 0.935579 0.380468 -0.161652
C14   C     C_R   0.494528 0.872594 0.507620 -0.005650
C15   C     C_R   0.592806 0.662582 0.146388 -0.102550
C16   C     C_R   0.496603 0.737774 0.501754 0.533111
C17   C     C_R   0.638770 0.740490 0.074916 -0.193202
C18   C     C_R   0.638750 0.740260 0.930954 -0.137176
C19   C     C_R   0.592726 0.662195 0.857662 -0.028151
C20   C     C_R   0.545568 0.579874 0.926142 0.158006
C21   C     C_R   0.545572 0.579932 0.075934 0.156251
C22   C     C_R   0.456874 0.423660 0.072912 -0.010208
C23   C     C_R   0.930896 0.517828 0.490070 0.365693
C24   C     C_R   0.456898 0.423680 0.924793 -0.010938
C25   C     C_R   0.632565 0.500931 0.500100 0.556871
C26   C     C_R   0.254712 0.502200 0.624591 -0.134346
C27   C     C_R   0.182937 0.506473 0.623181 -0.117559
C28   C     C_R   0.146893 0.511940 0.495841 0.036692
C29   C     C_R   0.184028 0.512858 0.370008 -0.118771
C30   C     C_R   0.255728 0.508394 0.371422 -0.133388
C31   C     C_3   0.822527 0.607553 0.142704 0.014209
C32   C     C_3   0.876170 0.639710 0.030686 -0.233158
C33   C     C_3   0.848799 0.731005 0.925891 -0.483221
C34   C     C_R   0.070970 0.515556 0.494039 0.337558
C35   C     C_R   0.819199 0.509849 0.617470 -0.138798
C36   C     C_R   0.747434 0.505251 0.622762 0.340134
C37   C     C_R   0.708688 0.505377 0.498607 -0.020720
C38   C     C_R   0.743216 0.510793 0.369995 -0.191971
C39   C     C_R   0.815789 0.519720 0.363130 0.252516
Cu1   Cu    Cu3+1 0.500000 0.499990 0.640660 0.940409
Cu2   Cu    Cu3+1 0.500000 0.500010 0.359340 0.919779
F1    F     F_    0.716452 0.498704 0.749700 -0.644374
H1    H     H_    0.281126 0.498273 0.724311 0.126846
H2    H     H_    0.674244 0.801862 0.875311 0.127449
H3    H     H_    0.596254 0.671350 0.747646 0.190870
H4    H     H_    0.155806 0.505588 0.721961 0.137813
H5    H     H_    0.421640 0.361132 0.868358 0.121507
H6    H     H_    0.157799 0.516792 0.270125 0.137556
H7    H     H_    0.282892 0.509392 0.272640 0.128860
H8    H     H_    0.847293 0.507726 0.715346 0.159706
H9    H     H_    0.713469 0.506648 0.274161 0.142678
H10   H     H_    0.494384 0.108709 0.279285 0.135540
H11   H     H_    0.809465 0.694228 0.198311 0.119137
H12   H     H_    0.576943 0.213219 0.749147 0.166577
H13   H     H_    0.775730 0.566619 0.089475 0.169144
H14   H     H_    0.923686 0.680614 0.081171 0.189357
H15   H     H_    0.889830 0.554367 0.974143 0.195647
H16   H     H_    0.801209 0.692011 0.874188 0.189885
H17   H     H_    0.888381 0.750717 0.844506 0.162484
H18   H     H_    0.836987 0.818687 0.979486 0.149665
H19   H     H_    0.563476 0.114156 0.974880 0.121819
H20   H     H_    0.501769 0.910908 0.992613 0.114390
H21   H     H_    0.459928 0.803452 0.785256 0.151150
H22   H     H_    0.488084 0.886641 0.281692 0.136189
H23   H     H_    0.421583 0.361147 0.127535 0.115156
H24   H     H_    0.596888 0.671696 0.256573 0.184126
H25   H     H_    0.674466 0.801982 0.131982 0.115737
N1    N     N_R   0.036146 0.524056 0.371476 -0.236819
N2    N     N_R   0.967574 0.525211 0.369638 -0.146121
N3    N     N_R   0.965917 0.510085 0.612684 -0.253310
N4    N     N_R   0.034490 0.508997 0.614701 -0.232563
N5    N     N_R   0.500660 0.501210 0.147910 -0.242065
N6    N     N_R   0.500680 0.501290 0.852040 -0.251189
O1    O     O_R   0.499990 0.319640 0.618810 -0.510034
O2    O     O_R   0.500000 0.319660 0.381240 -0.501377
O3    O     O_R   0.400140 0.499970 0.618820 -0.506497
O4    O     O_R   0.400150 0.500000 0.381250 -0.501948
O5    O     O_R   0.500000 0.680340 0.618760 -0.545527
O6    O     O_R   0.500010 0.680360 0.381190 -0.523913
O7    O     O_R   0.599850 0.500000 0.618750 -0.451645
O8    O     O_R   0.599860 0.500030 0.381180 -0.536347
O9    O     O_3   0.849792 0.520841 0.235154 -0.534598

loop_
_geom_bond_atom_site_label_1
_geom_bond_atom_site_label_2
_ccdc_geom_bond_type
C2    C35   A    
C33   H16   S    
C25   O7    A    
C23   N2    A    
C36   F1    S    
C35   C36   A    
C7    C8    A    
C26   C27   A    
C29   C30   A    
C31   O9    S    
C1    O1    A    
C22   C24   A    
C28   C29   A    
Cu2   O4    S    
C5    C6    A    
C3    H12   S    
C24   N6    A    
Cu1   N6    S    
C18   C19   A    
C11   H10   S    
C25   C37   S    
C2    C39   A    
C19   C20   A    
C8    C9    A    
Cu1   O7    S    
N3    N4    A    
C4    C12   S    
C9    C10   A    
C16   O5    A    
C28   C34   S    
C33   H17   S    
C13   C14   A    
C25   O8    A    
C23   N3    A    
C32   H15   S    
C22   N5    A    
C26   H1    S    
C17   H25   S    
C29   H6    S    
C1    O2    A    
C34   N1    A    
N1    N2    A    
C38   H9    S    
C21   N5    A    
C15   H24   S    
Cu1   O3    S    
C12   C26   A    
C22   H23   S    
C37   C38   A    
C3    C9    A    
C18   H2    S    
Cu2   O2    S    
C31   C32   S    
Cu2   O8    S    
C35   H8    S    
C17   C18   A    
C5    H19   S    
C31   H11   S    
C7    H21   S    
Cu2   N5    S    
C27   H4    S    
Cu1   Cu2   S    
C30   H7    S    
C33   H18   S    
C14   C16   S    
C2    C23   S    
C15   C17   A    
C36   C37   A    
C8    C14   A    
C12   C30   A    
C24   H5    S    
C1    C10   S    
C39   O9    S    
C3    C5    A    
Cu2   O6    S    
C19   H3    S    
C6    C7    A    
C16   O6    A    
C32   C33   S    
C6    H20   S    
C4    O4    A    
C11   C13   A    
C38   C39   A    
C13   H22   S    
Cu1   O1    S    
C20   N6    A    
Cu1   O5    S    
C4    O3    A    
C10   C11   A    
C15   C21   A    
C20   C21   A    
C27   C28   A    
C31   H13   S    
C34   N4    A    
C32   H14   S    
