data_mof_unit_57155.cif
_audit_creation_date              2012-12-11T14:06:33-0500
_audit_creation_method            fapswitch 2.2
_symmetry_space_group_name_H-M    P1
_symmetry_Int_Tables_number       1
_space_group_crystal_system       triclinic
_cell_length_a                    6.928641
_cell_length_b                    17.262105
_cell_length_c                    24.10301
_cell_angle_alpha                 104.725121
_cell_angle_beta                  90.310994
_cell_angle_gamma                 90.003471
_cell_volume                      2788.0652003

loop_
_atom_site_label
_atom_site_type_symbol
_atom_type_description
_atom_site_fract_x
_atom_site_fract_y
_atom_site_fract_z
_atom_type_partial_charge
O1    O     O_R   0.494290 0.391990 0.999150 -0.534794
O2    O     O_R   0.827170 0.534410 0.082350 -0.523861
O3    O     O_R   0.994360 0.608010 0.000850 -0.544044
C1    C     C_R   0.658641 0.550917 0.105932 0.769655
O4    O     O_R   0.824210 0.388010 0.004470 -0.545163
O5    O     O_R   0.991370 0.460560 0.922410 -0.547705
C2    C     C_R   0.654529 0.354917 0.001536 0.769627
O6    O     O_R   0.497270 0.539440 0.077590 -0.520613
O7    O     O_3   0.659770 0.523970 0.973170 -0.379703
V1    V     V_3+5 0.935840 0.495550 0.004980 1.431281
O8    O     O_R   0.320910 0.465590 0.917650 -0.518309
C3    C     C_R   0.151775 0.449581 0.893936 0.712722
O9    O     O_R   0.323870 0.611990 0.995530 -0.547460
C4    C     C_R   0.154503 0.645226 0.998770 0.773177
V2    V     V_3+5 0.435470 0.504450 0.995020 1.443656
O10   O     O_3   0.161670 0.476030 0.026830 -0.361463
C5    C     C_2   0.142906 0.730407 0.998274 -0.372758
H1    H     H_    0.276474 0.760572 0.992854 0.145581
C6    C     C_2   0.973649 0.770584 0.004170 -0.328541
H2    H     H_    0.840144 0.740493 0.009777 0.144830
C7    C     C_R   0.027900 0.252955 0.626667 0.577420
N1    N     N_R   0.086967 0.330650 0.648401 -0.555572
C8    C     C_R   0.129803 0.378823 0.612810 0.581483
C9    C     C_R   0.114941 0.349121 0.552775 -0.028483
C10   C     C_R   0.055082 0.269313 0.529814 -0.016712
C11   C     C_R   0.010580 0.220722 0.566960 -0.028800
C12   C     C_R   0.159089 0.397005 0.515245 -0.145586
C13   C     C_R   0.144513 0.366029 0.455819 -0.141569
C14   C     C_R   0.085312 0.286395 0.432410 -0.026121
C15   C     C_R   0.040218 0.237944 0.469572 -0.017105
C16   C     C_R   0.980735 0.158129 0.446633 -0.031330
C17   C     C_R   0.935666 0.110362 0.484165 -0.147271
C18   C     C_R   0.950517 0.141240 0.543571 -0.139365
C19   C     C_R   0.071175 0.253707 0.372660 0.554372
N2    N     N_R   0.014304 0.175622 0.350798 -0.547089
C20   C     C_R   0.968205 0.128031 0.386618 0.604740
O11   O     O_2   0.986043 0.207011 0.662700 -0.516295
O12   O     O_2   0.187390 0.455042 0.635375 -0.512815
H3    H     H_    0.205507 0.458539 0.531640 0.158649
H4    H     H_    0.180184 0.404697 0.428306 0.173456
O13   O     O_2   0.116394 0.299372 0.336716 -0.522152
O14   O     O_2   0.909878 0.051850 0.364311 -0.521214
H5    H     H_    0.889256 0.048862 0.467773 0.155755
H6    H     H_    0.915106 0.102548 0.571086 0.174119
C21   C     C_R   0.129224 0.081778 0.260632 0.333695
C22   C     C_R   0.115412 0.051750 0.200707 -0.268469
H7    H     H_    0.213390 0.005053 0.178947 0.126741
C23   C     C_R   0.975321 0.081028 0.168966 -0.071658
C24   C     C_R   0.848850 0.141204 0.197748 -0.220110
H8    H     H_    0.740122 0.164879 0.174089 0.134343
C25   C     C_R   0.864687 0.172793 0.257132 -0.177545
H9    H     H_    0.766843 0.219730 0.278478 0.149353
C26   C     C_R   0.003248 0.143259 0.289227 0.354215
C27   C     C_R   0.955291 0.404684 0.741692 -0.102498
H10   H     H_    0.824209 0.415957 0.720370 0.133045
C28   C     C_R   0.971933 0.432844 0.801313 -0.273041
H11   H     H_    0.852960 0.466395 0.824783 0.155271
C29   C     C_R   0.140010 0.418570 0.830355 -0.080691
C30   C     C_R   0.292826 0.374555 0.797875 0.249553
C31   C     C_R   0.274691 0.347329 0.737838 -0.163014
H12   H     H_    0.390633 0.313383 0.713008 0.128047
C32   C     C_R   0.106282 0.361719 0.709666 0.360181
C33   C     C_R   0.583235 0.881888 0.615635 0.578597
N3    N     N_R   0.494023 0.836828 0.647508 -0.555091
C34   C     C_R   0.420346 0.762424 0.621632 0.578625
C35   C     C_R   0.438966 0.729945 0.562025 -0.026331
C36   C     C_R   0.532386 0.775089 0.528965 -0.015346
C37   C     C_R   0.603839 0.852008 0.555748 -0.024044
C38   C     C_R   0.368129 0.653216 0.534859 -0.138223
C39   C     C_R   0.391076 0.621545 0.475815 -0.149905
C40   C     C_R   0.484923 0.665893 0.442366 -0.028535
C41   C     C_R   0.555144 0.743070 0.469031 -0.015869
C42   C     C_R   0.648442 0.788212 0.435914 -0.031070
C43   C     C_R   0.718302 0.865102 0.463044 -0.140016
C44   C     C_R   0.696449 0.896570 0.522189 -0.147579
C45   C     C_R   0.509761 0.635177 0.382768 0.582864
N4    N     N_R   0.600428 0.679888 0.350980 -0.543914
C46   C     C_R   0.669302 0.755183 0.376389 0.587728
O15   O     O_2   0.654882 0.954750 0.641813 -0.519505
O16   O     O_2   0.329236 0.719816 0.653475 -0.515309
H13   H     H_    0.295551 0.617142 0.559181 0.175731
H14   H     H_    0.335145 0.562150 0.456514 0.158879
O17   O     O_2   0.442219 0.561519 0.356764 -0.521768
O18   O     O_2   0.758211 0.797923 0.344240 -0.514616
H15   H     H_    0.790621 0.901145 0.438664 0.175587
H16   H     H_    0.752924 0.955843 0.541527 0.157473
C47   C     C_R   0.500072 0.677092 0.252280 -0.170047
H17   H     H_    0.397245 0.724097 0.269837 0.142209
C48   C     C_R   0.514459 0.646860 0.192537 0.202165
C49   C     C_R   0.647858 0.584791 0.169286 -0.120520
C50   C     C_R   0.768001 0.555583 0.207293 0.191146
C51   C     C_R   0.752884 0.587973 0.266979 -0.161468
H18   H     H_    0.844216 0.565408 0.295958 0.147863
C52   C     C_R   0.618480 0.648171 0.289663 0.312680
C53   C     C_R   0.584830 0.824488 0.743934 -0.118108
H19   H     H_    0.665437 0.771173 0.723415 0.142368
C54   C     C_R   0.573831 0.848834 0.804168 -0.041144
C55   C     C_R   0.465190 0.917879 0.830721 -0.092435
C56   C     C_R   0.366410 0.959035 0.795750 -0.219857
H20   H     H_    0.282155 0.011784 0.815015 0.133919
C57   C     C_R   0.376988 0.933340 0.735746 -0.076547
H21   H     H_    0.298851 0.965709 0.709751 0.147098
C58   C     C_R   0.486477 0.865788 0.709390 0.348214
C59   C     C_2   0.642830 0.269761 0.002040 -0.359587
H22   H     H_    0.777199 0.238949 0.005711 0.151648
C60   C     C_2   0.472701 0.230236 0.997831 -0.352274
H23   H     H_    0.338359 0.261055 0.994128 0.148332
O19   O     O_R   0.618210 0.960470 0.922400 -0.530953
O20   O     O_R   0.291310 0.111960 0.995450 -0.547225
O21   O     O_R   0.124210 0.039530 0.077580 -0.538322
C61   C     C_R   0.460990 0.145074 0.998375 0.774578
O22   O     O_R   0.288310 0.965490 0.917650 -0.541047
O23   O     O_R   0.121180 0.892010 0.999220 -0.538956
C62   C     C_R   0.456545 0.948810 0.894135 0.706477
O24   O     O_R   0.621230 0.107990 0.000760 -0.535673
O25   O     O_3   0.455770 0.976060 0.026840 -0.372881
V3    V     V_3+5 0.179680 0.004440 0.995020 1.408199
O26   O     O_R   0.791670 0.888040 0.004570 -0.544198
C63   C     C_R   0.961311 0.855142 0.002204 0.785625
O27   O     O_R   0.794680 0.034510 0.082370 -0.542683
C64   C     C_R   0.963948 0.050077 0.105883 0.711644
V4    V     V_3+5 0.680070 0.995560 0.005010 1.417999
O28   O     O_3   0.953840 0.023940 0.973160 -0.369181
N5    N     N_2   0.463415 0.355922 0.825011 -0.510046
H24   H     H_    0.585209 0.352121 0.800042 0.257099
C65   C     C_3   0.444755 0.287462 0.848954 -0.488552
H25   H     H_    0.580847 0.279359 0.871347 0.186766
H26   H     H_    0.416590 0.232343 0.814283 0.195083
H27   H     H_    0.325510 0.296530 0.880558 0.182009
N6    N     N_2   0.395657 0.680180 0.156090 -0.499269
H28   H     H_    0.263622 0.700173 0.173636 0.257912
C66   C     C_3   0.491607 0.739239 0.132722 -0.522859
H29   H     H_    0.535996 0.791562 0.167856 0.196664
H30   H     H_    0.391305 0.760186 0.103558 0.187302
H31   H     H_    0.620608 0.713089 0.107711 0.181196
N7    N     N_2   0.902660 0.492926 0.185971 -0.499583
H32   H     H_    0.025053 0.496328 0.211068 0.269940
C67   C     C_3   0.819204 0.413413 0.171771 -0.487754
H33   H     H_    0.762766 0.398955 0.211055 0.204714
H34   H     H_    0.931510 0.368850 0.152669 0.190158
H35   H     H_    0.700336 0.408714 0.139986 0.173563
C68   C     C_R   0.659616 0.795129 0.836763 0.100262
C69   C     C_R   0.541349 0.759246 0.870430 -0.116755
C70   C     C_R   0.613820 0.698038 0.893016 -0.131818
C71   C     C_R   0.804371 0.672351 0.882318 -0.094652
C72   C     C_R   0.924916 0.709522 0.850583 -0.116911
C73   C     C_R   0.852965 0.770517 0.827683 -0.118313
H36   H     H_    0.391056 0.776151 0.877103 0.089558
H37   H     H_    0.521139 0.669333 0.917782 0.121060
H38   H     H_    0.858929 0.623879 0.898841 0.122840
H39   H     H_    0.072999 0.689985 0.842800 0.119151
H40   H     H_    0.946176 0.797003 0.801547 0.125163
N8    N     N_2   0.267745 0.049170 0.292091 -0.493274
H41   H     H_    0.296649 0.989382 0.274346 0.267677
C74   C     C_3   0.442385 0.095982 0.305808 -0.511042
H42   H     H_    0.537160 0.068919 0.333018 0.238566
H43   H     H_    0.409381 0.158365 0.329865 0.207865
H44   H     H_    0.519924 0.096472 0.265739 0.192812

loop_
_geom_bond_atom_site_label_1
_geom_bond_atom_site_label_2
_ccdc_geom_bond_type
N3    C58   S    
C47   H17   S    
C57   H21   S    
C74   H43   S    
C42   C43   A    
C27   H10   S    
C20   O14   S    
C53   H19   S    
C9    C12   A    
C1    O6    A    
O22   C62   A    
C71   C72   A    
O20   V3    S    
C33   O15   S    
N4    C46   A    
O25   V3    S    
C37   C44   A    
C65   H25   S    
O25   V4    S    
C13   C14   A    
C36   C41   A    
O20   C61   A    
O21   C64   A    
O5    C3    A    
C15   C16   A    
C55   C62   S    
C35   C38   A    
N2    C26   S    
C60   H23   S    
C13   H4    S    
V2    O10   S    
C55   C56   A    
C47   C52   A    
N4    C52   S    
C30   N5    S    
C28   H11   S    
O21   V3    S    
C31   C32   A    
C19   N2    A    
O26   V4    S    
O19   C62   A    
O26   C63   A    
C44   H16   S    
O23   C63   A    
O8    V2    S    
C50   N7    S    
N2    C20   A    
C12   H3    S    
C66   H29   S    
C24   C25   A    
C8    C9    A    
C39   C40   A    
O1    V2    S    
N8    C74   S    
C14   C15   A    
O7    V1    S    
C71   H38   S    
C3    C29   S    
C35   C36   A    
C21   C26   A    
C30   C31   A    
C57   C58   A    
O24   V4    S    
O1    C2    A    
O9    C4    A    
C74   H44   S    
C4    C5    S    
C19   O13   S    
C45   O17   S    
C59   C60   D    
C59   H22   S    
C7    C11   A    
C53   C58   A    
C54   C55   A    
C1    C49   S    
C60   C61   S    
N1    C8    A    
C69   H36   S    
C22   C23   A    
C43   C44   A    
C36   C37   A    
C45   N4    A    
N7    C67   S    
C48   C49   A    
C23   C64   S    
O4    C2    A    
C41   C42   A    
C27   C32   A    
C65   H27   S    
C10   C11   A    
C21   C22   A    
C14   C19   A    
C48   N6    S    
C25   H9    S    
C31   H12   S    
C25   C26   A    
N6    C66   S    
C70   H37   S    
N1    C32   S    
C72   H39   S    
C11   C18   A    
C16   C17   A    
C42   C46   A    
C51   C52   A    
C5    H1    S    
C22   H7    S    
C9    C10   A    
O3    C4    A    
C67   H34   S    
O23   V3    S    
C23   C24   A    
C56   C57   A    
C34   C35   A    
O6    V2    S    
C2    C59   S    
C47   C48   A    
C29   C30   A    
C21   N8    S    
O2    V1    S    
C40   C45   A    
C50   C51   A    
O27   C64   A    
O27   V4    S    
N5    C65   S    
C72   C73   A    
C10   C15   A    
C33   C37   A    
C65   H26   S    
C68   C69   A    
C18   H6    S    
C68   C73   A    
O19   V4    S    
C70   C71   A    
C67   H35   S    
O5    V1    S    
O8    C3    A    
C53   C54   A    
C27   C28   A    
V4    O28   S    
C8    O12   S    
C56   H20   S    
C17   C18   A    
C6    H2    S    
O9    V2    S    
C73   H40   S    
V3    O28   S    
O4    V1    S    
O3    V1    S    
V1    O10   S    
N3    C34   A    
C49   C50   A    
O22   V3    S    
C66   H31   S    
O2    C1    A    
C51   H18   S    
C5    C6    D    
C17   H5    S    
C28   C29   A    
N6    H28   S    
C43   H15   S    
O7    V2    S    
C38   C39   A    
C39   H14   S    
C54   C68   S    
C38   H13   S    
C67   H33   S    
C6    C63   S    
C33   N3    A    
C46   O18   S    
C40   C41   A    
C7    O11   S    
C66   H30   S    
C24   H8    S    
C74   H42   S    
C34   O16   S    
C16   C20   A    
N7    H32   S    
C61   O24   A    
N8    H41   S    
C7    N1    A    
C69   C70   A    
N5    H24   S    
C12   C13   A    
