data_mof_unit_35943.cif
_audit_creation_date              2012-12-11T14:08:06-0500
_audit_creation_method            fapswitch 2.2
_symmetry_space_group_name_H-M    P1
_symmetry_Int_Tables_number       1
_space_group_crystal_system       triclinic
_cell_length_a                    10.938036
_cell_length_b                    10.880436
_cell_length_c                    18.648291
_cell_angle_alpha                 89.861401
_cell_angle_beta                  89.754916
_cell_angle_gamma                 60.249469
_cell_volume                      1926.80415536

loop_
_atom_site_label
_atom_site_type_symbol
_atom_type_description
_atom_site_fract_x
_atom_site_fract_y
_atom_site_fract_z
_atom_type_partial_charge
C1    C     C_R   0.235968 0.645541 0.608812 0.555510
C2    C     C_3   0.720182 0.517320 0.799294 -0.032966
C3    C     C_3   0.697413 0.668170 0.814487 0.059814
C4    C     C_3   0.665167 0.643549 0.678714 0.038159
C5    C     C_3   0.793130 0.664721 0.689878 -0.244191
C6    C     C_3   0.685463 0.510248 0.720487 -0.196161
C7    C     C_2   0.676476 0.150066 0.669395 -0.131268
C8    C     C_2   0.692275 0.162316 0.826251 -0.099587
C9    C     C_2   0.804123 0.107580 0.781810 -0.141921
C10   C     C_2   0.786877 0.141081 0.704890 -0.173440
C11   C     C_2   0.181016 0.662022 0.681553 -0.125225
C12   C     C_R   0.651398 0.619793 0.602843 0.545765
C13   C     C_2   0.195694 0.662102 0.839532 -0.125358
C14   C     C_2   0.194250 0.559436 0.800540 -0.177094
C15   C     C_2   0.222508 0.547198 0.723351 -0.173762
C16   C     C_2   0.681575 0.696684 0.338120 0.002706
C17   C     C_2   0.706442 0.711511 0.179522 -0.112240
C18   C     C_2   0.815260 0.650447 0.224775 -0.190960
C19   C     C_2   0.795641 0.614343 0.297696 -0.190741
C20   C     C_2   0.600172 0.266574 0.312802 -0.101916
C21   C     C_2   0.629673 0.212139 0.160741 -0.102707
C22   C     C_2   0.510133 0.247956 0.196341 -0.154309
C23   C     C_R   0.628590 0.226058 0.601548 0.558303
C24   C     C_2   0.490382 0.295667 0.270600 -0.159066
C25   C     C_2   0.252680 0.630885 0.319172 -0.105400
C26   C     C_2   0.197822 0.638128 0.168886 -0.108317
C27   C     C_2   0.266460 0.699545 0.197247 -0.136585
C28   C     C_2   0.316792 0.670611 0.270880 -0.161314
C29   C     C_R   0.703710 0.101680 0.897223 0.550619
C30   C     C_R   0.720696 0.685193 0.889982 0.560114
C31   C     C_R   0.119744 0.705976 0.907512 0.546405
C32   C     C_R   0.672239 0.114825 0.101168 0.549700
C33   C     C_R   0.733992 0.719303 0.104547 0.577990
C34   C     C_R   0.291586 0.619235 0.392933 0.543725
C35   C     C_R   0.102110 0.704126 0.109873 0.544509
C36   C     C_R   0.646462 0.629296 0.396883 0.555582
C37   C     C_R   0.579111 0.297022 0.388216 0.546942
C38   C     C_3   0.545856 0.780975 0.790852 -0.263915
C39   C     C_3   0.530928 0.773443 0.709471 -0.244280
C40   C     C_3   0.803704 0.692863 0.769460 -0.213302
Cr1   Cr    Cr6+3 0.393010 0.398050 0.501480 1.037873
Cr2   Cr    Cr6+3 0.398820 0.707980 0.501630 1.061462
Cr3   Cr    Cr6+3 0.708140 0.393940 0.496850 1.023762
Cr4   Cr    Cr6+3 0.937950 0.938450 0.008940 1.043032
Cr5   Cr    Cr6+3 0.626180 0.937030 0.994750 1.023380
Cr6   Cr    Cr6+3 0.937790 0.625760 0.001410 1.040411
H1    H     H_    0.522627 0.890089 0.804403 0.157033
H2    H     H_    0.770548 0.412028 0.696051 0.175895
H3    H     H_    0.913492 0.623219 0.787633 0.167161
H4    H     H_    0.891560 0.568503 0.672528 0.159970
H5    H     H_    0.909330 0.035841 0.801613 0.169095
H6    H     H_    0.861969 0.164019 0.678513 0.167082
H7    H     H_    0.587464 0.234416 0.806023 0.103808
H8    H     H_    0.607629 0.118039 0.695578 0.108023
H9    H     H_    0.164171 0.487067 0.824361 0.179192
H10   H     H_    0.278102 0.441200 0.700835 0.164936
H11   H     H_    0.232723 0.729368 0.816095 0.106360
H12   H     H_    0.466903 0.761956 0.819119 0.115217
H13   H     H_    0.123377 0.768024 0.703976 0.107155
H14   H     H_    0.922483 0.606375 0.204964 0.149149
H15   H     H_    0.869716 0.506506 0.313787 0.164596
H16   H     H_    0.598616 0.749445 0.196876 0.109347
H17   H     H_    0.431469 0.225389 0.174454 0.161583
H18   H     H_    0.385220 0.340168 0.293222 0.147841
H19   H     H_    0.705178 0.241652 0.179696 0.109797
H20   H     H_    0.707592 0.216449 0.293062 0.115353
H21   H     H_    0.271148 0.785236 0.169696 0.162707
H22   H     H_    0.435324 0.765022 0.698587 0.149656
H23   H     H_    0.396001 0.697290 0.287382 0.147591
H24   H     H_    0.203078 0.544418 0.192699 0.090883
H25   H     H_    0.168854 0.609310 0.305269 0.109205
H26   H     H_    0.515887 0.872431 0.683722 0.134962
H27   H     H_    0.781007 0.803937 0.776364 0.114905
H28   H     H_    0.782091 0.755447 0.657219 0.116249
H29   H     H_    0.647746 0.498544 0.833804 0.124267
H30   H     H_    0.587747 0.502611 0.717102 0.100578
O1    O     O_R   0.507110 0.256280 0.580300 -0.509564
O2    O     O_R   0.524640 0.695370 0.425100 -0.466386
O3    O     O_R   0.735890 0.504390 0.415980 -0.533826
O4    O     O_R   0.690560 0.277820 0.422350 -0.489660
O5    O     O_3   0.499990 0.499990 0.499980 -0.306599
O6    O     O_R   0.089190 0.825870 0.932320 -0.510740
O7    O     O_R   0.819070 0.053960 0.931440 -0.479709
O8    O     O_R   0.607070 0.076440 0.916460 -0.517613
O9    O     O_R   0.647110 0.806550 0.917690 -0.511437
O10   O     O_R   0.837080 0.593860 0.915300 -0.476362
O11   O     O_R   0.064770 0.636080 0.932550 -0.494629
O12   O     O_R   0.280830 0.527190 0.577940 -0.492081
O13   O     O_R   0.068250 0.829200 0.092940 -0.506024
O14   O     O_R   0.799650 0.057040 0.080330 -0.494413
O15   O     O_R   0.586130 0.079760 0.077080 -0.520934
O16   O     O_R   0.627700 0.809630 0.066580 -0.495909
O17   O     O_R   0.816140 0.597180 0.075920 -0.495169
O18   O     O_R   0.045360 0.639170 0.081440 -0.525243
O19   O     O_3   0.833980 0.833750 0.001700 -0.280690
O20   O     O_R   0.261360 0.738990 0.584270 -0.512662
O21   O     O_R   0.532590 0.694780 0.574370 -0.503529
O22   O     O_R   0.744470 0.503750 0.577000 -0.523903
O23   O     O_R   0.698520 0.277230 0.571620 -0.492782
O24   O     O_R   0.498530 0.256920 0.419280 -0.478795
O25   O     O_R   0.272880 0.527780 0.428680 -0.513653
O26   O     O_R   0.252780 0.739630 0.423250 -0.471402
C41   C     C_2   0.594600 0.852475 0.325099 0.217490
H31   H     H_    0.630844 0.904745 0.288014 0.121128
O27   O     O_2   0.483076 0.924668 0.356382 -0.477323
I1    I     I_    0.931663 0.341964 0.820148 -0.446917

loop_
_geom_bond_atom_site_label_1
_geom_bond_atom_site_label_2
_ccdc_geom_bond_type
C7    C10   D    
C23   O23   A    
C39   H22   S    
C28   H23   S    
C1    C11   S    
Cr3   O22   S    
Cr4   O7    S    
C10   H6    S    
C25   C28   D    
C26   C27   D    
C34   O26   A    
C31   O6    A    
C6    H2    S    
Cr2   O20   S    
C8    C29   S    
C20   H20   S    
Cr3   O23   S    
C29   O7    A    
Cr4   O6    S    
C16   C19   D    
Cr1   O1    S    
C38   C39   S    
C32   O15   A    
C13   H11   S    
Cr3   O3    S    
C40   H3    S    
C40   H27   S    
C18   C19   S    
C5    H28   S    
Cr5   O16   S    
C22   H17   S    
C38   H12   S    
C11   C15   D    
C32   O14   A    
Cr6   O19   S    
C20   C24   D    
C3    C38   S    
C8    C9    D    
C9    H5    S    
C39   H26   S    
C25   H25   S    
C30   O10   A    
C9    C10   S    
C12   O22   A    
C25   C34   S    
C1    O12   A    
C14   H9    S    
C24   H18   S    
C21   C22   D    
C2    C6    S    
Cr2   O5    S    
C17   C33   S    
C11   H13   S    
Cr2   O26   S    
C37   O4    A    
C21   C32   S    
C34   O25   A    
C31   O11   A    
C29   O8    A    
C4    C6    S    
Cr2   O21   S    
Cr3   O4    S    
C2    I1    S    
C3    C30   S    
Cr5   O9    S    
C17   H16   S    
C16   C41   S    
Cr6   O18   S    
C4    C39   S    
Cr1   O5    S    
C17   C18   D    
C12   O21   A    
Cr1   O24   S    
C41   O27   D    
C23   O1    A    
C30   O9    A    
C38   H1    S    
C35   O13   A    
C18   H14   S    
C3    C40   S    
Cr2   O2    S    
C26   H24   S    
C22   C24   S    
C5    H4    S    
C33   O16   A    
Cr5   O8    S    
C4    C12   S    
Cr5   O19   S    
C27   C28   S    
Cr4   O14   S    
Cr6   O11   S    
C35   O18   A    
Cr1   O12   S    
Cr3   O5    S    
C21   H19   S    
C13   C31   S    
C4    C5    S    
C36   O3    A    
C33   O17   A    
C8    H7    S    
C6    H30   S    
C15   H10   S    
C2    C3    S    
Cr4   O19   S    
C36   O2    A    
C16   C36   S    
C20   C37   S    
Cr6   O17   S    
C19   H15   S    
C1    O20   A    
C7    C23   S    
Cr1   O25   S    
Cr5   O15   S    
C27   H21   S    
C2    H29   S    
C26   C35   S    
C5    C40   S    
C41   H31   S    
C14   C15   S    
C7    H8    S    
C13   C14   D    
C37   O24   A    
Cr4   O13   S    
Cr6   O10   S    
