data_mof_unit_14128.cif
_audit_creation_date              2012-12-10T18:33:40-0500
_audit_creation_method            fapswitch 2.2
_symmetry_space_group_name_H-M    P1
_symmetry_Int_Tables_number       1
_space_group_crystal_system       triclinic
_cell_length_a                    10.477949
_cell_length_b                    14.963105
_cell_length_c                    15.270129
_cell_angle_alpha                 82.279046
_cell_angle_beta                  90.112539
_cell_angle_gamma                 104.685579
_cell_volume                      2293.59795119

loop_
_atom_site_label
_atom_site_type_symbol
_atom_type_description
_atom_site_fract_x
_atom_site_fract_y
_atom_site_fract_z
_atom_type_partial_charge
C1    C     C_R   0.476819 0.441774 0.662761 0.857631
C2    C     C_R   0.513902 0.557951 0.337127 0.855997
C3    C     C_R   0.424920 0.470303 0.811196 -0.257260
C4    C     C_R   0.448668 0.524025 0.188674 -0.253439
C5    C     C_R   0.377247 0.441183 0.898389 0.087045
C6    C     C_R   0.410582 0.548249 0.103012 0.087552
C7    C     C_R   0.345470 0.344448 0.931325 0.120763
C8    C     C_R   0.425982 0.644111 0.070426 0.115912
C9    C     C_R   0.373846 0.507541 0.955449 0.050210
C10   C     C_R   0.369368 0.479166 0.046935 0.051851
C11   C     C_R   0.327544 0.382802 0.079013 -0.283641
C12   C     C_R   0.378809 0.601632 0.924094 -0.283421
C13   C     C_R   0.310136 0.315408 0.021727 -0.020523
C14   C     C_R   0.399627 0.669552 0.981038 -0.020465
C15   C     C_R   0.703607 0.841824 0.637155 -0.336122
C16   C     C_R   0.280693 0.150185 0.379447 -0.334992
C17   C     C_R   0.666732 0.752597 0.613971 0.017360
C18   C     C_R   0.327112 0.243015 0.391161 0.008869
C19   C     C_R   0.510653 0.794192 0.515011 -0.061153
C20   C     C_R   0.487369 0.206842 0.489736 -0.053274
C21   C     C_R   0.539265 0.885056 0.538725 -0.006697
C22   C     C_R   0.447511 0.111500 0.479125 -0.006878
C23   C     C_R   0.742790 0.501105 0.500111 0.865660
C24   C     C_R   0.257269 0.499037 0.499614 0.862541
C25   C     C_R   0.644432 0.910738 0.596852 0.110922
C26   C     C_R   0.335969 0.082419 0.426475 0.113411
C27   C     C_R   0.468034 0.950521 0.505136 0.060694
C28   C     C_R   0.513180 0.044857 0.519698 0.059992
C29   C     C_R   0.622900 0.069545 0.573686 -0.295340
C30   C     C_R   0.348954 0.922649 0.461349 -0.290246
C31   C     C_R   0.686561 0.003970 0.613781 -0.016321
C32   C     C_R   0.281652 0.986512 0.422884 -0.008348
C33   C     C_3   0.932249 0.431785 0.560923 -0.176128
C34   C     C_3   0.068029 0.568720 0.438434 -0.178091
C35   C     C_3   0.048245 0.512915 0.579975 -0.175383
C36   C     C_3   0.951985 0.487597 0.419379 -0.177715
C37   C     C_3   0.121686 0.497858 0.499112 0.026800
C38   C     C_3   0.878520 0.502597 0.500261 0.022298
C39   C     C_3   0.008383 0.416733 0.480042 -0.134951
C40   C     C_3   0.991839 0.583773 0.519303 -0.137256
C41   C     C_R   0.436835 0.406430 0.755235 -0.054767
C42   C     C_R   0.493629 0.590847 0.244634 -0.059847
C43   C     C_R   0.356130 0.280068 0.873812 -0.221389
C44   C     C_R   0.472728 0.711641 0.127202 -0.214188
C45   C     C_R   0.400417 0.310890 0.786341 -0.204226
C46   C     C_R   0.504780 0.685004 0.213900 -0.213563
H1    H     H_    0.092303 0.522791 0.645301 0.137602
H2    H     H_    0.908001 0.477724 0.354040 0.135015
H3    H     H_    0.563909 0.234650 0.532915 0.127082
H4    H     H_    0.441137 0.771803 0.465298 0.123771
H5    H     H_    0.281308 0.294851 0.357984 0.128537
H6    H     H_    0.713057 0.699684 0.644104 0.134337
H7    H     H_    0.777544 0.855628 0.686462 0.160416
H8    H     H_    0.201224 0.132143 0.334528 0.169161
H9    H     H_    0.662753 0.140086 0.586337 0.143605
H10   H     H_    0.301453 0.849732 0.461091 0.146607
H11   H     H_    0.872205 0.376330 0.610884 0.133371
H12   H     H_    0.128073 0.624206 0.388486 0.130934
H13   H     H_    0.019318 0.348751 0.464081 0.143977
H14   H     H_    0.980963 0.651818 0.535143 0.148744
H15   H     H_    0.447923 0.452555 0.211953 0.159143
H16   H     H_    0.458810 0.543703 0.786813 0.160462
H17   H     H_    0.538428 0.737933 0.256615 0.149759
H18   H     H_    0.407477 0.260096 0.743494 0.152149
H19   H     H_    0.334488 0.205952 0.896352 0.145392
H20   H     H_    0.487678 0.785353 0.104733 0.151265
H21   H     H_    0.303281 0.358828 0.148446 0.146853
H22   H     H_    0.361251 0.622696 0.855517 0.152771
N1    N     N_R   0.574200 0.731700 0.552740 -0.096495
N2    N     N_R   0.425800 0.268300 0.447260 -0.096187
O1    O     O_R   0.462600 0.383110 0.605620 -0.615334
O2    O     O_R   0.537400 0.616890 0.394380 -0.616926
O3    O     O_R   0.510210 0.531900 0.639510 -0.621923
O4    O     O_R   0.489790 0.468100 0.360490 -0.619260
O5    O     O_R   0.662240 0.425610 0.483080 -0.619774
O6    O     O_R   0.337760 0.574390 0.516920 -0.620204
O7    O     O_R   0.709860 0.574400 0.516970 -0.623407
O8    O     O_R   0.290140 0.425600 0.483030 -0.625004
Zn1   Zn    Zn3+2 0.468210 0.400660 0.477370 0.931063
Zn2   Zn    Zn3+2 0.531790 0.599340 0.522630 0.929064
C47   C     C_R   0.259905 0.215558 0.058602 0.125235
C48   C     C_R   0.325710 0.174756 0.126914 -0.163670
C49   C     C_R   0.280089 0.079891 0.159330 -0.134594
C50   C     C_R   0.168129 0.025490 0.124384 -0.110267
C51   C     C_R   0.100629 0.065936 0.057735 -0.155605
C52   C     C_R   0.145828 0.160671 0.025138 -0.172115
H23   H     H_    0.413305 0.215953 0.153980 0.134066
H24   H     H_    0.331965 0.048445 0.211183 0.138817
H25   H     H_    0.133940 0.951882 0.148473 0.132935
H26   H     H_    0.013741 0.023748 0.030914 0.134307
H27   H     H_    0.092857 0.191134 0.973233 0.125729
C53   C     C_R   0.395745 0.765972 0.944172 0.121540
C54   C     C_R   0.471767 0.812183 0.867839 -0.150356
C55   C     C_R   0.463253 0.901122 0.830958 -0.131443
C56   C     C_R   0.379242 0.944811 0.869790 -0.114324
C57   C     C_R   0.302838 0.899318 0.945348 -0.132493
C58   C     C_R   0.310327 0.810093 0.982209 -0.174326
H28   H     H_    0.537345 0.779326 0.836809 0.131927
H29   H     H_    0.521244 0.935934 0.771987 0.141970
H30   H     H_    0.372790 0.013661 0.841060 0.116954
H31   H     H_    0.236963 0.932876 0.974917 0.137917
H32   H     H_    0.248864 0.775086 0.039930 0.127281
C59   C     C_R   0.800323 0.037231 0.670191 0.121801
C60   C     C_R   0.926231 0.027042 0.649863 -0.168207
C61   C     C_R   0.033633 0.061011 0.701320 -0.131180
C62   C     C_R   0.016570 0.106046 0.773213 -0.112251
C63   C     C_R   0.892138 0.117388 0.793547 -0.134402
C64   C     C_R   0.784522 0.083603 0.742110 -0.167393
H33   H     H_    0.940725 0.992212 0.594572 0.130935
H34   H     H_    0.130108 0.052482 0.685380 0.131975
H35   H     H_    0.099762 0.132293 0.813011 0.122558
H36   H     H_    0.879135 0.152597 0.849060 0.126477
H37   H     H_    0.688918 0.093455 0.758424 0.121572
C65   C     C_R   0.148798 0.948625 0.387515 0.135454
C66   C     C_R   0.129454 0.877994 0.332860 -0.188297
C67   C     C_R   0.002699 0.836188 0.306802 -0.152799
C68   C     C_R   0.893977 0.864227 0.334981 -0.085230
C69   C     C_R   0.911804 0.934176 0.389258 -0.131616
C70   C     C_R   0.038316 0.975958 0.415608 -0.170866
H38   H     H_    0.212422 0.854963 0.310715 0.119702
H39   H     H_    0.988784 0.781790 0.264939 0.126035
H40   H     H_    0.795907 0.831531 0.315026 0.123259
H41   H     H_    0.827450 0.955450 0.411642 0.137682
H42   H     H_    0.050090 0.028946 0.458777 0.128858

loop_
_geom_bond_atom_site_label_1
_geom_bond_atom_site_label_2
_ccdc_geom_bond_type
C18   N2    A    
C38   C40   S    
C61   H34   S    
C17   N1    A    
C54   C55   A    
C40   H14   S    
C34   C37   S    
C63   H36   S    
C44   H20   S    
C56   C57   A    
C35   H1    S    
O1    Zn1   S    
C47   C48   A    
C70   H42   S    
C26   C32   A    
C12   H22   S    
C33   C39   S    
C34   C40   S    
C15   H7    S    
C28   C29   A    
C35   C37   S    
C52   H27   S    
C60   H33   S    
C3    H16   S    
C62   C63   A    
C48   H23   S    
C13   C47   S    
C67   C68   A    
C42   C46   A    
C69   C70   A    
C44   C46   A    
C53   C58   A    
C33   H11   S    
C63   C64   A    
C59   C64   A    
C7    C43   A    
C9    C10   A    
C58   H32   S    
C2    O4    A    
C49   H24   S    
C21   C27   A    
C22   C28   A    
C57   H31   S    
C27   C30   A    
C29   C31   A    
C20   N2    A    
C2    O2    A    
C17   H6    S    
C60   C61   A    
C11   H21   S    
C18   H5    S    
C65   C66   A    
C62   H35   S    
C16   C26   A    
C67   H39   S    
O6    Zn2   S    
C50   C51   A    
C4    C6    A    
C23   O5    A    
C5    C7    A    
C56   H30   S    
C24   O6    A    
C6    C8    A    
C29   H9    S    
C51   C52   A    
C30   H10   S    
C4    H15   S    
C31   C59   S    
C64   H37   S    
C68   H40   S    
C5    C9    A    
C20   H3    S    
C49   C50   A    
C43   H19   S    
C39   H13   S    
C57   C58   A    
C24   C37   S    
C47   C52   A    
C16   C18   A    
C1    O1    A    
C23   O7    A    
C43   C45   A    
C14   C53   S    
C24   O8    A    
C12   C14   A    
C66   H38   S    
O4    Zn1   S    
C19   N1    A    
C50   H25   S    
C59   C60   A    
O7    Zn2   S    
C1    C41   S    
C15   C17   A    
C21   C25   A    
C3    C41   A    
C8    C14   A    
C19   C21   A    
N2    Zn1   S    
O8    Zn1   S    
C25   C31   A    
C36   C39   S    
C8    C44   A    
C20   C22   A    
C3    C5    A    
C6    C10   A    
C51   H26   S    
C23   C38   S    
C61   C62   A    
C45   H18   S    
C33   C38   S    
C46   H17   S    
C1    O3    A    
C36   C38   S    
C35   C40   S    
C37   C39   S    
C68   C69   A    
C30   C32   A    
C11   C13   A    
C19   H4    S    
C65   C70   A    
C4    C42   A    
C55   H29   S    
C2    C42   S    
C53   C54   A    
C33   C35   S    
O3    Zn2   S    
C36   H2    S    
C34   C36   S    
C69   H41   S    
C55   C56   A    
C9    C12   A    
C16   H8    S    
C15   C25   A    
C10   C11   A    
C7    C13   A    
O2    Zn2   S    
C48   C49   A    
C22   C26   A    
C27   C28   A    
C34   H12   S    
C41   C45   A    
N1    Zn2   S    
C32   C65   S    
O5    Zn1   S    
C54   H28   S    
C66   C67   A    
