data_mof_unit_64459.cif
_audit_creation_date              2012-12-10T18:08:42-0500
_audit_creation_method            fapswitch 2.2
_symmetry_space_group_name_H-M    P1
_symmetry_Int_Tables_number       1
_space_group_crystal_system       triclinic
_cell_length_a                    36.972795
_cell_length_b                    18.373207
_cell_length_c                    18.375536
_cell_angle_alpha                 89.999839
_cell_angle_beta                  119.942799
_cell_angle_gamma                 89.994353
_cell_volume                      10816.529333

loop_
_atom_site_label
_atom_site_type_symbol
_atom_type_description
_atom_site_fract_x
_atom_site_fract_y
_atom_site_fract_z
_atom_type_partial_charge
C1    C     C_R   0.500050 0.999999 0.360190 0.844677
C2    C     C_R   0.499951 1.000000 0.639811 0.844345
C3    C     C_R   0.000050 0.499999 0.360190 0.844681
C4    C     C_R   0.999951 0.500000 0.639811 0.844310
C5    C     C_1   0.837514 0.998963 0.835888 0.011948
C6    C     C_1   0.162449 0.998591 0.163724 0.032011
C7    C     C_1   0.337514 0.498972 0.835887 0.011920
C8    C     C_1   0.662449 0.498634 0.163724 0.032000
C9    C     C_1   0.662564 0.000671 0.660296 0.054996
C10   C     C_1   0.337473 0.000672 0.338773 0.041319
C11   C     C_1   0.162564 0.500679 0.660299 0.054997
C12   C     C_1   0.837474 0.500675 0.338783 0.040972
C13   C     C_1   0.624888 0.000271 0.623789 -0.167128
C14   C     C_1   0.375139 0.000251 0.375856 -0.175031
C15   C     C_1   0.124888 0.500274 0.623791 -0.167125
C16   C     C_1   0.875140 0.500248 0.375861 -0.175217
C17   C     C_1   0.500107 0.999995 0.282791 -0.174602
C18   C     C_1   0.499894 0.999998 0.717210 -0.174221
C19   C     C_1   0.000107 0.499995 0.282791 -0.174607
C20   C     C_1   0.999894 0.499998 0.717210 -0.174265
C21   C     C_1   0.500117 0.999989 0.217558 -0.175497
C22   C     C_1   0.499884 0.999994 0.782443 -0.174977
C23   C     C_1   0.000117 0.499989 0.217558 -0.175499
C24   C     C_1   0.999884 0.499994 0.782443 -0.175016
C25   C     C_R   0.000006 0.139692 0.000007 0.842521
C26   C     C_R   0.999996 0.860310 0.999996 0.842826
C27   C     C_R   0.500005 0.639692 0.000006 0.842499
C28   C     C_R   0.499996 0.360310 0.999996 0.842823
C29   C     C_R   0.919983 0.999697 0.919844 0.816420
C30   C     C_R   0.080008 0.999664 0.080138 0.815192
C31   C     C_R   0.419983 0.499698 0.919844 0.816423
C32   C     C_R   0.580008 0.499675 0.080138 0.815210
C33   C     C_R   0.500002 0.859943 0.000010 0.847861
C34   C     C_R   0.499998 0.140054 0.999997 0.847224
C35   C     C_R   0.000002 0.359942 0.000010 0.847881
C36   C     C_R   0.999998 0.640054 0.999997 0.847230
C37   C     C_R   0.500042 0.999987 0.140026 0.847133
C38   C     C_R   0.499958 0.999992 0.859974 0.847445
C39   C     C_R   0.000042 0.499987 0.140026 0.847146
C40   C     C_R   0.999958 0.499992 0.859974 0.847444
C41   C     C_1   0.000009 0.217184 0.000015 -0.181728
C42   C     C_1   0.999993 0.782817 0.999992 -0.179165
C43   C     C_1   0.500008 0.717184 0.000015 -0.181697
C44   C     C_1   0.499993 0.282818 0.999992 -0.179178
C45   C     C_R   0.580037 0.000033 0.579898 0.816483
C46   C     C_R   0.419972 0.000036 0.420118 0.817030
C47   C     C_R   0.080037 0.500034 0.579898 0.816470
C48   C     C_R   0.919972 0.500035 0.420119 0.817052
C49   C     C_1   0.500008 0.782448 0.000018 -0.183175
C50   C     C_1   0.499993 0.217550 0.999992 -0.176457
C51   C     C_1   0.000008 0.282448 0.000018 -0.183235
C52   C     C_1   0.999993 0.717550 0.999992 -0.176454
C53   C     C_3   0.726023 0.078421 0.703497 0.306607
C54   C     C_3   0.273860 0.944887 0.333178 0.312874
C55   C     C_3   0.273466 0.080140 0.284127 0.281817
C56   C     C_3   0.725437 0.943375 0.666304 0.315290
C57   C     C_3   0.226023 0.578473 0.703660 0.306608
C58   C     C_3   0.773854 0.444632 0.332912 0.313099
C59   C     C_3   0.773473 0.580125 0.284536 0.281573
C60   C     C_3   0.225437 0.443504 0.666188 0.315301
C61   C     C_3   0.774235 0.946677 0.711573 0.191685
C62   C     C_3   0.224846 0.077717 0.242035 0.209560
C63   C     C_3   0.225187 0.948357 0.289544 0.178929
C64   C     C_3   0.775560 0.078289 0.754712 0.158854
C65   C     C_3   0.274235 0.446809 0.711467 0.191671
C66   C     C_3   0.724849 0.577686 0.242375 0.209658
C67   C     C_3   0.725187 0.448137 0.289339 0.178941
C68   C     C_3   0.275560 0.578337 0.754871 0.158867
C69   C     C_1   0.875172 0.999123 0.874549 -0.201711
C70   C     C_1   0.124801 0.998920 0.125334 -0.198066
C71   C     C_1   0.375172 0.499128 0.874549 -0.201737
C72   C     C_1   0.624801 0.498953 0.125334 -0.197995
C73   C     C_3   0.708739 0.000918 0.704755 0.060743
C74   C     C_3   0.291394 0.000982 0.293438 0.032742
C75   C     C_3   0.208739 0.500931 0.704759 0.060751
C76   C     C_3   0.791396 0.501003 0.293455 0.032766
C77   C     C_3   0.791364 0.999823 0.788194 0.093430
C78   C     C_3   0.208574 0.999004 0.210993 0.076003
C79   C     C_3   0.291364 0.499836 0.788195 0.093444
C80   C     C_3   0.708574 0.499040 0.210998 0.075939
C81   C     C_3   0.773969 0.976126 0.846003 -0.340205
C82   C     C_3   0.225971 0.972419 0.153742 -0.359844
C83   C     C_3   0.273969 0.475986 0.845957 -0.340216
C84   C     C_3   0.725971 0.472769 0.153636 -0.359937
C85   C     C_3   0.725665 0.979546 0.798054 -0.608771
C86   C     C_3   0.274540 0.974293 0.201536 -0.600415
C87   C     C_3   0.225665 0.479402 0.798013 -0.608781
C88   C     C_3   0.774539 0.474693 0.201421 -0.600316
Cu1   Cu    Cu3+1 0.500000 0.072550 0.500000 0.965687
Cu2   Cu    Cu3+1 0.500000 0.927450 0.500000 0.962744
Cu3   Cu    Cu3+1 1.000000 0.572550 0.500000 0.965635
Cu4   Cu    Cu3+1 0.000000 0.427450 0.500000 0.962787
Cu5   Cu    Cu3+1 0.000010 0.000000 0.927480 0.957113
Cu6   Cu    Cu3+1 0.999990 0.000000 0.072520 0.955589
Cu7   Cu    Cu3+1 0.500010 0.500000 0.927480 0.957122
Cu8   Cu    Cu3+1 0.499990 0.500000 0.072520 0.955568
Cu9   Cu    Cu3+1 0.541320 0.000000 0.041310 0.956577
Cu10  Cu    Cu3+1 0.458680 0.000000 0.958690 0.954953
Cu11  Cu    Cu3+1 0.041320 0.500000 0.041310 0.956551
Cu12  Cu    Cu3+1 0.958680 0.500000 0.958690 0.954918
H1    H     H_    0.789987 0.092132 0.716046 0.055393
H2    H     H_    0.215985 0.973011 0.333267 0.055153
H3    H     H_    0.215752 0.091627 0.289998 0.078723
H4    H     H_    0.783063 0.969337 0.666154 0.077437
H5    H     H_    0.289986 0.592285 0.716231 0.055378
H6    H     H_    0.716014 0.472606 0.333192 0.055134
H7    H     H_    0.715731 0.591372 0.290357 0.078858
H8    H     H_    0.283064 0.469575 0.666094 0.077456
H9    H     H_    0.716645 0.888653 0.679676 0.119935
H10   H     H_    0.280663 0.109535 0.239381 0.131750
H11   H     H_    0.280556 0.890848 0.314954 0.169611
H12   H     H_    0.716263 0.113663 0.739986 0.143867
H13   H     H_    0.216642 0.388736 0.679442 0.119930
H14   H     H_    0.780687 0.609809 0.239980 0.131785
H15   H     H_    0.780521 0.390716 0.314369 0.169630
H16   H     H_    0.216264 0.613620 0.740223 0.143863
H17   H     H_    0.715166 0.019740 0.828978 0.207118
H18   H     H_    0.286789 0.919117 0.200753 0.202512
H19   H     H_    0.285452 0.010586 0.167866 0.201309
H20   H     H_    0.712960 0.925703 0.802074 0.199802
H21   H     H_    0.215165 0.519509 0.829020 0.207104
H22   H     H_    0.786802 0.419596 0.200357 0.202478
H23   H     H_    0.785435 0.511228 0.167921 0.201365
H24   H     H_    0.212961 0.425523 0.801922 0.199800
H25   H     H_    0.786553 0.011668 0.902479 0.217005
H26   H     H_    0.215076 0.916019 0.131654 0.211697
H27   H     H_    0.213756 0.007389 0.096862 0.213788
H28   H     H_    0.784265 0.919691 0.869023 0.206799
H29   H     H_    0.286553 0.511442 0.902503 0.216995
H30   H     H_    0.715092 0.416403 0.131348 0.211637
H31   H     H_    0.713741 0.507901 0.096881 0.213852
H32   H     H_    0.284267 0.419527 0.868865 0.206793
O1    O     O_R   0.500010 0.061270 0.394200 -0.580253
O2    O     O_R   0.499990 0.938730 0.605800 -0.580309
O3    O     O_R   0.499990 0.061270 0.605800 -0.583494
O4    O     O_R   0.500010 0.938730 0.394200 -0.584367
O5    O     O_R   0.000010 0.561270 0.394200 -0.580241
O6    O     O_R   0.999990 0.438730 0.605800 -0.580302
O7    O     O_R   0.999990 0.561270 0.605800 -0.583514
O8    O     O_R   0.000010 0.438730 0.394200 -0.584363
O9    O     O_R   0.560280 0.061270 0.560280 -0.570269
O10   O     O_R   0.439720 0.938730 0.439720 -0.575062
O11   O     O_R   0.439720 0.061270 0.439720 -0.588244
O12   O     O_R   0.560280 0.938730 0.560280 -0.589485
O13   O     O_R   0.060280 0.561270 0.560280 -0.570244
O14   O     O_R   0.939720 0.438730 0.439720 -0.574978
O15   O     O_R   0.939720 0.561270 0.439720 -0.588347
O16   O     O_R   0.060280 0.438730 0.560280 -0.589486
O17   O     O_R   1.000000 0.105620 0.938740 -0.581084
O18   O     O_R   1.000000 0.894380 0.061260 -0.582005
O19   O     O_R   1.000000 0.105620 0.061260 -0.582368
O20   O     O_R   0.000000 0.894380 0.938740 -0.582336
O21   O     O_R   0.500000 0.605620 0.938740 -0.581083
O22   O     O_R   0.500000 0.394380 0.061260 -0.582009
O23   O     O_R   0.500000 0.605620 0.061260 -0.582373
O24   O     O_R   0.500000 0.394380 0.938740 -0.582329
O25   O     O_R   0.939730 0.000000 0.878470 -0.588899
O26   O     O_R   0.060270 0.000000 0.121530 -0.588813
O27   O     O_R   0.439730 0.500000 0.878470 -0.588901
O28   O     O_R   0.560270 0.500000 0.121530 -0.588836
O29   O     O_R   0.939720 0.000000 0.000940 -0.574298
O30   O     O_R   0.060280 0.000000 0.999060 -0.573587
O31   O     O_R   0.439720 0.500000 0.000940 -0.574307
O32   O     O_R   0.560280 0.500000 0.999060 -0.573571
O33   O     O_R   0.534900 0.894160 0.034870 -0.585783
O34   O     O_R   0.465100 0.105840 0.965130 -0.585410
O35   O     O_R   0.465100 0.894160 0.965130 -0.585979
O36   O     O_R   0.534900 0.105840 0.034870 -0.583701
O37   O     O_R   0.034900 0.394160 0.034870 -0.585822
O38   O     O_R   0.965100 0.605840 0.965130 -0.585423
O39   O     O_R   0.965100 0.394160 0.965130 -0.585950
O40   O     O_R   0.034900 0.605840 0.034870 -0.583681
O41   O     O_R   0.534890 0.000000 0.140680 -0.584179
O42   O     O_R   0.465110 0.000000 0.859320 -0.584560
O43   O     O_R   0.034890 0.500000 0.140680 -0.584183
O44   O     O_R   0.965110 0.500000 0.859320 -0.584593
O45   O     O_R   0.465110 0.000000 0.070890 -0.584652
O46   O     O_R   0.534890 0.000000 0.929110 -0.584302
O47   O     O_R   0.965110 0.500000 0.070890 -0.584640
O48   O     O_R   0.034890 0.500000 0.929110 -0.584302
O49   O     O_3   0.704453 0.108980 0.620756 -0.558818
C89   C     C_3   0.727910 0.118619 0.580131 -0.243719
H33   H     H_    0.745220 0.069027 0.581371 0.172166
H34   H     H_    0.748956 0.166271 0.606266 0.122393
H35   H     H_    0.705937 0.130840 0.513057 0.196120
O50   O     O_3   0.294997 0.938330 0.422308 -0.602473
C90   C     C_3   0.294656 0.001259 0.465654 -0.233682
H36   H     H_    0.265889 0.034305 0.432191 0.158964
H37   H     H_    0.322925 0.034198 0.482693 0.224459
H38   H     H_    0.296815 0.983968 0.525522 0.157760
O51   O     O_3   0.290651 0.116727 0.362456 -0.617396
C91   C     C_3   0.315346 0.176684 0.366090 -0.372740
H39   H     H_    0.328686 0.202163 0.429010 0.198118
H40   H     H_    0.296125 0.218377 0.318464 0.161391
H41   H     H_    0.341772 0.159134 0.357519 0.180184
O52   O     O_3   0.708396 0.956105 0.578884 -0.576905
C92   C     C_3   0.683442 0.897196 0.530775 -0.333737
H42   H     H_    0.656298 0.889450 0.540426 0.169251
H43   H     H_    0.702055 0.846248 0.545897 0.151679
H44   H     H_    0.671190 0.909393 0.463352 0.197283
O53   O     O_3   0.204451 0.609156 0.620981 -0.558807
C93   C     C_3   0.227909 0.618945 0.580380 -0.243648
H45   H     H_    0.245217 0.569387 0.581503 0.172161
H46   H     H_    0.248956 0.666582 0.606628 0.122387
H47   H     H_    0.205937 0.631275 0.513336 0.196120
O54   O     O_3   0.795003 0.437686 0.422004 -0.602414
C94   C     C_3   0.794739 0.500412 0.465719 -0.233722
H48   H     H_    0.765968 0.533487 0.432528 0.159144
H49   H     H_    0.823000 0.533384 0.482792 0.224379
H50   H     H_    0.796973 0.482850 0.525572 0.157789
O55   O     O_3   0.790633 0.616390 0.363052 -0.617528
C95   C     C_3   0.815543 0.676193 0.367238 -0.372989
H51   H     H_    0.829005 0.701200 0.430420 0.198221
H52   H     H_    0.796455 0.718271 0.320051 0.161592
H53   H     H_    0.841888 0.658594 0.358423 0.180104
O56   O     O_3   0.208398 0.456385 0.578796 -0.576893
C96   C     C_3   0.183453 0.397518 0.530561 -0.333742
H54   H     H_    0.156307 0.389681 0.540188 0.169225
H55   H     H_    0.202071 0.346584 0.545581 0.151685
H56   H     H_    0.171203 0.409831 0.463165 0.197283
O57   O     O_3   0.790396 0.875387 0.739406 -0.620476
C97   C     C_3   0.819060 0.854341 0.713427 0.077140
H57   H     H_    0.839375 0.811265 0.757182 0.172188
H58   H     H_    0.840232 0.899556 0.718168 0.128098
C98   C     C_3   0.796067 0.822858 0.624299 -0.364727
H59   H     H_    0.775124 0.778159 0.621368 0.224589
H60   H     H_    0.776724 0.865811 0.578968 0.225841
C99   C     C_3   0.826611 0.793208 0.598583 -0.921614
H61   H     H_    0.847532 0.837261 0.600009 0.256281
H62   H     H_    0.808994 0.771132 0.533763 0.257394
H63   H     H_    0.845726 0.748754 0.641624 0.259663
O58   O     O_3   0.206794 0.126234 0.172365 -0.613854
C100  C     C_3   0.195596 0.193584 0.193032 0.056433
H64   H     H_    0.197832 0.235914 0.152294 0.165422
H65   H     H_    0.217293 0.210653 0.259101 0.143499
C101  C     C_3   0.150446 0.190740 0.175194 -0.354376
H66   H     H_    0.129540 0.173519 0.109083 0.233122
H67   H     H_    0.147781 0.150218 0.217146 0.205345
C102  C     C_3   0.136096 0.264724 0.188997 -0.895382
H68   H     H_    0.156136 0.282521 0.255134 0.248875
H69   H     H_    0.103350 0.260694 0.175543 0.263102
H70   H     H_    0.137494 0.305987 0.146284 0.258635
O59   O     O_3   0.208691 0.876887 0.263746 -0.611696
C103  C     C_3   0.183582 0.854879 0.297990 0.080124
H71   H     H_    0.163479 0.809506 0.258627 0.170992
H72   H     H_    0.161981 0.898763 0.294650 0.126268
C104  C     C_3   0.210628 0.827112 0.388207 -0.347137
H73   H     H_    0.232110 0.784145 0.389513 0.235321
H74   H     H_    0.229695 0.872361 0.429685 0.236281
C105  C     C_3   0.183853 0.795837 0.422444 -0.925836
H75   H     H_    0.162208 0.838024 0.421954 0.260711
H76   H     H_    0.204282 0.777282 0.488113 0.258577
H77   H     H_    0.165505 0.748608 0.383996 0.260427
O60   O     O_3   0.789878 0.126040 0.824800 -0.610011
C106  C     C_3   0.801356 0.195070 0.808711 0.069208
H78   H     H_    0.796478 0.235459 0.847983 0.168270
H79   H     H_    0.781369 0.212926 0.742427 0.129061
C107  C     C_3   0.847668 0.195547 0.834060 -0.359773
H80   H     H_    0.866744 0.177690 0.900499 0.234034
H81   H     H_    0.853209 0.156950 0.794119 0.207232
C108  C     C_3   0.861871 0.271246 0.824852 -0.889213
H82   H     H_    0.843654 0.289737 0.758555 0.251674
H83   H     H_    0.895450 0.269629 0.843630 0.265911
H84   H     H_    0.857708 0.310719 0.865881 0.256143
O61   O     O_3   0.290393 0.375495 0.739156 -0.620482
C109  C     C_3   0.319068 0.354562 0.713161 0.077156
H85   H     H_    0.339383 0.311447 0.756844 0.172185
H86   H     H_    0.340238 0.399814 0.717996 0.128113
C110  C     C_3   0.296088 0.323199 0.623976 -0.364822
H87   H     H_    0.275144 0.278464 0.620949 0.224578
H88   H     H_    0.276747 0.366199 0.578718 0.225821
C111  C     C_3   0.326643 0.293660 0.598233 -0.921453
H89   H     H_    0.347564 0.337753 0.599751 0.256283
H90   H     H_    0.309037 0.271666 0.533373 0.257338
H91   H     H_    0.345757 0.249166 0.641202 0.259660
O62   O     O_3   0.706816 0.626412 0.172902 -0.613858
C112  C     C_3   0.695699 0.693691 0.193882 0.056362
H92   H     H_    0.697969 0.736157 0.153318 0.165415
H93   H     H_    0.717427 0.710542 0.260020 0.143657
C113  C     C_3   0.650553 0.690898 0.176071 -0.354172
H94   H     H_    0.629615 0.673945 0.109871 0.233076
H95   H     H_    0.647848 0.650196 0.217811 0.205389
C114  C     C_3   0.636302 0.764816 0.190297 -0.895583
H96   H     H_    0.656372 0.782336 0.256532 0.248878
H97   H     H_    0.603555 0.760830 0.176839 0.263077
H98   H     H_    0.637748 0.806263 0.147809 0.258619
O63   O     O_3   0.708662 0.376719 0.263269 -0.611647
C115  C     C_3   0.683513 0.354571 0.297369 0.080167
H99   H     H_    0.663391 0.309295 0.257821 0.170957
H100  H     H_    0.661931 0.398438 0.294156 0.126248
C116  C     C_3   0.710514 0.326562 0.387492 -0.347073
H101  H     H_    0.731962 0.283587 0.388671 0.235343
H102  H     H_    0.729618 0.371697 0.429144 0.236229
C117  C     C_3   0.683691 0.295206 0.421575 -0.925812
H103  H     H_    0.662074 0.337395 0.421194 0.260709
H104  H     H_    0.704089 0.276490 0.487189 0.258578
H105  H     H_    0.665310 0.248074 0.382958 0.260459
O64   O     O_3   0.289880 0.625975 0.825056 -0.610013
C118  C     C_3   0.301366 0.695056 0.809111 0.069239
H106  H     H_    0.296496 0.735358 0.848474 0.168268
H107  H     H_    0.281377 0.713013 0.742868 0.129047
C119  C     C_3   0.347676 0.695559 0.834450 -0.359852
H108  H     H_    0.366753 0.677600 0.900850 0.234046
H109  H     H_    0.353209 0.657052 0.794424 0.207219
C120  C     C_3   0.361887 0.771300 0.825399 -0.889158
H110  H     H_    0.343667 0.789894 0.759142 0.251681
H111  H     H_    0.395464 0.769700 0.844162 0.265934
H112  H     H_    0.357733 0.810683 0.866518 0.256135

loop_
_geom_bond_atom_site_label_1
_geom_bond_atom_site_label_2
_ccdc_geom_bond_type
C106  H79   S    
C64   C77   S    
C116  H101  S    
C2    O2    A    
C59   C66   S    
C87   H24   S    
Cu2   O2    S    
C53   C64   S    
C54   C63   S    
C105  H76   S    
C22   C38   S    
C55   C62   S    
C98   C99   S    
C103  H71   S    
C92   H43   S    
C9    C13   T    
C89   H33   S    
C40   O48   A    
C55   C74   S    
C11   C15   T    
Cu8   O22   S    
C12   C16   T    
C111  H89   S    
C94   H50   S    
C3    C19   S    
C86   H19   S    
C1    O4    A    
C65   H8    S    
C105  H77   S    
Cu4   O6    S    
C99   H61   S    
C57   H16   S    
C29   C69   S    
Cu9   O41   S    
C93   H45   S    
Cu12  O38   S    
O51   C91   S    
C115  C116  S    
C61   H4    S    
C46   O10   A    
C25   C41   S    
O54   C94   S    
Cu1   O11   S    
C68   O64   S    
C28   C44   S    
C17   C21   T    
Cu7   O21   S    
C89   H35   S    
C55   O51   S    
C19   C23   T    
C78   C82   S    
C85   H17   S    
C60   C65   S    
C62   O58   S    
C110  H88   S    
C81   H28   S    
C35   C51   S    
O64   C118  S    
C30   O30   A    
C5    C77   S    
C7    C79   S    
C104  C105  S    
C44   C50   T    
C56   C73   S    
C84   C88   S    
O52   C92   S    
Cu6   O18   S    
C36   O38   A    
C103  C104  S    
Cu11  O48   S    
C13   C45   S    
Cu9   O46   S    
C111  H91   S    
C84   H30   S    
C4    C20   S    
C58   C67   S    
C90   H36   S    
C95   H51   S    
Cu5   O20   S    
O50   C90   S    
C41   C51   T    
C99   H63   S    
C42   C52   T    
C65   C79   S    
C66   H7    S    
Cu3   O15   S    
Cu9   Cu10  S    
C58   C76   S    
C119  H108  S    
Cu7   O27   S    
C116  H102  S    
C83   H29   S    
C108  H82   S    
C6    C78   S    
C101  H66   S    
C25   O17   A    
C61   C77   S    
C120  H111  S    
C45   O12   A    
C100  H64   S    
C36   C52   S    
C68   C79   S    
C31   C71   S    
C54   C74   S    
C112  H92   S    
C114  H98   S    
C63   H2    S    
C1    O1    A    
C59   O55   S    
C119  H109  S    
C36   O40   A    
Cu1   O1    S    
Cu4   O14   S    
C113  H94   S    
C39   O43   A    
C10   C14   T    
Cu3   Cu4   S    
C40   O44   A    
Cu11  O40   S    
C97   C98   S    
C96   H54   S    
C115  H100  S    
O57   C97   S    
C118  H107  S    
C95   H53   S    
C102  H69   S    
C97   H58   S    
Cu6   O29   S    
C73   C85   S    
Cu10  O34   S    
C109  H86   S    
C75   C87   S    
C68   H5    S    
C57   C68   S    
C56   H9    S    
Cu3   O13   S    
C26   C42   S    
C81   H25   S    
C18   C22   T    
C62   C78   S    
C33   O33   A    
C109  C110  S    
C108  H84   S    
C39   O47   A    
Cu9   O36   S    
C37   O45   A    
C1    C17   S    
C2    O3    A    
C101  C102  S    
C25   O19   A    
C57   C75   S    
C26   O20   A    
C107  H80   S    
C60   O56   S    
C11   C75   S    
C4    O7    A    
C32   O32   A    
C98   H60   S    
C103  H72   S    
C92   H42   S    
C100  C101  S    
C89   H34   S    
Cu11  O43   S    
O62   C112  S    
C111  H90   S    
C112  C113  S    
C57   O53   S    
C114  H96   S    
C94   H49   S    
C59   C76   S    
C81   C85   S    
C63   C78   S    
C83   C87   S    
C47   O13   A    
Cu1   O3    S    
Cu4   O16   S    
C35   O39   A    
C66   O62   S    
C102  H68   S    
C113  C114  S    
C80   C84   S    
C65   O61   S    
C99   H62   S    
C14   C46   S    
O49   C89   S    
C96   H56   S    
C93   H46   S    
C117  H103  S    
C114  H97   S    
C58   O54   S    
C33   C49   S    
O59   C103  S    
C48   O15   A    
Cu7   O24   S    
C82   H26   S    
C90   H38   S    
C5    C69   T    
C56   O52   S    
C93   H47   S    
Cu12  O44   S    
C3    O5    A    
C106  C107  S    
Cu6   O26   S    
C110  H87   S    
C45   O9    A    
C33   O35   A    
C34   O36   A    
C30   C70   S    
C104  H74   S    
C27   O23   A    
C8    C72   T    
C94   H48   S    
C26   O18   A    
C117  H105  S    
C87   H21   S    
C29   O25   A    
Cu6   O19   S    
C82   C86   S    
C92   H44   S    
C118  H106  S    
C91   H41   S    
O60   C106  S    
O63   C115  S    
C77   C81   S    
Cu5   O17   S    
C86   H18   S    
Cu2   O10   S    
Cu3   O7    S    
C88   H22   S    
C95   H52   S    
C12   C76   S    
C35   O37   A    
Cu4   O8    S    
C66   C80   S    
C6    C70   T    
C67   C80   S    
C67   H6    S    
C60   C75   S    
C105  H75   S    
C83   H32   S    
Cu7   O32   S    
C91   H39   S    
C79   C83   S    
Cu5   O30   S    
C59   H14   S    
Cu9   O33   S    
O58   C100  S    
C101  H67   S    
C54   H11   S    
C61   O57   S    
C38   O42   A    
C4    O6    A    
C27   C43   S    
C21   C37   S    
C120  H110  S    
C54   O50   S    
C110  C111  S    
C56   C61   S    
Cu1   Cu2   S    
C34   O34   A    
C27   O21   A    
Cu5   Cu6   S    
C38   O46   A    
C2    C18   S    
O53   C93   S    
Cu7   Cu8   S    
C15   C47   S    
C16   C48   S    
C119  C120  S    
C113  H95   S    
C7    C71   T    
Cu10  O42   S    
Cu1   O9    S    
Cu8   O23   S    
C67   O63   S    
Cu3   O5    S    
C20   C24   T    
C48   O14   A    
O61   C109  S    
C76   C88   S    
Cu10  O35   S    
Cu12  O39   S    
C28   O22   A    
C60   H13   S    
C9    C73   S    
C88   H23   S    
C118  C119  S    
C64   O60   S    
C64   H1    S    
C31   O31   A    
C34   C50   S    
C29   O29   A    
C116  C117  S    
O56   C96   S    
C108  H83   S    
C43   C49   T    
C85   H20   S    
C107  H81   S    
O55   C95   S    
C53   O49   S    
Cu2   O4    S    
Cu11  Cu12  S    
C120  H112  S    
C63   O59   S    
C98   H59   S    
C74   C86   S    
Cu10  O45   S    
Cu5   O25   S    
C100  H65   S    
C53   H12   S    
Cu8   O28   S    
C112  H93   S    
C55   H10   S    
C58   H15   S    
C107  C108  S    
C106  H78   S    
C28   O24   A    
C62   H3    S    
C30   O26   A    
C47   O16   A    
C53   C73   S    
C104  H73   S    
C46   O11   A    
Cu11  O37   S    
C96   H55   S    
C84   H31   S    
Cu8   O31   S    
C115  H99   S    
C117  H104  S    
C10   C74   S    
C23   C39   S    
C24   C40   S    
C102  H70   S    
C97   H57   S    
Cu2   O12   S    
C82   H27   S    
C90   H37   S    
C109  H85   S    
C37   O41   A    
C8    C80   S    
C3    O8    A    
C32   O28   A    
Cu12  O47   S    
C31   O27   A    
C32   C72   S    
C91   H40   S    
