data_mof_unit_62435.cif
_audit_creation_date              2012-12-10T17:10:48-0500
_audit_creation_method            fapswitch 2.2
_symmetry_space_group_name_H-M    P1
_symmetry_Int_Tables_number       1
_space_group_crystal_system       triclinic
_cell_length_a                    43.969734
_cell_length_b                    30.170855
_cell_length_c                    31.958572
_cell_angle_alpha                 90.000029
_cell_angle_beta                  136.653769
_cell_angle_gamma                 89.999978
_cell_volume                      29101.1054019

loop_
_atom_site_label
_atom_site_type_symbol
_atom_type_description
_atom_site_fract_x
_atom_site_fract_y
_atom_site_fract_z
_atom_type_partial_charge
C1    C     C_R   0.585591 0.999983 0.085421 0.866960
C2    C     C_R   0.414409 0.999983 0.914579 0.866962
C3    C     C_R   0.085591 0.499983 0.085421 0.866960
C4    C     C_R   0.914409 0.499983 0.914579 0.866962
C5    C     C_3   0.499933 0.999985 0.291126 0.184666
C6    C     C_3   0.500067 0.999985 0.708874 0.184667
C7    C     C_3   0.999933 0.499986 0.291126 0.184664
C8    C     C_3   0.000067 0.499986 0.708874 0.184664
C9    C     C_3   0.463427 0.020706 0.199446 -0.146804
C10   C     C_3   0.536576 0.020701 0.800557 -0.146803
C11   C     C_3   0.963415 0.520686 0.199434 -0.146800
C12   C     C_3   0.036585 0.520685 0.800566 -0.146800
C13   C     C_3   0.499624 0.041966 0.263583 -0.155521
C14   C     C_3   0.500381 0.041966 0.736422 -0.155520
C15   C     C_3   0.999601 0.541966 0.263560 -0.155514
C16   C     C_3   0.000400 0.541966 0.736440 -0.155513
C17   C     C_1   0.499926 0.999968 0.162813 -0.063582
C18   C     C_1   0.500074 0.999968 0.837187 -0.063583
C19   C     C_1   0.999926 0.499968 0.162813 -0.063581
C20   C     C_1   0.000074 0.499968 0.837187 -0.063582
C21   C     C_1   0.499943 0.999984 0.337059 -0.069806
C22   C     C_1   0.500057 0.999984 0.662941 -0.069806
C23   C     C_1   0.999943 0.499984 0.337059 -0.069802
C24   C     C_1   0.000057 0.499984 0.662941 -0.069803
C25   C     C_R   0.842774 0.024703 0.312623 -0.244090
C26   C     C_R   0.157225 0.024703 0.687377 -0.244090
C27   C     C_R   0.342774 0.524703 0.312623 -0.244093
C28   C     C_R   0.657226 0.524703 0.687377 -0.244092
C29   C     C_R   0.865779 0.000039 0.365780 -0.066446
C30   C     C_R   0.134221 0.000039 0.634220 -0.066447
C31   C     C_R   0.365779 0.500039 0.365780 -0.066446
C32   C     C_R   0.634221 0.500039 0.634220 -0.066448
C33   C     C_R   0.842596 0.975393 0.372621 -0.248457
C34   C     C_R   0.157404 0.975394 0.627378 -0.248457
C35   C     C_R   0.342596 0.475394 0.372621 -0.248445
C36   C     C_R   0.657404 0.475394 0.627378 -0.248445
C37   C     C_R   0.796296 0.974659 0.325970 0.110388
C38   C     C_R   0.203703 0.974660 0.674029 0.110388
C39   C     C_R   0.296296 0.474660 0.325970 0.110387
C40   C     C_R   0.703703 0.474661 0.674029 0.110388
C41   C     C_R   0.773109 0.000068 0.272807 0.093951
C42   C     C_R   0.226891 0.000068 0.727193 0.093950
C43   C     C_R   0.273109 0.500069 0.272807 0.093950
C44   C     C_R   0.726891 0.500069 0.727193 0.093951
C45   C     C_R   0.499957 0.999968 0.080140 0.827750
C46   C     C_R   0.500043 0.999968 0.919860 0.827748
C47   C     C_R   0.999957 0.499968 0.080140 0.827749
C48   C     C_R   0.000043 0.499968 0.919860 0.827746
C49   C     C_R   0.796491 0.025450 0.266383 0.114943
C50   C     C_R   0.203509 0.025450 0.733617 0.114944
C51   C     C_R   0.296490 0.525450 0.266383 0.114946
C52   C     C_R   0.703509 0.525450 0.733617 0.114945
C53   C     C_R   0.772800 0.948890 0.331448 -0.214642
C54   C     C_R   0.227200 0.948892 0.668551 -0.214643
C55   C     C_R   0.272800 0.448891 0.331448 -0.214638
C56   C     C_R   0.727200 0.448892 0.668551 -0.214639
C57   C     C_R   0.726557 0.948137 0.284465 -0.180871
C58   C     C_R   0.273443 0.948138 0.715533 -0.180871
C59   C     C_R   0.226557 0.448137 0.284466 -0.180869
C60   C     C_R   0.773443 0.448138 0.715533 -0.180869
C61   C     C_R   0.703212 0.973632 0.231782 0.116628
C62   C     C_R   0.296788 0.973633 0.768218 0.116629
C63   C     C_R   0.203212 0.473632 0.231782 0.116628
C64   C     C_R   0.796788 0.473633 0.768218 0.116629
C65   C     C_R   0.726517 0.000082 0.226042 -0.019268
C66   C     C_R   0.273483 0.000082 0.773958 -0.019268
C67   C     C_R   0.226517 0.500082 0.226042 -0.019267
C68   C     C_R   0.773483 0.500082 0.773958 -0.019267
C69   C     C_R   0.703299 0.026514 0.173614 -0.007358
C70   C     C_R   0.296701 0.026513 0.826387 -0.007358
C71   C     C_R   0.203299 0.526514 0.173614 -0.007357
C72   C     C_R   0.796701 0.526513 0.826387 -0.007358
C73   C     C_R   0.726978 0.051956 0.168089 -0.146954
C74   C     C_R   0.273021 0.051955 0.831913 -0.146955
C75   C     C_R   0.226978 0.551956 0.168089 -0.146953
C76   C     C_R   0.773022 0.551955 0.831913 -0.146955
C77   C     C_R   0.773214 0.051179 0.213949 -0.236100
C78   C     C_R   0.226785 0.051178 0.786053 -0.236100
C79   C     C_R   0.273214 0.551179 0.213948 -0.236101
C80   C     C_R   0.726786 0.551178 0.786053 -0.236099
C81   C     C_R   0.656948 0.973268 0.184794 -0.338474
C82   C     C_R   0.343051 0.973269 0.815205 -0.338476
C83   C     C_R   0.156948 0.473268 0.184794 -0.338473
C84   C     C_R   0.843051 0.473269 0.815205 -0.338475
C85   C     C_R   0.633886 0.000060 0.133346 -0.166962
C86   C     C_R   0.366114 0.000060 0.866654 -0.166960
C87   C     C_R   0.133886 0.500060 0.133346 -0.166962
C88   C     C_R   0.866114 0.500060 0.866654 -0.166959
C89   C     C_3   0.536429 0.979255 0.300411 -0.157960
C90   C     C_3   0.463569 0.979259 0.699587 -0.157961
C91   C     C_3   0.036440 0.479275 0.300422 -0.157962
C92   C     C_3   0.963559 0.479275 0.699577 -0.157962
C93   C     C_R   0.656887 0.026852 0.127781 0.545396
C94   C     C_R   0.343112 0.026852 0.872220 0.545397
C95   C     C_R   0.156887 0.526852 0.127781 0.545397
C96   C     C_R   0.843112 0.526852 0.872220 0.545397
C97   C     C_R   0.500000 0.914228 0.500000 0.805856
C98   C     C_R   1.000000 0.414228 0.500000 0.805858
C99   C     C_R   0.499961 0.999952 0.419783 0.821375
C100  C     C_R   0.500039 0.999952 0.580217 0.821376
C101  C     C_R   0.999961 0.499952 0.419783 0.821392
C102  C     C_R   0.000039 0.499952 0.580217 0.821392
C103  C     C_R   0.500000 0.085526 0.500000 0.805177
C104  C     C_R   0.000000 0.585526 0.500000 0.805203
C105  C     C_R   1.000000 0.085786 0.500000 0.813044
C106  C     C_R   0.500000 0.585786 0.500000 0.813045
C107  C     C_R   0.914132 0.999968 0.414166 0.814296
C108  C     C_R   0.085868 0.999968 0.585834 0.814294
C109  C     C_R   0.414132 0.499968 0.414166 0.814313
C110  C     C_R   0.585868 0.499968 0.585834 0.814311
C111  C     C_R   1.000000 0.914182 0.500000 0.812961
C112  C     C_R   0.500000 0.414181 0.500000 0.812987
C113  C     C_R   0.972550 0.157135 0.500390 -0.243233
C114  C     C_R   0.027450 0.157135 0.499610 -0.243233
C115  C     C_R   0.472550 0.657135 0.500390 -0.243234
C116  C     C_R   0.527450 0.657135 0.499610 -0.243234
C117  C     C_R   1.000000 0.134084 0.500000 -0.061582
C118  C     C_R   0.500000 0.634084 0.500000 -0.061582
C119  C     C_R   0.028223 0.203437 0.500683 0.109817
C120  C     C_R   0.971777 0.203437 0.499317 0.109817
C121  C     C_R   0.528223 0.703437 0.500683 0.109817
C122  C     C_R   0.471777 0.703437 0.499317 0.109817
C123  C     C_3   0.536120 0.021235 0.272172 -0.156749
C124  C     C_3   0.463882 0.021239 0.727831 -0.156748
C125  C     C_3   0.036109 0.521255 0.272160 -0.156747
C126  C     C_3   0.963892 0.521255 0.727840 -0.156748
C127  C     C_R   1.000000 0.226708 0.500000 0.060492
C128  C     C_R   0.500000 0.726708 0.500000 0.060492
C129  C     C_R   0.056759 0.226862 0.502589 -0.208527
C130  C     C_R   0.943241 0.226862 0.497412 -0.208526
C131  C     C_R   0.556758 0.726862 0.502588 -0.208527
C132  C     C_R   0.443242 0.726862 0.497412 -0.208527
C133  C     C_R   0.557499 0.773130 0.504031 -0.209145
C134  C     C_R   0.442501 0.773130 0.495970 -0.209145
C135  C     C_R   0.057499 0.273130 0.504031 -0.209146
C136  C     C_R   0.942501 0.273130 0.495969 -0.209146
C137  C     C_R   0.529229 0.796556 0.502643 0.109493
C138  C     C_R   0.470770 0.796556 0.497357 0.109493
C139  C     C_R   0.029229 0.296556 0.502643 0.109493
C140  C     C_R   0.970770 0.296556 0.497357 0.109493
C141  C     C_R   0.500000 0.773285 0.500000 0.060319
C142  C     C_R   1.000000 0.273285 0.500000 0.060319
C143  C     C_R   0.529542 0.842859 0.503683 -0.241924
C144  C     C_R   0.470458 0.842859 0.496318 -0.241924
C145  C     C_R   0.029542 0.342859 0.503683 -0.241924
C146  C     C_R   0.970458 0.342859 0.496318 -0.241925
C147  C     C_R   0.500000 0.865917 0.500000 -0.056998
C148  C     C_R   1.000000 0.365917 0.500000 -0.056999
C149  C     C_R   0.972541 0.842763 0.444683 -0.243396
C150  C     C_R   0.027459 0.842763 0.555317 -0.243396
C151  C     C_R   0.472614 0.342759 0.444692 -0.243386
C152  C     C_R   0.527385 0.342759 0.555307 -0.243385
C153  C     C_R   1.000000 0.865840 0.500000 -0.062106
C154  C     C_R   0.500000 0.365837 0.500000 -0.062194
C155  C     C_R   0.028234 0.796443 0.555788 0.109576
C156  C     C_R   0.971766 0.796443 0.444212 0.109576
C157  C     C_R   0.528161 0.296439 0.555781 0.109558
C158  C     C_R   0.471839 0.296439 0.444218 0.109558
C159  C     C_1   0.499936 0.999965 0.125072 -0.147612
C160  C     C_1   0.500063 0.999965 0.874928 -0.147613
C161  C     C_1   0.999936 0.499965 0.125072 -0.147611
C162  C     C_1   0.000063 0.499965 0.874928 -0.147611
C163  C     C_R   1.000000 0.773164 0.500000 0.060365
C164  C     C_R   0.500000 0.273160 0.500000 0.060379
C165  C     C_R   0.056784 0.773004 0.610978 -0.208806
C166  C     C_R   0.943216 0.773004 0.389022 -0.208807
C167  C     C_R   0.556639 0.273000 0.610969 -0.208817
C168  C     C_R   0.443361 0.273000 0.389031 -0.208817
C169  C     C_R   0.557384 0.226723 0.611012 -0.209461
C170  C     C_R   0.442615 0.226723 0.388988 -0.209461
C171  C     C_R   0.057527 0.726727 0.611017 -0.209474
C172  C     C_R   0.942473 0.726727 0.388982 -0.209474
C173  C     C_R   0.529174 0.203284 0.555840 0.109219
C174  C     C_R   0.470826 0.203284 0.444160 0.109219
C175  C     C_R   0.029244 0.703288 0.555841 0.109198
C176  C     C_R   0.970756 0.703287 0.444159 0.109198
C177  C     C_R   0.500000 0.226563 0.500000 0.060256
C178  C     C_R   1.000000 0.726566 0.500000 0.060274
C179  C     C_R   0.529492 0.156963 0.555430 -0.242076
C180  C     C_R   0.470508 0.156963 0.444570 -0.242076
C181  C     C_R   0.029560 0.656966 0.555428 -0.242069
C182  C     C_R   0.970440 0.656967 0.444572 -0.242070
C183  C     C_R   0.500000 0.133879 0.500000 -0.057249
C184  C     C_R   0.000000 0.633881 0.500000 -0.057339
C185  C     C_1   0.499953 0.999975 0.374820 -0.171096
C186  C     C_1   0.500047 0.999975 0.625180 -0.171097
C187  C     C_1   0.999953 0.499975 0.374820 -0.171093
C188  C     C_1   0.000047 0.499975 0.625180 -0.171094
C189  C     C_3   0.500232 0.957994 0.236275 -0.158297
C190  C     C_3   0.499763 0.957994 0.763720 -0.158297
C191  C     C_3   0.000255 0.457995 0.236298 -0.158302
C192  C     C_3   0.999744 0.457995 0.763701 -0.158301
C193  C     C_3   0.499923 0.999974 0.208732 0.183426
C194  C     C_3   0.500077 0.999975 0.791268 0.183425
C195  C     C_3   0.999923 0.499974 0.208732 0.183424
C196  C     C_3   0.000077 0.499974 0.791268 0.183424
C197  C     C_3   0.463735 0.978725 0.227686 -0.155920
C198  C     C_3   0.536262 0.978721 0.772311 -0.155922
C199  C     C_3   0.963747 0.478705 0.227698 -0.155922
C200  C     C_3   0.036252 0.478705 0.772301 -0.155923
Cu1   Cu    Cu3+1 0.500000 0.955510 0.000000 0.959960
Cu2   Cu    Cu3+1 0.000000 0.455510 0.000000 0.959965
Cu3   Cu    Cu3+1 0.500000 0.044420 0.000000 1.037446
Cu4   Cu    Cu3+1 0.000000 0.544420 0.000000 1.037449
Cu5   Cu    Cu3+1 0.544430 0.999860 0.544440 0.955353
Cu6   Cu    Cu3+1 0.455570 0.999860 0.455560 0.955354
Cu7   Cu    Cu3+1 0.044430 0.499860 0.544440 0.955336
Cu8   Cu    Cu3+1 0.955570 0.499860 0.455560 0.955336
Cu9   Cu    Cu3+1 1.000000 1.000000 0.541440 0.948052
Cu10  Cu    Cu3+1 1.000000 0.000000 0.458560 0.948052
Cu11  Cu    Cu3+1 0.500000 0.500000 0.541440 0.948035
Cu12  Cu    Cu3+1 0.500000 0.500000 0.458560 0.948035
H1    H     H_    0.565900 0.038722 0.290008 0.134176
H2    H     H_    0.434104 0.038730 0.709997 0.134176
H3    H     H_    0.065879 0.538758 0.289985 0.134178
H4    H     H_    0.934122 0.538759 0.710015 0.134179
H5    H     H_    0.709036 0.927809 0.289466 0.141416
H6    H     H_    0.290964 0.927811 0.710533 0.141416
H7    H     H_    0.209036 0.427810 0.289466 0.141417
H8    H     H_    0.790964 0.427812 0.710532 0.141417
H9    H     H_    0.638757 0.952906 0.188674 0.165625
H10   H     H_    0.361243 0.952907 0.811325 0.165624
H11   H     H_    0.138757 0.452906 0.188674 0.165625
H12   H     H_    0.861243 0.452907 0.811325 0.165625
H13   H     H_    0.709842 0.072338 0.128213 0.198466
H14   H     H_    0.290158 0.072336 0.871789 0.198466
H15   H     H_    0.209842 0.572338 0.128213 0.198466
H16   H     H_    0.790158 0.572336 0.871789 0.198466
H17   H     H_    0.790785 0.070897 0.208552 0.149140
H18   H     H_    0.209215 0.070895 0.791450 0.149140
H19   H     H_    0.290785 0.570897 0.208552 0.149141
H20   H     H_    0.709215 0.570895 0.791450 0.149140
H21   H     H_    0.951181 0.138948 0.500224 0.145354
H22   H     H_    0.048819 0.138948 0.499776 0.145353
H23   H     H_    0.451182 0.638948 0.500224 0.145353
H24   H     H_    0.548818 0.638948 0.499776 0.145353
H25   H     H_    0.078673 0.209390 0.503319 0.146091
H26   H     H_    0.921327 0.209390 0.496681 0.146091
H27   H     H_    0.578673 0.709390 0.503319 0.146091
H28   H     H_    0.421327 0.709390 0.496682 0.146091
H29   H     H_    0.579986 0.790602 0.505874 0.145172
H30   H     H_    0.420014 0.790602 0.494127 0.145172
H31   H     H_    0.079986 0.290602 0.505874 0.145172
H32   H     H_    0.920014 0.290602 0.494126 0.145172
H33   H     H_    0.552043 0.861039 0.506050 0.144288
H34   H     H_    0.447957 0.861039 0.493950 0.144288
H35   H     H_    0.052043 0.361039 0.506050 0.144288
H36   H     H_    0.947957 0.361039 0.493950 0.144288
H37   H     H_    0.951163 0.860944 0.402086 0.145473
H38   H     H_    0.048836 0.860944 0.597914 0.145474
H39   H     H_    0.451292 0.360938 0.402100 0.145546
H40   H     H_    0.548708 0.360938 0.597900 0.145546
H41   H     H_    0.566462 0.962201 0.342414 0.132893
H42   H     H_    0.433533 0.962209 0.657581 0.132894
H43   H     H_    0.066483 0.462238 0.342435 0.132895
H44   H     H_    0.933517 0.462239 0.657565 0.132894
H45   H     H_    0.078711 0.790473 0.654103 0.146505
H46   H     H_    0.921288 0.790473 0.345897 0.146505
H47   H     H_    0.578510 0.290469 0.654090 0.146500
H48   H     H_    0.421490 0.290469 0.345910 0.146500
H49   H     H_    0.579831 0.209255 0.654166 0.145722
H50   H     H_    0.420169 0.209255 0.345834 0.145722
H51   H     H_    0.080029 0.709259 0.654173 0.145724
H52   H     H_    0.919971 0.709259 0.345826 0.145724
H53   H     H_    0.551959 0.138788 0.598091 0.144489
H54   H     H_    0.448041 0.138788 0.401908 0.144489
H55   H     H_    0.052080 0.638793 0.598091 0.144569
H56   H     H_    0.947920 0.638793 0.401908 0.144569
H57   H     H_    0.499373 0.076512 0.275285 0.134470
H58   H     H_    0.500636 0.076512 0.724724 0.134470
H59   H     H_    0.999332 0.576512 0.275243 0.134478
H60   H     H_    0.000670 0.576512 0.724758 0.134477
H61   H     H_    0.433393 0.037757 0.157440 0.142205
H62   H     H_    0.566611 0.037749 0.842565 0.142205
H63   H     H_    0.933372 0.537721 0.157419 0.142206
H64   H     H_    0.066628 0.537719 0.842581 0.142206
H65   H     H_    0.433956 0.961237 0.209850 0.136031
H66   H     H_    0.566039 0.961229 0.790145 0.136032
H67   H     H_    0.933978 0.461201 0.209873 0.136030
H68   H     H_    0.066022 0.461199 0.790127 0.136031
H69   H     H_    0.500482 0.923448 0.224575 0.134562
H70   H     H_    0.499508 0.923448 0.775416 0.134562
H71   H     H_    0.000524 0.423449 0.224616 0.134562
H72   H     H_    0.999475 0.423449 0.775382 0.134562
H73   H     H_    0.860975 0.043955 0.307894 0.149439
H74   H     H_    0.139025 0.043954 0.692107 0.149439
H75   H     H_    0.360975 0.543955 0.307894 0.149438
H76   H     H_    0.639025 0.543954 0.692107 0.149438
H77   H     H_    0.860660 0.956111 0.413706 0.148970
H78   H     H_    0.139340 0.956113 0.586293 0.148970
H79   H     H_    0.360660 0.456112 0.413706 0.148969
H80   H     H_    0.639340 0.456113 0.586293 0.148970
H81   H     H_    0.790196 0.929143 0.371923 0.144233
H82   H     H_    0.209804 0.929145 0.628075 0.144233
H83   H     H_    0.290196 0.429144 0.371923 0.144233
H84   H     H_    0.709804 0.429146 0.628075 0.144233
O1    O     O_R   0.564870 0.962420 0.064890 -0.598414
O2    O     O_R   0.435130 0.962420 0.935110 -0.598414
O3    O     O_R   0.064870 0.462420 0.064890 -0.598413
O4    O     O_R   0.935130 0.462420 0.935110 -0.598413
O5    O     O_R   0.935130 0.999970 0.470150 -0.587904
O6    O     O_R   0.064870 0.999970 0.529850 -0.587903
O7    O     O_R   0.435130 0.499970 0.470150 -0.587905
O8    O     O_R   0.564870 0.499970 0.529850 -0.587904
O9    O     O_R   0.935060 0.999990 0.400100 -0.587961
O10   O     O_R   0.064940 0.999990 0.599900 -0.587960
O11   O     O_R   0.435060 0.499990 0.400100 -0.587960
O12   O     O_R   0.564940 0.499990 0.599900 -0.587958
O13   O     O_R   0.000080 0.935140 0.535060 -0.586761
O14   O     O_R   0.999920 0.935140 0.464940 -0.586761
O15   O     O_R   0.500080 0.435140 0.535060 -0.586786
O16   O     O_R   0.499920 0.435140 0.464940 -0.586786
O17   O     O_R   0.564810 0.037500 0.064830 -0.544072
O18   O     O_R   0.435190 0.037500 0.935170 -0.544074
O19   O     O_R   0.064810 0.537500 0.064830 -0.544072
O20   O     O_R   0.935190 0.537500 0.935170 -0.544074
O21   O     O_R   0.500000 0.962430 0.060460 -0.590415
O22   O     O_R   0.500000 0.962430 0.939540 -0.590415
O23   O     O_R   0.000000 0.462430 0.060460 -0.590414
O24   O     O_R   0.000000 0.462430 0.939540 -0.590414
O25   O     O_R   0.499940 0.037510 0.060410 -0.568173
O26   O     O_R   0.500060 0.037510 0.939590 -0.568173
O27   O     O_R   0.999940 0.537510 0.060410 -0.568172
O28   O     O_R   0.000060 0.537510 0.939590 -0.568172
O29   O     O_R   0.537500 0.935010 0.537500 -0.585536
O30   O     O_R   0.462500 0.935010 0.462500 -0.585536
O31   O     O_R   0.037500 0.435010 0.537500 -0.585536
O32   O     O_R   0.962500 0.435010 0.462500 -0.585536
O33   O     O_R   0.537510 0.999880 0.477060 -0.580788
O34   O     O_R   0.462490 0.999880 0.522940 -0.580787
O35   O     O_R   0.037510 0.499880 0.477060 -0.580787
O36   O     O_R   0.962490 0.499880 0.522940 -0.580787
O37   O     O_R   0.462420 0.999960 0.401940 -0.580326
O38   O     O_R   0.537580 0.999960 0.598060 -0.580326
O39   O     O_R   0.962420 0.499960 0.401940 -0.580326
O40   O     O_R   0.037580 0.499960 0.598060 -0.580326
O41   O     O_R   0.537530 0.064730 0.537550 -0.585193
O42   O     O_R   0.462470 0.064730 0.462450 -0.585192
O43   O     O_R   0.037530 0.564730 0.537550 -0.585220
O44   O     O_R   0.962470 0.564730 0.462450 -0.585219
O45   O     O_R   0.999920 0.064860 0.534930 -0.586974
O46   O     O_R   0.000080 0.064860 0.465070 -0.586974
O47   O     O_R   0.499920 0.564860 0.534930 -0.586974
O48   O     O_R   0.500080 0.564860 0.465070 -0.586974
F1    F     F_    0.634022 0.052170 0.077088 -0.672949
F2    F     F_    0.365978 0.052168 0.922913 -0.672950
F3    F     F_    0.134022 0.552170 0.077088 -0.672949
F4    F     F_    0.865978 0.552168 0.922913 -0.672949

loop_
_geom_bond_atom_site_label_1
_geom_bond_atom_site_label_2
_ccdc_geom_bond_type
C133  C137  A    
C55   C59   A    
C76   H16   S    
C106  O48   A    
C136  C140  A    
C4    O20   A    
Cu11  O15   S    
C114  H22   S    
C99   O33   A    
C176  C182  A    
C103  C183  S    
C11   C195  S    
Cu9   O10   S    
C69   C93   A    
C26   C50   A    
C139  C142  A    
C9    C193  S    
C71   C95   A    
C173  C179  A    
C29   C33   A    
C135  H31   S    
C149  C153  A    
C64   C84   A    
C11   C15   S    
C12   C16   S    
C27   C51   A    
Cu5   O33   S    
C70   C74   A    
C2    O18   A    
C8    C92   S    
C5    C13   S    
C83   H11   S    
C7    C15   S    
C108  O10   A    
C8    C16   S    
C106  C118  S    
C12   C196  S    
Cu3   O17   S    
C167  H47   S    
C45   O21   A    
C25   C29   A    
C116  C121  A    
C27   C31   A    
C151  C158  A    
C28   C32   A    
C121  C128  A    
C62   C66   A    
Cu1   O2    S    
C91   C191  S    
C172  H52   S    
Cu7   O43   S    
C37   C53   A    
C48   C162  S    
C113  C120  A    
C98   O32   A    
C68   C72   A    
C115  C118  A    
C46   C160  S    
C163  C178  A    
C169  H49   S    
C171  H51   S    
C174  C177  A    
C3    O3    A    
Cu2   Cu4   S    
Cu3   O25   S    
C46   O26   A    
C47   O23   A    
C48   O24   A    
C166  H46   S    
C99   C185  S    
C145  C148  A    
C170  C174  A    
C189  C197  S    
C152  C157  A    
C91   C125  S    
C129  H25   S    
C59   C63   A    
C84   C88   A    
C138  C141  A    
C97   O29   A    
C180  H54   S    
C57   C61   A    
C82   H10   S    
Cu6   O30   S    
C77   H17   S    
Cu1   O22   S    
C60   C64   A    
C60   H8    S    
C125  H3    S    
C66   C70   A    
C91   H43   S    
C155  C165  A    
C75   H15   S    
C116  C118  A    
C192  C200  S    
C104  O44   A    
C72   C96   A    
C61   C65   A    
C5    C21   S    
C132  C134  A    
C15   C125  S    
C124  C194  S    
C73   C77   A    
C105  O46   A    
C4    O4    A    
C75   C79   A    
C5    C89   S    
Cu12  O48   S    
Cu9   O5    S    
C165  C171  A    
C95   F3    S    
C166  C172  A    
C18   C194  S    
C40   C56   A    
C30   C34   A    
C120  C127  A    
C167  C169  A    
C48   O28   A    
Cu2   O3    S    
C57   H5    S    
C64   C68   A    
C103  O42   A    
C9    H61   S    
C125  C195  S    
C97   C147  S    
C9    C13   S    
C107  O5    A    
C129  C135  A    
C85   C93   A    
C111  O14   A    
C35   H79   S    
C165  H45   S    
C87   C95   A    
Cu10  O14   S    
C114  C119  A    
Cu4   O20   S    
C55   H83   S    
C175  C181  A    
C197  H65   S    
C56   H84   S    
C176  C178  A    
C90   H42   S    
C112  C154  S    
Cu5   O38   S    
Cu1   Cu3   S    
C80   H20   S    
C144  C147  A    
C9    C197  S    
C150  H38   S    
C11   C199  S    
C39   C55   A    
C14   C124  S    
C145  H35   S    
Cu2   O23   S    
C10   C14   S    
C5    C197  S    
C155  C163  A    
C6    C90   S    
Cu5   O29   S    
C3    O19   A    
C22   C186  T    
Cu4   O27   S    
C13   H57   S    
C6    C14   S    
C20   C162  T    
Cu9   Cu10  S    
C12   C200  S    
C122  C132  A    
C111  C153  S    
C157  C164  A    
C126  H4    S    
C42   C50   A    
C113  C117  A    
C54   H82   S    
C26   C30   A    
C112  O15   A    
C150  C155  A    
C8    C200  S    
C174  C180  A    
C152  H40   S    
C90   C190  S    
C100  O38   A    
C89   C189  S    
C102  O40   A    
C76   C80   A    
C4    C88   S    
C109  O11   A    
Cu5   O41   S    
C170  H50   S    
C132  H28   S    
C74   H14   S    
C61   C81   A    
C23   C187  T    
C58   H6    S    
C7    C23   S    
C47   O27   A    
C119  C129  A    
C49   C77   A    
C25   H73   S    
C17   C159  T    
C191  C195  S    
C114  C117  A    
C18   C160  T    
C27   H75   S    
C189  C193  S    
C40   C44   A    
C43   C67   A    
C169  C173  A    
C29   C107  S    
C101  C187  S    
C81   C85   A    
C172  C176  A    
C119  C127  A    
C58   C62   A    
C83   C87   A    
C88   C96   A    
C45   C159  S    
C157  C167  A    
C115  H23   S    
C158  C168  A    
C113  H21   S    
C32   C110  S    
C192  C196  S    
C1    O1    A    
C70   C94   A    
C140  C142  A    
C144  H34   S    
C10   C194  S    
C101  O35   A    
C13   C123  S    
C139  C145  A    
Cu1   O1    S    
C6    C22   S    
C146  H36   S    
C19   C161  T    
C41   C49   A    
C134  H30   S    
C143  H33   S    
C199  H67   S    
Cu6   O34   S    
C156  C163  A    
C200  H68   S    
C150  C153  A    
C189  H69   S    
Cu11  O47   S    
C69   C73   A    
C128  C141  A    
C168  C170  A    
C62   C82   A    
C96   F4    S    
C106  O47   A    
C105  C117  S    
C10   H62   S    
C50   C78   A    
Cu10  O9    S    
C16   H60   S    
C175  C178  A    
C146  C148  A    
C149  H37   S    
Cu7   O31   S    
Cu7   Cu8   S    
C179  C183  A    
Cu12  O16   S    
C84   H12   S    
C140  C146  A    
C53   C57   A    
C151  H39   S    
C101  O39   A    
C82   C86   A    
Cu1   O21   S    
C56   C60   A    
C63   C83   A    
C35   C39   A    
Cu11  O7    S    
Cu11  Cu12  S    
C38   C54   A    
C7    C91   S    
C116  H24   S    
C31   C109  S    
Cu2   O24   S    
C46   O22   A    
C92   H44   S    
C104  C184  S    
C123  H1    S    
C31   C35   A    
Cu3   O18   S    
C105  O45   A    
C32   C36   A    
C190  C198  S    
C33   C37   A    
C181  C184  A    
C137  C141  A    
C30   C108  S    
Cu10  O46   S    
C90   C124  S    
C92   C126  S    
C33   H77   S    
C14   H58   S    
C21   C185  T    
C110  O12   A    
C78   H18   S    
C81   H9    S    
C135  C139  A    
Cu2   O4    S    
C24   C188  T    
C103  O41   A    
C168  H48   S    
C43   C51   A    
Cu8   O36   S    
C98   C148  S    
C98   O31   A    
C99   O37   A    
C65   C69   A    
C67   C71   A    
C122  C128  A    
C25   C49   A    
C47   C161  S    
Cu3   O26   S    
C111  O13   A    
C39   C43   A    
C74   C78   A    
C102  O36   A    
C123  C193  S    
C138  C144  A    
C52   C80   A    
C16   C126  S    
C97   O30   A    
C92   C192  S    
C73   H13   S    
C109  O7    A    
C19   C195  S    
C110  O8    A    
C17   C193  S    
Cu9   O13   S    
C72   C76   A    
C12   H64   S    
C124  H2    S    
Cu5   Cu6   S    
C107  O9    A    
C143  C147  A    
C2    O2    A    
C120  C130  A    
C149  C156  A    
C191  C199  S    
C26   H74   S    
C45   O25   A    
Cu7   O40   S    
Cu8   O32   S    
C151  C154  A    
C86   C94   A    
C104  O43   A    
C8    C24   S    
C181  H55   S    
C182  H56   S    
C131  H27   S    
C198  H66   S    
C156  C166  A    
Cu4   O28   S    
C192  H72   S    
C180  C183  A    
C158  C164  A    
C133  H29   S    
C137  C143  A    
Cu6   O37   S    
C112  O16   A    
C115  C122  A    
C89   H41   S    
C37   C41   A    
C121  C131  A    
C15   H59   S    
C10   C198  S    
C53   H81   S    
C51   C79   A    
C1    C85   S    
C63   C67   A    
C136  H32   S    
C3    C87   S    
C36   C40   A    
C93   F1    S    
C6    C198  S    
C41   C65   A    
C89   C123  S    
C171  C175  A    
C102  C188  S    
C190  H70   S    
C127  C142  A    
Cu12  O11   S    
C100  C186  S    
C126  C196  S    
C173  C177  A    
C79   H19   S    
C11   H63   S    
Cu4   O19   S    
Cu11  O12   S    
C179  H53   S    
C152  C154  A    
C1    O17   A    
Cu7   O35   S    
C100  O34   A    
C44   C68   A    
C54   C58   A    
C36   H80   S    
C130  H26   S    
C182  C184  A    
C34   C38   A    
C130  C136  A    
Cu10  O6    S    
C131  C133  A    
C134  C138  A    
Cu6   O42   S    
Cu8   O44   S    
C191  H71   S    
C59   H7    S    
C71   C75   A    
C28   C52   A    
C44   C52   A    
Cu9   O45   S    
C2    C86   S    
C7    C199  S    
C190  C194  S    
C28   H76   S    
C38   C42   A    
C94   F2    S    
Cu8   O39   S    
C42   C66   A    
Cu12  O8    S    
C20   C196  S    
C164  C177  A    
C34   H78   S    
C108  O6    A    
