data_mof_unit_60002.cif
_audit_creation_date              2012-10-26T17:33:47-0400
_audit_creation_method            fapswitch 2.2
_symmetry_space_group_name_H-M    P1
_symmetry_Int_Tables_number       1
_space_group_crystal_system       triclinic
_cell_length_a                    18.85273
_cell_length_b                    19.18008
_cell_length_c                    19.012682
_cell_angle_alpha                 110.284102
_cell_angle_beta                  109.216584
_cell_angle_gamma                 109.572119
_cell_volume                      5248.47407118

loop_
_atom_site_label
_atom_site_type_symbol
_atom_type_description
_atom_site_fract_x
_atom_site_fract_y
_atom_site_fract_z
_atom_type_partial_charge
C1    C     C_R   0.381756 0.384561 0.501343 0.549441
C2    C     C_2   0.312199 0.322896 0.502505 -0.113448
C3    C     C_2   0.492604 0.175095 0.248165 -0.158559
C4    C     C_R   0.498387 0.616031 0.618470 0.543799
C5    C     C_2   0.507629 0.184182 0.186834 -0.114252
C6    C     C_2   0.504861 0.248349 0.321369 -0.154128
C7    C     C_2   0.489456 0.308609 0.311369 -0.119360
C8    C     C_2   0.753617 0.738187 0.424511 -0.174836
C9    C     C_2   0.804239 0.819979 0.492799 -0.039494
C10   C     C_2   0.678209 0.671699 0.417103 -0.049970
C11   C     C_2   0.687479 0.666107 0.488143 -0.106715
C12   C     C_R   0.495387 0.671452 0.757087 0.027521
C13   C     C_R   0.381758 0.994942 0.878109 0.561046
C14   C     C_R   0.502985 0.878941 0.881584 0.541696
C15   C     C_R   0.618329 0.999081 0.115754 0.548932
C16   C     C_R   0.617820 0.611368 0.495016 0.555795
C17   C     C_R   0.501880 0.115294 0.116734 0.559053
C18   C     C_R   0.880789 0.998383 0.382579 0.556961
C19   C     C_R   0.119324 0.117186 0.501457 0.557951
C20   C     C_R   0.119259 0.001604 0.617371 0.555882
C21   C     C_R   0.879652 0.882827 0.497944 0.549136
C22   C     C_2   0.250018 0.991796 0.675294 -0.157624
C23   C     C_R   0.497100 0.679776 0.686406 0.006586
C24   C     C_2   0.189521 0.008201 0.686258 -0.115892
C25   C     C_2   0.322829 0.003224 0.747646 -0.159274
C26   C     C_2   0.312148 0.987756 0.808033 -0.114221
C27   C     C_2   0.750037 0.008069 0.322729 -0.161087
C28   C     C_R   0.497249 0.379667 0.381128 0.547030
C29   C     C_2   0.811007 0.991694 0.313164 -0.115041
C30   C     C_2   0.677259 0.994968 0.248840 -0.161014
C31   C     C_2   0.687820 0.007494 0.186996 -0.115707
C32   C     C_R   0.483968 0.595996 0.760191 -0.100043
C33   C     C_R   0.487571 0.591448 0.832769 -0.122527
C34   C     C_R   0.502778 0.752709 0.682513 -0.152781
C35   C     C_R   0.502633 0.661543 0.903388 -0.121420
C36   C     C_R   0.510931 0.735366 0.900517 -0.100291
C37   C     C_R   0.503992 0.740181 0.826114 0.026802
C38   C     C_R   0.780164 0.853207 0.559512 0.039738
C39   C     C_R   0.838492 0.888848 0.647673 -0.083401
C40   C     C_R   0.815295 0.917925 0.710070 -0.109983
C41   C     C_R   0.734091 0.912188 0.685078 -0.101938
C42   C     C_R   0.676221 0.878064 0.597720 -0.110807
C43   C     C_R   0.699218 0.849139 0.535131 -0.079933
C44   C     C_R   0.598063 0.611132 0.330538 0.060315
C45   C     C_R   0.507176 0.818109 0.748044 -0.156523
C46   C     C_R   0.560078 0.643246 0.282716 -0.091528
C47   C     C_R   0.485712 0.586561 0.200277 -0.117662
C48   C     C_R   0.449315 0.497521 0.164574 -0.106653
C49   C     C_R   0.487490 0.465008 0.211061 -0.100183
C50   C     C_R   0.561811 0.521455 0.293558 -0.054625
C51   C     C_R   0.506668 0.812141 0.819073 0.003716
C52   C     C_2   0.250074 0.258365 0.574094 -0.157005
C53   C     C_2   0.189508 0.180947 0.502813 -0.113974
C54   C     C_2   0.322916 0.319342 0.574203 -0.160881
Cu1   Cu    Cu3+1 0.561020 0.499620 0.560640 0.929591
Cu2   Cu    Cu3+1 0.438980 0.500380 0.439360 0.945032
Cu3   Cu    Cu3+1 0.561070 0.057880 0.996780 0.932635
Cu4   Cu    Cu3+1 0.439050 0.935860 0.996810 0.926871
Cu5   Cu    Cu3+1 0.000000 0.061410 0.561410 0.938276
Cu6   Cu    Cu3+1 0.000000 0.938590 0.438590 0.933095
H1    H     H_    0.504613 0.759408 0.628714 0.127593
H2    H     H_    0.471085 0.539489 0.706566 0.130741
H3    H     H_    0.195715 0.034538 0.749996 0.104993
H4    H     H_    0.384267 0.019968 0.748480 0.143400
H5    H     H_    0.248225 0.961892 0.801977 0.107069
H6    H     H_    0.750375 0.026165 0.383726 0.144675
H7    H     H_    0.805275 0.964481 0.249694 0.107098
H8    H     H_    0.615817 0.979218 0.247824 0.142192
H9    H     H_    0.751704 0.032618 0.192920 0.108758
H10   H     H_    0.479398 0.533550 0.834495 0.108953
H11   H     H_    0.507325 0.658518 0.960446 0.112065
H12   H     H_    0.248191 0.284451 0.444503 0.109559
H13   H     H_    0.524131 0.788635 0.957630 0.139899
H14   H     H_    0.509472 0.873105 0.742514 0.126678
H15   H     H_    0.249267 0.275350 0.634481 0.144678
H16   H     H_    0.195672 0.160287 0.445304 0.107614
H17   H     H_    0.384436 0.364568 0.634907 0.134808
H18   H     H_    0.901253 0.892845 0.667759 0.106815
H19   H     H_    0.860155 0.944593 0.777789 0.109993
H20   H     H_    0.716075 0.934344 0.733408 0.112936
H21   H     H_    0.613483 0.873941 0.578486 0.103695
H22   H     H_    0.653822 0.823011 0.467717 0.104573
H23   H     H_    0.476393 0.114973 0.247789 0.142694
H24   H     H_    0.587735 0.712081 0.309379 0.100105
H25   H     H_    0.456424 0.611682 0.163970 0.106592
H26   H     H_    0.391839 0.453733 0.100688 0.108856
H27   H     H_    0.459727 0.396053 0.182928 0.100377
H28   H     H_    0.591510 0.495366 0.328255 0.098961
H29   H     H_    0.533133 0.246913 0.192432 0.104545
H30   H     H_    0.522396 0.250158 0.382680 0.147082
H31   H     H_    0.462738 0.301692 0.247715 0.096170
H32   H     H_    0.766665 0.719401 0.371397 0.144584
H33   H     H_    0.751942 0.703323 0.545428 0.110086
H34   H     H_    0.249091 0.974527 0.614077 0.146048
O1    O     O_R   0.462500 0.410660 0.551220 -0.512756
O2    O     O_R   0.910970 0.948690 0.359670 -0.509888
O3    O     O_R   0.089030 0.140870 0.551850 -0.501618
O4    O     O_R   0.359440 0.411300 0.448810 -0.505725
O5    O     O_R   0.089030 0.037160 0.448130 -0.509390
O6    O     O_R   0.089030 0.051310 0.640330 -0.511836
O7    O     O_R   0.089030 0.947590 0.536610 -0.501318
O8    O     O_R   0.910970 0.962840 0.551870 -0.503301
O9    O     O_R   0.910970 0.859130 0.448150 -0.511076
O10   O     O_R   0.551530 0.589280 0.640810 -0.513795
O11   O     O_R   0.448470 0.589920 0.538390 -0.507772
O12   O     O_R   0.359500 0.945890 0.908340 -0.502448
O13   O     O_R   0.640560 0.588700 0.551190 -0.507769
O14   O     O_R   0.537500 0.589340 0.448780 -0.491706
O15   O     O_R   0.551530 0.410080 0.461610 -0.503726
O16   O     O_R   0.448470 0.410720 0.359190 -0.510900
O17   O     O_R   0.462540 0.048930 0.908310 -0.504383
O18   O     O_R   0.551580 0.958790 0.907180 -0.513316
O19   O     O_R   0.448540 0.855750 0.907210 -0.513052
O20   O     O_R   0.640630 0.047850 0.085250 -0.505114
O21   O     O_R   0.537580 0.944800 0.085280 -0.517199
O22   O     O_R   0.551590 0.137990 0.086380 -0.505634
O23   O     O_R   0.448540 0.034950 0.086410 -0.504125
O24   O     O_R   0.910970 0.052410 0.463390 -0.501162

loop_
_geom_bond_atom_site_label_1
_geom_bond_atom_site_label_2
_ccdc_geom_bond_type
Cu1   Cu2   S    
C27   C29   D    
C18   O2    A    
C41   C42   A    
C49   H27   S    
C35   C36   A    
Cu2   O4    S    
Cu6   O5    S    
C41   H20   S    
C19   O3    A    
C14   O18   A    
C12   C23   A    
C47   H25   S    
C36   C37   A    
C30   C31   D    
C37   C51   A    
Cu3   O18   S    
C5    C17   S    
C45   C51   A    
C15   O21   A    
C1    C2    S    
C12   C37   A    
Cu2   O14   S    
C16   O13   A    
C29   H7    S    
C47   C48   A    
C44   C46   A    
C8    C9    D    
C22   C25   S    
Cu4   O19   S    
C8    H32   S    
C26   H5    S    
Cu6   O9    S    
C18   O24   A    
C17   O23   A    
C54   H17   S    
C19   C53   S    
C35   H11   S    
Cu5   Cu6   S    
C12   C32   A    
C27   C30   S    
Cu5   O6    S    
C22   H34   S    
C42   H21   S    
C2    H12   S    
Cu2   O16   S    
C52   C54   S    
Cu3   O22   S    
C38   C39   A    
C15   O20   A    
C10   C44   S    
C39   H18   S    
C20   C24   S    
Cu1   O1    S    
C2    C54   D    
C39   C40   A    
C18   C29   S    
C4    C23   S    
C19   O5    A    
C20   O7    A    
C28   O16   A    
C25   C26   D    
C6    H30   S    
Cu1   O10   S    
C34   H1    S    
C7    C28   S    
Cu1   O13   S    
C45   H14   S    
Cu4   O12   S    
C25   H4    S    
C11   C16   S    
C14   C51   S    
C20   O6    A    
C1    O1    A    
C23   C34   A    
C7    H31   S    
C40   H19   S    
C34   C45   A    
C6    C7    D    
C33   H10   S    
C46   H24   S    
C21   O8    A    
Cu6   O2    S    
C48   C49   A    
C24   H3    S    
C3    H23   S    
Cu4   O21   S    
Cu5   O3    S    
C22   C24   D    
C13   C26   S    
C53   H16   S    
C42   C43   A    
Cu6   O7    S    
C52   C53   D    
C44   C50   A    
C46   C47   A    
C40   C41   A    
Cu5   O8    S    
C13   O12   A    
C3    C5    D    
C1    O4    A    
C15   C31   S    
Cu3   O20   S    
C50   H28   S    
C28   O15   A    
Cu5   O24   S    
C14   O19   A    
C4    O11   A    
C32   C33   A    
C32   H2    S    
C38   C43   A    
C13   O17   A    
C27   H6    S    
C9    C21   S    
Cu3   Cu4   S    
Cu3   O17   S    
C4    O10   A    
C9    C38   S    
C33   C35   A    
C48   H26   S    
Cu4   O23   S    
C5    H29   S    
Cu2   O11   S    
C10   C11   D    
C16   O14   A    
C52   H15   S    
C21   O9    A    
C31   H9    S    
C8    C10   S    
C49   C50   A    
C3    C6    S    
C43   H22   S    
Cu1   O15   S    
C11   H33   S    
C36   H13   S    
C30   H8    S    
C17   O22   A    
