data_mof_unit_10375.cif
_audit_creation_date              2013-03-05T16:34:20-0500
_audit_creation_method            fapswitch 2.2
_symmetry_space_group_name_H-M    P1
_symmetry_Int_Tables_number       1
_space_group_crystal_system       triclinic
_cell_length_a                    18.799768
_cell_length_b                    18.656847
_cell_length_c                    19.02084
_cell_angle_alpha                 109.473349
_cell_angle_beta                  109.868272
_cell_angle_gamma                 109.131707
_cell_volume                      5131.74243977

loop_
_atom_site_label
_atom_site_type_symbol
_atom_site_description
_atom_site_fract_x
_atom_site_fract_y
_atom_site_fract_z
_atom_type_partial_charge
O1    O     O_R   0.409800 0.552180 0.462000 -0.566986
O2    O     O_R   0.409830 0.447810 0.357640 -0.578235
C1    C     C_R   0.382493 0.501937 0.381713 0.776683
O3    O     O_R   0.590160 0.642370 0.552180 -0.557727
O4    O     O_R   0.590190 0.537990 0.447820 -0.580518
C2    C     C_R   0.621064 0.619691 0.502982 0.751113
Cu1   Cu    Cu3+1 0.499980 0.561800 0.561790 1.098660
Cu2   Cu    Cu3+1 0.500020 0.438200 0.438210 1.023642
O5    O     O_R   0.590170 0.552190 0.642360 -0.549721
O6    O     O_R   0.590200 0.447820 0.538000 -0.580179
O7    O     O_R   0.409810 0.462010 0.552180 -0.566743
O8    O     O_R   0.409840 0.357630 0.447820 -0.587185
C3    C     C_R   0.617803 0.498765 0.618225 0.765909
C4    C     C_R   0.379000 0.381128 0.497491 0.801289
H1    H     H_    0.818062 0.816442 0.897070 0.201922
C5    C     C_R   0.733006 0.809358 0.781801 0.309492
C6    C     C_R   0.719512 0.802133 0.701106 0.344564
C7    C     C_R   0.774075 0.783845 0.670390 -0.060429
C8    C     C_R   0.848993 0.788855 0.726768 -0.210210
H2    H     H_    0.896497 0.784637 0.708520 0.183972
C9    C     C_R   0.864784 0.801513 0.807948 -0.148133
H3    H     H_    0.923353 0.806234 0.850437 0.166656
C10   C     C_R   0.805752 0.808645 0.834338 -0.133088
C11   C     C_R   0.822270 0.825352 0.577461 -0.105999
H4    H     H_    0.878098 0.883412 0.636459 0.194576
C12   C     C_R   0.813690 0.812609 0.497678 -0.071611
C13   C     C_R   0.740013 0.738839 0.420063 0.057197
C14   C     C_R   0.678815 0.677109 0.425072 -0.202253
H5    H     H_    0.623085 0.619165 0.365924 0.163700
C15   C     C_R   0.687645 0.689030 0.504732 -0.089534
C16   C     C_R   0.758852 0.765942 0.582521 0.058578
C17   C     C_R   0.643598 0.707649 0.272703 -0.200018
H6    H     H_    0.594775 0.707113 0.290777 0.210550
C18   C     C_R   0.626710 0.694985 0.190423 0.271722
C19   C     C_R   0.690867 0.696014 0.167247 0.285206
C20   C     C_R   0.770033 0.710060 0.226884 -0.201306
H7    H     H_    0.818574 0.708857 0.208944 0.207379
C21   C     C_R   0.786315 0.723578 0.308842 -0.197241
H8    H     H_    0.847478 0.733392 0.353394 0.131329
C22   C     C_R   0.723788 0.723891 0.332943 0.063882
H9    H     H_    0.531419 0.915112 0.572102 0.166913
C23   C     C_R   0.421218 0.792837 0.526014 -0.056721
H10   H     H_    0.407793 0.820225 0.576557 0.180622
C24   C     C_R   0.367665 0.704385 0.462921 -0.133923
H11   H     H_    0.311644 0.664497 0.463801 0.123148
C25   C     C_R   0.384012 0.668518 0.396728 0.076998
C26   C     C_R   0.454975 0.721971 0.394460 -0.129605
H12   H     H_    0.466005 0.694560 0.341867 0.171450
C27   C     C_R   0.508818 0.811388 0.457656 0.010473
C28   C     C_R   0.491046 0.846369 0.523084 -0.078401
C29   C     C_R   0.253037 0.576217 0.253867 -0.219117
H13   H     H_    0.254640 0.636361 0.258418 0.157523
C30   C     C_R   0.185323 0.495619 0.181730 -0.052563
C31   C     C_R   0.181112 0.416620 0.176273 0.067801
C32   C     C_R   0.247153 0.421530 0.243347 -0.210447
H14   H     H_    0.245855 0.361631 0.239142 0.152334
C33   C     C_R   0.315061 0.502379 0.315568 -0.075619
C34   C     C_R   0.317322 0.580631 0.321634 -0.002148
C35   C     C_R   0.068087 0.260427 0.112059 -0.157228
H15   H     H_    0.080351 0.272356 0.175819 0.187155
C36   C     C_R   0.008362 0.175830 0.041621 -0.176306
H16   H     H_    0.974871 0.124907 0.052581 0.195132
C37   C     C_R   0.993833 0.156826 0.958416 0.380848
C38   C     C_R   0.039736 0.224432 0.947257 -0.214642
H17   H     H_    0.031171 0.211019 0.884278 0.176215
C39   C     C_R   0.097786 0.309541 0.017471 -0.171085
H18   H     H_    0.133103 0.360441 0.007828 0.158405
C40   C     C_R   0.112646 0.328457 0.100500 0.114237
H19   H     H_    0.199357 0.596869 0.499250 0.120775
C41   C     C_R   0.259257 0.547006 0.573086 -0.099777
H20   H     H_    0.291965 0.606958 0.633955 0.161139
C42   C     C_R   0.268795 0.475484 0.571346 -0.057737
H21   H     H_    0.310057 0.481184 0.630777 0.139414
C43   C     C_R   0.227354 0.397628 0.493009 0.089731
C44   C     C_R   0.175949 0.392231 0.415693 -0.078127
H22   H     H_    0.143878 0.332150 0.354991 0.157332
C45   C     C_R   0.165012 0.463940 0.417357 0.052576
C46   C     C_R   0.207249 0.541200 0.496555 -0.229547
C47   C     C_R   0.174096 0.257379 0.495850 0.293154
C48   C     C_R   0.184956 0.186806 0.499600 -0.187673
C49   C     C_R   0.256955 0.179442 0.498626 -0.014477
C50   C     C_R   0.318543 0.243339 0.496363 -0.155982
H23   H     H_    0.374499 0.238220 0.496671 0.162948
C51   C     C_R   0.309660 0.314214 0.494822 -0.103405
C52   C     C_R   0.236703 0.321475 0.493170 -0.120168
C53   C     C_R   0.332134 0.113918 0.569155 -0.191145
H24   H     H_    0.371371 0.176727 0.628156 0.210905
C54   C     C_R   0.345727 0.043461 0.566333 0.372682
C55   C     C_R   0.294857 0.962955 0.488385 -0.203191
H25   H     H_    0.304171 0.907684 0.484035 0.161699
C56   C     C_R   0.230688 0.952738 0.415394 -0.187659
H26   H     H_    0.191676 0.890400 0.355844 0.156634
C57   C     C_R   0.216913 0.022728 0.419053 -0.125194
H27   H     H_    0.167371 0.014167 0.361896 0.128484
C58   C     C_R   0.267966 0.103808 0.495854 0.068947
H28   H     H_    0.603547 0.439581 0.724078 0.193694
C59   C     C_R   0.792058 0.573282 0.646656 -0.246644
H29   H     H_    0.745938 0.585820 0.607529 0.126740
C60   C     C_R   0.873622 0.603046 0.653552 -0.003972
C61   C     C_R   0.933484 0.585644 0.701268 -0.169709
H30   H     H_    0.994110 0.602276 0.700691 0.205218
C62   C     C_R   0.913181 0.539860 0.743307 0.316226
C63   C     C_R   0.834333 0.519483 0.746499 -0.036926
C64   C     C_R   0.771087 0.531024 0.691803 0.056605
C65   C     C_R   0.687695 0.500328 0.683199 -0.056717
C66   C     C_R   0.668034 0.463762 0.731534 -0.131181
H31   H     H_    0.714558 0.433911 0.829969 0.203705
C67   C     C_R   0.731123 0.458815 0.790486 -0.114152
C68   C     C_R   0.815011 0.488491 0.801177 -0.122783
O9    O     O_R   0.052200 0.909800 0.461980 -0.588289
O10   O     O_R   0.947810 0.909820 0.357620 -0.581108
C69   C     C_R   0.999821 0.880159 0.381646 0.763273
O11   O     O_R   0.962020 0.909790 0.552160 -0.588865
O12   O     O_R   0.857630 0.909810 0.447800 -0.539109
C70   C     C_R   0.881006 0.879744 0.498359 0.820569
Cu3   Cu    Cu3+1 0.061810 0.999960 0.561770 0.999439
Cu4   Cu    Cu3+1 0.938190 0.999990 0.438190 1.128095
O13   O     O_R   0.052190 0.090140 0.642340 -0.613375
O14   O     O_R   0.947800 0.090160 0.537980 -0.511709
O15   O     O_R   0.142370 0.090150 0.552150 -0.592226
O16   O     O_R   0.037980 0.090170 0.447800 -0.542247
C71   C     C_R   0.001687 0.120343 0.618550 0.896631
C72   C     C_R   0.118793 0.119129 0.500135 0.833600
O17   O     O_R   0.052180 0.461950 0.909820 -0.552868
O18   O     O_R   0.947800 0.357590 0.909850 -0.601447
C73   C     C_R   0.000267 0.380744 0.881599 0.828658
O19   O     O_R   0.142360 0.552150 0.090150 -0.581379
O20   O     O_R   0.037980 0.447790 0.090180 -0.566342
C74   C     C_R   0.118641 0.497156 0.116109 0.750106
Cu5   Cu    Cu3+1 0.061790 0.561750 0.999970 1.068056
Cu6   Cu    Cu3+1 0.938180 0.438170 0.000010 1.042692
O21   O     O_R   0.052170 0.642340 0.090130 -0.595239
O22   O     O_R   0.947790 0.537980 0.090160 -0.553458
O23   O     O_R   0.962000 0.552140 0.909800 -0.557771
O24   O     O_R   0.857610 0.447780 0.909830 -0.578374
C75   C     C_R   0.999649 0.619190 0.117930 0.805158
C76   C     C_R   0.881409 0.494684 0.875693 0.852355
H32   H     H_    0.080748 0.666415 0.576427 0.162337
C77   C     C_R   0.124425 0.760395 0.538126 -0.146502
H33   H     H_    0.188623 0.800250 0.595235 0.163225
C78   C     C_R   0.104398 0.782984 0.473873 -0.098127
H34   H     H_    0.154444 0.838808 0.480865 0.149867
C79   C     C_R   0.021811 0.731109 0.399016 0.060987
C80   C     C_R   0.959568 0.655928 0.389273 -0.171819
H35   H     H_    0.896957 0.613995 0.330000 0.184469
C81   C     C_R   0.980046 0.631813 0.452888 0.053759
C82   C     C_R   0.063078 0.684487 0.527198 -0.134147
C83   C     C_R   0.004302 0.678438 0.255358 -0.234088
H36   H     H_    0.008636 0.623361 0.259894 0.154405
C84   C     C_R   0.000005 0.686777 0.184314 -0.033625
C85   C     C_R   0.997353 0.759206 0.178468 0.089619
C86   C     C_R   0.996418 0.821167 0.243626 -0.215183
H37   H     H_    0.994200 0.876922 0.239146 0.166856
C87   C     C_R   0.001753 0.813519 0.315982 -0.102341
C88   C     C_R   0.008149 0.742277 0.322946 -0.003894
C89   C     C_R   0.085539 0.834313 0.128704 -0.261559
H38   H     H_    0.138752 0.872123 0.194968 0.177446
C90   C     C_R   0.100825 0.842877 0.063949 0.404640
C91   C     C_R   0.032206 0.790356 0.978131 -0.232069
H39   H     H_    0.042767 0.793699 0.926552 0.189714
C92   C     C_R   0.949169 0.733104 0.957792 -0.280459
H40   H     H_    0.897469 0.693937 0.890929 0.181004
C93   C     C_R   0.932831 0.724361 0.022088 0.362486
C94   C     C_R   0.003171 0.774289 0.108615 -0.057210
C95   C     C_R   0.289498 0.253621 0.786920 -0.213577
H41   H     H_    0.318115 0.214542 0.800188 0.191063
C96   C     C_R   0.208752 0.234525 0.781064 -0.099501
H42   H     H_    0.178586 0.184118 0.794226 0.173915
C97   C     C_R   0.166901 0.279514 0.757701 0.152246
C98   C     C_R   0.211651 0.350406 0.749848 -0.214002
H43   H     H_    0.182173 0.389545 0.738465 0.171681
C99   C     C_R   0.296122 0.375197 0.762870 -0.090402
C100  C     C_R   0.333307 0.322563 0.776099 0.402124
C101  C     C_R   0.081562 0.326096 0.819716 -0.063430
C102  C     C_R   0.000904 0.313694 0.814709 -0.156321
C103  C     C_R   0.921631 0.236513 0.746475 -0.092028
C104  C     C_R   0.922889 0.173342 0.682437 0.313479
C105  C     C_R   0.002435 0.186935 0.686063 -0.188408
C106  C     C_R   0.082278 0.262466 0.754973 -0.025139
C107  C     C_R   0.809639 0.174863 0.784184 -0.059008
H44   H     H_    0.850432 0.155480 0.819760 0.166010
C108  C     C_R   0.729833 0.157107 0.780563 -0.100827
H45   H     H_    0.709322 0.124070 0.813075 0.178659
C109  C     C_R   0.676573 0.182066 0.735073 -0.088588
H46   H     H_    0.614911 0.168421 0.732418 0.207887
C110  C     C_R   0.702596 0.223954 0.692371 -0.162451
H47   H     H_    0.660828 0.242342 0.656319 0.156085
C111  C     C_R   0.782152 0.241369 0.695479 -0.044825
H48   H     H_    0.799984 0.271092 0.659718 0.192123
C112  C     C_R   0.836961 0.218347 0.742734 0.140814
N1    N     N_R   0.675774 0.680381 0.083053 0.177576
O25   O     O_R   0.603667 0.614148 0.014358 -0.215593
O26   O     O_R   0.737544 0.727113 0.074580 -0.262935
C113  C     C_2   0.582470 0.869717 0.455453 0.490118
H49   H     H_    0.622599 0.938567 0.504668 0.134424
O27   O     O_2   0.599419 0.841981 0.399095 -0.526680
N2    N     N_R   0.676232 0.821626 0.813177 0.158848
O28   O     O_R   0.709009 0.886182 0.889965 -0.272908
O29   O     O_R   0.596897 0.757865 0.775073 -0.286372
N3    N     N_R   0.933706 0.069361 0.886072 0.115435
O30   O     O_R   0.884991 0.008926 0.894876 -0.348323
O31   O     O_R   0.926519 0.049469 0.810642 -0.358059
C114  C     C_2   0.108701 0.459345 0.337833 0.370967
H50   H     H_    0.108416 0.518059 0.339701 0.057113
O32   O     O_2   0.060811 0.390043 0.269755 -0.538538
N4    N     N_R   0.658013 0.822508 0.655320 0.132555
O33   O     O_R   0.680822 0.873419 0.624844 -0.348467
O34   O     O_R   0.582059 0.796429 0.649486 -0.318032
N5    N     N_R   0.100905 0.265329 0.497088 0.130896
O35   O     O_R   0.085812 0.266886 0.559262 -0.387669
O36   O     O_R   0.046416 0.266201 0.433582 -0.318121
N6    N     N_R   0.410747 0.053725 0.642060 0.109269
O37   O     O_R   0.452818 0.125800 0.715870 -0.336694
O38   O     O_R   0.427516 0.990612 0.638294 -0.398112
C115  C     C_2   0.894148 0.649257 0.607470 0.316046
H51   H     H_    0.842285 0.646466 0.556709 0.091780
O39   O     O_2   0.969540 0.693880 0.628010 -0.561357
N7    N     N_R   0.965939 0.502530 0.768380 0.134728
O40   O     O_R   0.050108 0.547136 0.802687 -0.345713
O41   O     O_R   0.928899 0.418690 0.739267 -0.420271
C116  C     C_2   0.916822 0.550271 0.441153 0.391595
H52   H     H_    0.935185 0.530892 0.489372 0.091654
O42   O     O_2   0.843577 0.503899 0.377897 -0.517299
N8    N     N_R   0.186028 0.903176 0.085048 0.136132
O43   O     O_R   0.249911 0.951788 0.164728 -0.336561
O44   O     O_R   0.200417 0.910552 0.024853 -0.318185
N9    N     N_R   0.845265 0.665940 0.997851 0.131268
O45   O     O_R   0.829923 0.631661 0.044053 -0.334998
O46   O     O_R   0.779361 0.645539 0.927527 -0.311350
N10   N     N_R   0.413998 0.337251 0.777827 0.151946
O47   O     O_R   0.466984 0.321829 0.827360 -0.295509
O48   O     O_R   0.427372 0.350769 0.719466 -0.363774
C117  C     C_2   0.345207 0.460832 0.771082 0.469674
H53   H     H_    0.311617 0.495841 0.756205 0.043940
O49   O     O_2   0.423649 0.495934 0.798916 -0.412805
C118  C     C_2   0.166583 0.403324 0.894447 0.346997
H54   H     H_    0.179528 0.469622 0.912046 0.146205
O50   O     O_2   0.224417 0.392976 0.935627 -0.515792
N11   N     N_R   0.843433 0.092947 0.615590 0.125992
O51   O     O_R   0.780420 0.093797 0.560073 -0.342977
O52   O     O_R   0.834348 0.018683 0.609832 -0.340450
N12   N     N_R   0.546118 0.684715 0.133056 0.161335
O53   O     O_R   0.476473 0.649966 0.137394 -0.322198
O54   O     O_R   0.544550 0.720285 0.084592 -0.247737

loop_
_geom_bond_atom_site_label_1
_geom_bond_atom_site_label_2
_geom_bond_distance
_ccdc_geom_bond_type
C113  O27   1.220177 D    
C114  H50   1.085931 S    
C57   H27   1.083225 S    
C18   N12   1.438573 S    
C32   C33   1.398689 A    
C97   C98   1.402564 A    
C31   C32   1.395844 A    
C39   C40   1.400207 A    
N11   O51   1.300728 A    
C4    C51   1.451352 S    
C115  H51   1.085779 S    
O20   C74   1.290088 A    
O23   C76   1.291938 A    
O19   C74   1.297269 A    
C59   H29   1.082023 S    
N7    O40   1.301964 A    
Cu1   Cu2   2.689086 S    
C96   C97   1.401755 A    
C45   C46   1.402314 A    
C118  H54   1.082798 S    
Cu1   O7    1.966463 S    
C114  O32   1.219558 D    
C77   C82   1.396115 A    
C12   C13   1.413519 A    
C95   H41   1.082690 S    
C98   C99   1.404261 A    
C68   C76   1.474492 S    
C14   H5    1.085170 S    
C8    C9    1.388352 A    
C83   C84   1.389609 A    
C18   C19   1.414691 A    
Cu6   O24   1.971230 S    
Cu4   O14   1.975902 S    
C91   H39   1.082067 S    
C15   C16   1.421019 A    
C49   C58   1.478550 S    
O7    C4    1.290587 A    
C53   C54   1.406599 A    
O14   C71   1.298990 A    
C31   C40   1.486671 S    
C27   C113  1.478309 S    
N2    O28   1.300952 A    
C95   C100  1.404442 A    
C79   C80   1.405132 A    
C67   C68   1.403437 A    
C111  C112  1.404305 A    
C7    C8    1.400958 A    
O13   C71   1.285455 A    
C36   C37   1.404849 A    
O5    C3    1.292489 A    
C108  H45   1.082340 S    
Cu4   O16   1.968892 S    
C63   C64   1.420854 A    
C62   C63   1.432706 A    
C101  C102  1.420948 A    
C93   C94   1.419929 A    
C79   C88   1.478668 S    
C89   C90   1.402441 A    
O10   C69   1.300278 A    
C37   N3    1.438957 S    
C24   C25   1.401252 A    
N3    O30   1.300540 A    
O22   C75   1.293532 A    
N12   O54   1.301256 A    
C85   C86   1.394830 A    
C91   C92   1.395914 A    
C92   C93   1.404317 A    
C41   H20   1.082346 S    
C83   C88   1.391392 A    
O2    C1    1.298220 A    
C55   C56   1.397683 A    
C117  H53   1.085157 S    
H32   C82   1.083205 S    
O15   C72   1.297414 A    
O21   C75   1.291790 A    
C104  N11   1.437561 S    
O11   Cu3   1.968798 S    
C54   C55   1.406668 A    
C66   C67   1.381811 A    
H1    C10   1.083057 S    
C113  H49   1.085581 S    
C35   H15   1.081594 S    
C57   C58   1.401926 A    
C69   C87   1.460190 S    
C9    H3    1.075810 S    
C25   C34   1.474587 S    
H19   C46   1.083531 S    
Cu5   O23   1.969941 S    
C23   C24   1.395130 A    
O3    Cu1   1.972461 S    
C93   N9    1.443460 S    
C45   C114  1.477041 S    
C64   C65   1.409690 A    
C59   C60   1.390477 A    
C107  C108  1.397950 A    
C92   H40   1.082003 S    
C108  C109  1.397640 A    
C21   H8    1.081671 S    
N5    O35   1.300192 A    
C35   C36   1.397431 A    
C3    C65   1.449758 S    
O16   C72   1.290894 A    
C43   C44   1.406498 A    
C37   C38   1.403661 A    
C29   H13   1.085714 S    
C59   C64   1.411452 A    
C26   H12   1.083827 S    
C105  C106  1.414774 A    
C12   C70   1.452439 S    
C11   H4    1.085358 S    
C42   H21   1.077345 S    
C42   C43   1.401135 A    
Cu3   O13   1.969958 S    
C100  N10   1.437013 S    
C96   H42   1.082867 S    
C81   C116  1.478159 S    
N4    O33   1.300450 A    
C5    C6    1.418932 A    
N8    O43   1.301643 A    
C30   C31   1.416079 A    
C50   H23   1.085272 S    
N10   O47   1.301295 A    
C49   C50   1.388150 A    
N1    O25   1.301303 A    
C101  C118  1.493962 S    
C111  H48   1.080383 S    
O1    C1    1.292910 A    
C19   C20   1.403232 A    
C17   C18   1.404461 A    
C90   C91   1.400898 A    
Cu5   O21   1.975912 S    
C44   H22   1.083526 S    
N1    O26   1.300728 A    
C47   N5    1.438525 S    
C116  H52   1.085721 S    
C35   C40   1.405463 A    
C56   C57   1.396533 A    
C44   C45   1.410553 A    
O18   Cu6   1.975818 S    
C103  C112  1.485595 S    
N9    O45   1.300210 A    
C13   C22   1.486384 S    
Cu2   O8    1.972462 S    
Cu1   O5    1.967708 S    
C32   H14   1.084919 S    
C61   C62   1.401371 A    
C6    C7    1.419095 A    
O17   Cu5   1.969773 S    
N11   O52   1.300715 A    
C29   C34   1.390666 A    
C51   C52   1.412753 A    
N2    O29   1.300882 A    
N10   O48   1.301502 A    
C117  O49   1.220253 D    
C87   C88   1.417733 A    
C23   C28   1.396911 A    
C73   C102  1.463822 S    
C1    C33   1.455927 S    
C80   C81   1.405226 A    
C103  C104  1.397845 A    
C2    C15   1.457049 S    
N6    O38   1.301320 A    
C41   C42   1.394708 A    
C27   C28   1.403700 A    
C5    C10   1.400358 A    
C50   C51   1.394448 A    
C9    C10   1.390032 A    
C54   N6    1.439254 S    
O18   C73   1.297703 A    
O24   C76   1.306614 A    
O3    C2    1.288004 A    
C30   C74   1.454003 S    
C23   H10   1.082106 S    
H31   C67   1.083352 S    
C110  C111  1.398037 A    
C20   C21   1.396580 A    
O20   Cu6   1.969965 S    
O9    Cu3   1.975809 S    
H9    C28   1.083471 S    
C56   H26   1.082325 S    
C99   C100  1.418259 A    
O17   C73   1.291685 A    
C81   C82   1.403171 A    
C86   C87   1.403921 A    
C41   C46   1.394540 A    
C71   C105  1.450980 S    
H28   C66   1.084155 S    
C25   C26   1.404235 A    
C6    N4    1.436699 S    
C19   N1    1.433754 S    
N9    O46   1.301589 A    
C107  H44   1.081219 S    
C53   H24   1.081965 S    
C104  C105  1.405364 A    
Cu2   O6    1.973660 S    
O2    Cu2   1.967707 S    
C24   H11   1.081580 S    
C11   C12   1.397624 A    
O8    C4    1.297591 A    
C48   C49   1.410174 A    
Cu6   O22   1.969890 S    
O6    C3    1.293304 A    
N8    O44   1.301612 A    
O4    Cu2   1.966465 S    
C75   C84   1.453120 S    
C77   H33   1.082406 S    
O12   C70   1.290960 A    
C7    C16   1.492263 S    
C26   C27   1.407700 A    
C65   C66   1.389644 A    
C109  C110  1.397323 A    
C60   C61   1.391879 A    
O10   Cu4   1.969841 S    
N7    O41   1.297938 A    
C63   C68   1.438053 A    
C17   H6    1.082351 S    
C8    H2    1.078319 S    
C78   C79   1.402943 A    
Cu5   Cu6   2.684487 S    
C110  H47   1.082561 S    
O19   Cu5   1.971112 S    
C14   C15   1.397497 A    
C116  O42   1.221140 D    
C102  C103  1.418283 A    
C107  C112  1.404338 A    
C78   H34   1.080691 S    
C38   H17   1.079893 S    
C21   C22   1.400343 A    
C77   C78   1.395578 A    
C33   C34   1.410744 A    
O4    C2    1.304229 A    
C60   C115  1.475180 S    
C20   H7    1.081522 S    
N12   O53   1.301581 A    
C90   N8    1.439892 S    
C61   H30   1.083698 S    
N5    O36   1.300649 A    
C47   C52   1.405976 A    
C118  O50   1.221670 D    
Cu3   Cu4   2.686061 S    
C39   H18   1.077916 S    
N4    O34   1.299560 A    
C83   H36   1.085904 S    
C17   C22   1.404415 A    
C43   C52   1.488536 S    
C36   H16   1.082431 S    
O9    C69   1.291216 A    
C11   C16   1.393630 A    
C115  O39   1.219812 D    
C53   C58   1.402514 A    
C62   N7    1.431440 S    
C47   C48   1.417504 A    
Cu3   O15   1.970225 S    
C80   H35   1.083934 S    
C89   H38   1.083779 S    
N6    O37   1.301594 A    
C89   C94   1.404920 A    
C95   C96   1.395630 A    
C85   C94   1.477949 S    
C98   H43   1.084571 S    
C13   C14   1.392211 A    
C99   C117  1.482487 S    
C84   C85   1.407638 A    
O1    Cu1   1.973658 S    
C109  H46   1.081367 S    
C86   H37   1.084513 S    
O12   Cu4   1.969986 S    
C29   C30   1.395244 A    
C55   H25   1.082669 S    
C101  C106  1.404632 A    
C97   C106  1.495343 S    
N3    O31   1.301839 A    
C5    N2    1.431708 S    
C38   C39   1.398381 A    
O11   C70   1.296005 A    
C48   C72   1.459172 S    
