data_mof_unit_64175.cif
_audit_creation_date              2012-10-26T17:52:37-0400
_audit_creation_method            fapswitch 2.2
_symmetry_space_group_name_H-M    P1
_symmetry_Int_Tables_number       1
_space_group_crystal_system       triclinic
_cell_length_a                    44.000614
_cell_length_b                    30.167772
_cell_length_c                    30.168085
_cell_angle_alpha                 90.0
_cell_angle_beta                  133.295861
_cell_angle_gamma                 90.000033
_cell_volume                      29145.7391816

loop_
_atom_site_label
_atom_site_type_symbol
_atom_type_description
_atom_site_fract_x
_atom_site_fract_y
_atom_site_fract_z
_atom_type_partial_charge
C1    C     C_R   0.499968 0.500010 0.914311 0.548591
C2    C     C_3   0.725867 0.502451 0.178276 -0.224043
C3    C     C_R   0.920032 0.499873 0.420056 0.552061
C4    C     C_R   0.579968 0.999873 0.579944 0.552059
C5    C     C_R   0.420032 0.999873 0.420056 0.552061
C6    C     C_R   0.000000 0.414209 0.500000 0.551321
C7    C     C_R   0.500000 0.914210 0.500000 0.551321
C8    C     C_R   0.500000 0.414126 0.500000 0.550770
C9    C     C_R   1.000000 0.914126 0.500000 0.550770
C10   C     C_R   0.499961 0.499993 0.585768 0.550959
C11   C     C_R   0.500039 0.499993 0.414231 0.550959
C12   C     C_R   0.999961 0.999993 0.585768 0.550958
C13   C     C_3   0.774133 0.002451 0.821724 -0.224043
C14   C     C_R   0.000039 0.999993 0.414231 0.550959
C15   C     C_R   0.500000 0.585795 0.500000 0.551158
C16   C     C_R   1.000000 0.085795 0.500000 0.551158
C17   C     C_R   0.472085 0.342724 0.499404 -0.134766
C18   C     C_R   0.527914 0.342724 0.500595 -0.134766
C19   C     C_R   0.972085 0.842724 0.499404 -0.134766
C20   C     C_R   0.027914 0.842724 0.500595 -0.134765
C21   C     C_R   0.500000 0.365795 0.500000 -0.005544
C22   C     C_R   1.000000 0.865795 0.500000 -0.005544
C23   C     C_R   0.527617 0.296406 0.499523 0.012764
C24   C     C_3   0.225867 0.002451 0.178276 -0.224043
C25   C     C_R   0.472382 0.296406 0.500476 0.012764
C26   C     C_R   0.027617 0.796406 0.499523 0.012764
C27   C     C_R   0.972382 0.796406 0.500476 0.012764
C28   C     C_3   0.274592 0.456620 0.752526 -0.189782
C29   C     C_3   0.725407 0.456620 0.247474 -0.189782
C30   C     C_3   0.774592 0.956620 0.752526 -0.189782
C31   C     C_3   0.225407 0.956620 0.247474 -0.189782
C32   C     C_R   0.500000 0.273128 0.499999 0.060501
C33   C     C_R   1.000000 0.773128 0.499999 0.060501
C34   C     C_R   0.554328 0.272970 0.497822 -0.131306
C35   C     C_1   0.162554 0.499688 0.662292 -0.038661
C36   C     C_R   0.445671 0.272970 0.502176 -0.131307
C37   C     C_R   0.054328 0.772970 0.497822 -0.131306
C38   C     C_R   0.945671 0.772970 0.502176 -0.131307
C39   C     C_R   0.053631 0.726692 0.496381 -0.131527
C40   C     C_R   0.946368 0.726692 0.503618 -0.131526
C41   C     C_R   0.553631 0.226692 0.496381 -0.131527
C42   C     C_R   0.446368 0.226691 0.503618 -0.131526
C43   C     C_R   0.026670 0.703255 0.497563 0.012691
C44   C     C_R   0.973329 0.703255 0.502436 0.012691
C45   C     C_R   0.526670 0.203255 0.497563 0.012691
C46   C     C_1   0.837446 0.499688 0.337708 -0.038661
C47   C     C_R   0.473329 0.203255 0.502436 0.012691
C48   C     C_R   1.000000 0.726533 0.499999 0.060459
C49   C     C_R   0.500000 0.226533 0.499999 0.060459
C50   C     C_R   0.025945 0.656936 0.496520 -0.133590
C51   C     C_R   0.974054 0.656936 0.503479 -0.133590
C52   C     C_R   0.525945 0.156936 0.496520 -0.133590
C53   C     C_R   0.474054 0.156936 0.503479 -0.133590
C54   C     C_R   1.000000 0.633861 0.500000 -0.003134
C55   C     C_R   0.500000 0.133861 0.500000 -0.003134
C56   C     C_R   0.528030 0.657141 0.555231 -0.133714
C57   C     C_1   0.662554 0.999688 0.662292 -0.038661
C58   C     C_R   0.471970 0.657141 0.444769 -0.133714
C59   C     C_R   0.028030 0.157141 0.555231 -0.133714
C60   C     C_R   0.971970 0.157141 0.444769 -0.133714
C61   C     C_R   0.500000 0.634091 0.500000 -0.004879
C62   C     C_R   1.000000 0.134091 0.500000 -0.004879
C63   C     C_R   0.472258 0.703444 0.444285 0.013877
C64   C     C_R   0.527742 0.703444 0.555715 0.013877
C65   C     C_R   0.972258 0.203444 0.444285 0.013877
C66   C     C_R   0.027742 0.203444 0.555715 0.013877
C67   C     C_3   0.225992 0.455962 0.704279 -0.006610
C68   C     C_1   0.337446 0.999687 0.337708 -0.038661
C69   C     C_3   0.774007 0.455962 0.295720 -0.006610
C70   C     C_3   0.725992 0.955962 0.704279 -0.006610
C71   C     C_3   0.274007 0.955962 0.295720 -0.006610
C72   C     C_R   0.500000 0.726714 0.500000 0.061640
C73   C     C_R   0.000000 0.226714 0.500000 0.061640
C74   C     C_R   0.445418 0.726867 0.389156 -0.129379
C75   C     C_R   0.554582 0.726867 0.610845 -0.129379
C76   C     C_R   0.945418 0.226867 0.389156 -0.129379
C77   C     C_R   0.054582 0.226867 0.610845 -0.129379
C78   C     C_R   0.946106 0.273138 0.389101 -0.127828
C79   C     C_1   0.337431 0.499883 0.837253 -0.072630
C80   C     C_R   0.053894 0.273138 0.610899 -0.127828
C81   C     C_R   0.446106 0.773138 0.389101 -0.127828
C82   C     C_R   0.553894 0.773138 0.610899 -0.127828
C83   C     C_R   0.973195 0.296562 0.444211 0.015445
C84   C     C_R   0.026806 0.296562 0.555789 0.015445
C85   C     C_R   0.473195 0.796562 0.444211 0.015445
C86   C     C_R   0.526806 0.796562 0.555789 0.015445
C87   C     C_R   0.000000 0.273291 0.500000 0.061646
C88   C     C_R   0.500000 0.773291 0.500000 0.061646
C89   C     C_R   0.973917 0.342865 0.444615 -0.126981
C90   C     C_1   0.662569 0.499883 0.162747 -0.072630
C91   C     C_R   0.026083 0.342865 0.555385 -0.126981
C92   C     C_R   0.473917 0.842865 0.444615 -0.126981
C93   C     C_R   0.526084 0.842865 0.555385 -0.126981
C94   C     C_R   1.000000 0.365914 0.500000 0.002356
C95   C     C_R   0.500000 0.865914 0.500000 0.002356
C96   C     C_1   0.124848 0.499811 0.624784 -0.005082
C97   C     C_1   0.875152 0.499811 0.375216 -0.005081
C98   C     C_1   0.624848 0.999811 0.624784 -0.005082
C99   C     C_1   0.375152 0.999811 0.375216 -0.005081
C100  C     C_3   0.291324 0.499685 0.790960 0.045713
C101  C     C_1   0.837431 0.999883 0.837253 -0.072630
C102  C     C_3   0.708676 0.499685 0.209039 0.045713
C103  C     C_3   0.791324 0.999685 0.790960 0.045713
C104  C     C_3   0.208676 0.999685 0.209039 0.045713
C105  C     C_3   0.225798 0.539909 0.699015 -0.205838
C106  C     C_3   0.774202 0.539909 0.300985 -0.205838
C107  C     C_3   0.725798 0.039909 0.699015 -0.205838
C108  C     C_3   0.274202 0.039909 0.300985 -0.205838
C109  C     C_3   0.208687 0.499452 0.707990 0.070479
C110  C     C_3   0.791313 0.499452 0.292010 0.070479
C111  C     C_3   0.708687 0.999452 0.707990 0.070479
C112  C     C_R   0.500032 0.500010 0.085689 0.548591
C113  C     C_1   0.162569 0.999883 0.162747 -0.072630
C114  C     C_3   0.291313 0.999452 0.292010 0.070479
C115  C     C_1   0.375138 0.499975 0.875058 -0.026661
C116  C     C_1   0.624862 0.499975 0.124941 -0.026661
C117  C     C_1   0.875138 0.999975 0.875058 -0.026661
C118  C     C_1   0.124862 0.999975 0.124941 -0.026661
C119  C     C_R   0.527858 0.472664 0.685054 -0.134722
C120  C     C_R   0.472141 0.472664 0.314946 -0.134722
C121  C     C_R   0.027858 0.972664 0.685054 -0.134722
C122  C     C_R   0.972141 0.972664 0.314946 -0.134722
C123  C     C_R   0.499944 0.499989 0.634069 -0.005298
C124  C     C_R   0.999968 0.000010 0.914311 0.548591
C125  C     C_R   0.500056 0.499989 0.365931 -0.005298
C126  C     C_R   0.999944 0.999989 0.634069 -0.005298
C127  C     C_R   0.000056 0.999989 0.365931 -0.005298
C128  C     C_R   0.472027 0.527315 0.629206 -0.133936
C129  C     C_R   0.527974 0.527314 0.370794 -0.133936
C130  C     C_R   0.972027 0.027315 0.629206 -0.133936
C131  C     C_R   0.027974 0.027314 0.370794 -0.133936
C132  C     C_R   0.472324 0.528093 0.675817 0.013055
C133  C     C_R   0.527677 0.528092 0.324184 0.013055
C134  C     C_R   0.972324 0.028093 0.675817 0.013055
C135  C     C_R   0.000032 0.000010 0.085689 0.548591
C136  C     C_R   0.027677 0.028092 0.324184 0.013055
C137  C     C_R   0.499946 0.499996 0.726721 0.060773
C138  C     C_R   0.500054 0.499996 0.273279 0.060773
C139  C     C_R   0.999946 0.999996 0.726721 0.060773
C140  C     C_R   0.000054 0.999996 0.273279 0.060773
C141  C     C_R   0.420026 0.499995 0.920015 0.551586
C142  C     C_R   0.579974 0.499995 0.079985 0.551587
C143  C     C_R   0.920026 0.999995 0.920015 0.551586
C144  C     C_R   0.079974 0.999995 0.079985 0.551587
C145  C     C_R   0.527564 0.471894 0.731071 0.013271
C146  C     C_3   0.225642 0.502487 0.773049 -0.240721
C147  C     C_R   0.472436 0.471894 0.268929 0.013271
C148  C     C_R   0.027564 0.971894 0.731071 0.013271
C149  C     C_R   0.972436 0.971894 0.268929 0.013271
C150  C     C_R   0.445613 0.556512 0.672531 -0.129536
C151  C     C_R   0.554388 0.556510 0.327470 -0.129536
C152  C     C_R   0.945613 0.056512 0.672531 -0.129536
C153  C     C_R   0.054388 0.056510 0.327470 -0.129536
C154  C     C_R   0.446314 0.557263 0.719508 -0.129546
C155  C     C_R   0.553688 0.557261 0.280493 -0.129547
C156  C     C_R   0.946314 0.057263 0.719508 -0.129546
C157  C     C_3   0.774358 0.502487 0.226951 -0.240721
C158  C     C_R   0.053688 0.057261 0.280493 -0.129547
C159  C     C_R   0.473281 0.529118 0.769914 0.013392
C160  C     C_R   0.526720 0.529118 0.230087 0.013392
C161  C     C_R   0.973281 0.029118 0.769914 0.013392
C162  C     C_R   0.026720 0.029118 0.230087 0.013392
C163  C     C_R   0.499951 0.500004 0.773314 0.060787
C164  C     C_R   0.500049 0.500003 0.226686 0.060787
C165  C     C_R   0.999951 0.000004 0.773314 0.060787
C166  C     C_R   0.000049 0.000003 0.226686 0.060787
C167  C     C_R   0.526628 0.470897 0.823272 0.013478
C168  C     C_3   0.725642 0.002487 0.773049 -0.240721
C169  C     C_R   0.473371 0.470897 0.176727 0.013478
C170  C     C_R   0.026628 0.970897 0.823272 0.013478
C171  C     C_R   0.973371 0.970897 0.176727 0.013478
C172  C     C_R   0.553589 0.442744 0.826808 -0.131646
C173  C     C_R   0.446410 0.442745 0.173192 -0.131646
C174  C     C_R   0.053589 0.942744 0.826808 -0.131646
C175  C     C_R   0.946410 0.942745 0.173192 -0.131646
C176  C     C_R   0.554280 0.443481 0.781223 -0.131454
C177  C     C_R   0.445720 0.443481 0.218776 -0.131453
C178  C     C_R   0.054280 0.943481 0.781223 -0.131453
C179  C     C_3   0.274357 0.002487 0.226951 -0.240721
C180  C     C_R   0.945720 0.943481 0.218776 -0.131453
C181  C     C_R   0.474012 0.529443 0.816958 -0.132154
C182  C     C_R   0.525989 0.529442 0.183042 -0.132155
C183  C     C_R   0.974012 0.029442 0.816958 -0.132154
C184  C     C_R   0.025989 0.029442 0.183042 -0.132155
C185  C     C_R   0.499964 0.500016 0.865982 -0.002460
C186  C     C_R   0.500036 0.500016 0.134018 -0.002460
C187  C     C_R   0.999964 0.000016 0.865982 -0.002460
C188  C     C_R   0.000036 0.000016 0.134018 -0.002460
C189  C     C_3   0.274275 0.539761 0.747313 -0.215262
C190  C     C_3   0.274133 0.502451 0.821724 -0.224043
C191  C     C_3   0.725725 0.539761 0.252687 -0.215262
C192  C     C_3   0.774275 0.039761 0.747313 -0.215262
C193  C     C_3   0.225725 0.039761 0.252687 -0.215262
C194  C     C_R   0.525910 0.470586 0.868866 -0.133268
C195  C     C_R   0.474089 0.470586 0.131133 -0.133269
C196  C     C_R   0.025910 0.970586 0.868866 -0.133268
C197  C     C_R   0.974089 0.970586 0.131133 -0.133269
C198  C     C_R   1.000000 0.585522 0.500000 0.544193
C199  C     C_R   0.500000 0.085522 0.500000 0.544193
C200  C     C_R   0.079968 0.499873 0.579944 0.552059
Cu1   Cu    Cu3+1 0.500000 0.544470 0.000000 0.937824
Cu2   Cu    Cu3+1 0.541320 0.499970 0.541370 0.934343
Cu3   Cu    Cu3+1 0.958680 0.999970 0.458630 0.934343
Cu4   Cu    Cu3+1 0.041320 0.999970 0.541370 0.934343
Cu5   Cu    Cu3+1 1.000000 0.044470 0.000000 0.937824
Cu6   Cu    Cu3+1 0.500000 0.455530 0.000000 0.943640
Cu7   Cu    Cu3+1 1.000000 0.955530 0.000000 0.943640
Cu8   Cu    Cu3+1 0.999980 0.499850 0.455510 0.958989
Cu9   Cu    Cu3+1 0.000020 0.499850 0.544490 0.958990
Cu10  Cu    Cu3+1 0.499980 0.999850 0.455510 0.958989
Cu11  Cu    Cu3+1 0.500020 0.999850 0.544490 0.958990
Cu12  Cu    Cu3+1 0.458680 0.499970 0.458630 0.934343
H1    H     H_    0.214015 0.539617 0.652572 0.159113
H2    H     H_    0.785562 0.571165 0.296887 0.109471
H3    H     H_    0.925697 0.920353 0.135001 0.110633
H4    H     H_    0.285649 0.473802 0.853016 0.118573
H5    H     H_    0.714351 0.473802 0.146984 0.118573
H6    H     H_    0.785649 0.973802 0.853016 0.118573
H7    H     H_    0.214351 0.973802 0.146984 0.118573
H8    H     H_    0.214048 0.533290 0.777614 0.121961
H9    H     H_    0.785952 0.533289 0.222386 0.121961
H10   H     H_    0.714048 0.033290 0.777614 0.121961
H11   H     H_    0.285952 0.033289 0.222386 0.121961
H12   H     H_    0.714438 0.071165 0.703113 0.109471
H13   H     H_    0.285562 0.071165 0.296887 0.109471
H14   H     H_    0.213985 0.474012 0.781326 0.113872
H15   H     H_    0.786015 0.474012 0.218674 0.113871
H16   H     H_    0.713985 0.974012 0.781326 0.113872
H17   H     H_    0.286015 0.974012 0.218674 0.113871
H18   H     H_    0.549123 0.451389 0.688139 0.118668
H19   H     H_    0.450877 0.451389 0.311861 0.118668
H20   H     H_    0.049123 0.951389 0.688139 0.118668
H21   H     H_    0.785985 0.539617 0.347428 0.159113
H22   H     H_    0.950877 0.951389 0.311861 0.118668
H23   H     H_    0.450765 0.548589 0.589753 0.119917
H24   H     H_    0.549235 0.548588 0.410248 0.119918
H25   H     H_    0.950765 0.048589 0.589753 0.119917
H26   H     H_    0.049235 0.048588 0.410248 0.119918
H27   H     H_    0.424363 0.578330 0.633804 0.114737
H28   H     H_    0.575638 0.578328 0.366197 0.114737
H29   H     H_    0.924363 0.078330 0.633804 0.114737
H30   H     H_    0.075638 0.078328 0.366197 0.114737
H31   H     H_    0.453813 0.551857 0.814939 0.118363
H32   H     H_    0.714015 0.039617 0.652572 0.159113
H33   H     H_    0.546188 0.551856 0.185062 0.118363
H34   H     H_    0.953813 0.051857 0.814939 0.118363
H35   H     H_    0.046188 0.051856 0.185062 0.118363
H36   H     H_    0.546113 0.448174 0.907254 0.117235
H37   H     H_    0.453886 0.448175 0.092744 0.117234
H38   H     H_    0.046112 0.948174 0.907254 0.117235
H39   H     H_    0.953886 0.948175 0.092744 0.117234
H40   H     H_    0.285733 0.538283 0.723972 0.131941
H41   H     H_    0.714267 0.538284 0.276028 0.131941
H42   H     H_    0.785733 0.038283 0.723972 0.131941
H43   H     H_    0.285985 0.039617 0.347428 0.159113
H44   H     H_    0.214267 0.038284 0.276028 0.131941
H45   H     H_    0.575526 0.421658 0.785002 0.111740
H46   H     H_    0.424473 0.421659 0.214997 0.111740
H47   H     H_    0.075526 0.921658 0.785002 0.111740
H48   H     H_    0.924473 0.921659 0.214997 0.111740
H49   H     H_    0.450822 0.360908 0.499412 0.119482
H50   H     H_    0.549178 0.360908 0.500587 0.119481
H51   H     H_    0.950822 0.860908 0.499412 0.119482
H52   H     H_    0.049178 0.860908 0.500587 0.119481
H53   H     H_    0.575575 0.290442 0.497252 0.113619
H54   H     H_    0.285996 0.571248 0.773699 0.118983
H55   H     H_    0.424424 0.290442 0.502746 0.113619
H56   H     H_    0.075575 0.790442 0.497252 0.113619
H57   H     H_    0.924424 0.790442 0.502746 0.113619
H58   H     H_    0.074341 0.709220 0.494698 0.113059
H59   H     H_    0.925658 0.709220 0.505300 0.113059
H60   H     H_    0.574341 0.209220 0.494698 0.113059
H61   H     H_    0.425658 0.209220 0.505300 0.113059
H62   H     H_    0.046144 0.638755 0.494307 0.119262
H63   H     H_    0.953855 0.638755 0.505692 0.119262
H64   H     H_    0.546144 0.138755 0.494307 0.119262
H65   H     H_    0.714004 0.571248 0.226301 0.118983
H66   H     H_    0.453855 0.138755 0.505692 0.119262
H67   H     H_    0.549380 0.638954 0.597761 0.119063
H68   H     H_    0.450620 0.638954 0.402239 0.119063
H69   H     H_    0.049380 0.138954 0.597761 0.119063
H70   H     H_    0.950620 0.138954 0.402239 0.119063
H71   H     H_    0.424076 0.709393 0.346094 0.112418
H72   H     H_    0.575924 0.709393 0.653906 0.112418
H73   H     H_    0.924076 0.209393 0.346094 0.112418
H74   H     H_    0.075924 0.209393 0.653906 0.112418
H75   H     H_    0.925296 0.290612 0.345997 0.112344
H76   H     H_    0.785996 0.071248 0.773699 0.118983
H77   H     H_    0.074704 0.290613 0.654003 0.112344
H78   H     H_    0.425296 0.790612 0.345997 0.112344
H79   H     H_    0.574704 0.790613 0.654003 0.112344
H80   H     H_    0.953616 0.361054 0.402003 0.118711
H81   H     H_    0.046384 0.361054 0.597997 0.118710
H82   H     H_    0.453616 0.861054 0.402003 0.118711
H83   H     H_    0.546384 0.861054 0.597997 0.118710
H84   H     H_    0.286587 0.427211 0.782809 0.109410
H85   H     H_    0.713413 0.427211 0.217191 0.109410
H86   H     H_    0.786587 0.927211 0.782809 0.109410
H87   H     H_    0.214004 0.071248 0.226301 0.118983
H88   H     H_    0.213413 0.927211 0.217191 0.109410
H89   H     H_    0.286581 0.454147 0.730015 0.157862
H90   H     H_    0.713419 0.454147 0.269985 0.157862
H91   H     H_    0.786580 0.954147 0.730015 0.157862
H92   H     H_    0.213419 0.954147 0.269985 0.157862
H93   H     H_    0.215433 0.427318 0.714102 0.129987
H94   H     H_    0.784566 0.427318 0.285897 0.129987
H95   H     H_    0.715434 0.927318 0.714102 0.129987
H96   H     H_    0.284566 0.927318 0.285897 0.129987
H97   H     H_    0.285687 0.533155 0.849651 0.123880
H98   H     H_    0.214438 0.571165 0.703113 0.109471
H99   H     H_    0.714313 0.533155 0.150349 0.123880
H100  H     H_    0.785687 0.033155 0.849651 0.123880
H101  H     H_    0.214313 0.033155 0.150349 0.123880
H102  H     H_    0.425604 0.579660 0.716266 0.113405
H103  H     H_    0.574397 0.579658 0.283736 0.113405
H104  H     H_    0.925604 0.079660 0.716266 0.113405
H105  H     H_    0.074397 0.079658 0.283736 0.113405
H106  H     H_    0.574302 0.420352 0.864998 0.110633
H107  H     H_    0.425697 0.420353 0.135001 0.110633
H108  H     H_    0.074302 0.920352 0.864998 0.110633
I1    I     I_    0.201938 0.443163 0.614530 -0.428914
I2    I     I_    0.798062 0.443163 0.385470 -0.428914
I3    I     I_    0.701938 0.943163 0.614530 -0.428914
I4    I     I_    0.298062 0.943163 0.385470 -0.428914
O1    O     O_R   0.499980 0.537560 0.935110 -0.508898
O2    O     O_R   0.465140 0.499980 0.400260 -0.509541
O3    O     O_R   0.034860 0.999980 0.599740 -0.509541
O4    O     O_R   0.965140 0.999980 0.400260 -0.509541
O5    O     O_R   0.465120 0.564850 0.465070 -0.508933
O6    O     O_R   0.534880 0.564850 0.534930 -0.508933
O7    O     O_R   0.965120 0.064850 0.465070 -0.508933
O8    O     O_R   0.034880 0.064850 0.534930 -0.508933
O9    O     O_R   0.499970 0.462450 0.935080 -0.507513
O10   O     O_R   0.500030 0.462450 0.064920 -0.507513
O11   O     O_R   0.999970 0.962450 0.935080 -0.507513
O12   O     O_R   0.500020 0.537560 0.064890 -0.508898
O13   O     O_R   0.000030 0.962450 0.064920 -0.507513
O14   O     O_R   0.439720 0.537550 0.939720 -0.504767
O15   O     O_R   0.560280 0.537550 0.060280 -0.504767
O16   O     O_R   0.939720 0.037550 0.939720 -0.504767
O17   O     O_R   0.060280 0.037550 0.060280 -0.504767
O18   O     O_R   0.439710 0.462440 0.939690 -0.503352
O19   O     O_R   0.560290 0.462440 0.060310 -0.503352
O20   O     O_R   0.939710 0.962440 0.939690 -0.503352
O21   O     O_R   0.060290 0.962440 0.060310 -0.503352
O22   O     O_R   0.999990 0.564740 0.462430 -0.510039
O23   O     O_R   0.999980 0.037560 0.935110 -0.508898
O24   O     O_R   0.000010 0.564740 0.537570 -0.510039
O25   O     O_R   0.499990 0.064740 0.462430 -0.510039
O26   O     O_R   0.500010 0.064740 0.537570 -0.510039
O27   O     O_R   0.060270 0.499850 0.522700 -0.490525
O28   O     O_R   0.939730 0.499850 0.477300 -0.490525
O29   O     O_R   0.560270 0.999850 0.522700 -0.490525
O30   O     O_R   0.439730 0.999850 0.477300 -0.490525
O31   O     O_R   0.060290 0.499870 0.597820 -0.511940
O32   O     O_R   0.939710 0.499870 0.402180 -0.511941
O33   O     O_R   0.560290 0.999870 0.597820 -0.511940
O34   O     O_R   0.000020 0.037560 0.064890 -0.508898
O35   O     O_R   0.439710 0.999870 0.402180 -0.511941
O36   O     O_R   0.999980 0.434970 0.462420 -0.505527
O37   O     O_R   0.000020 0.434970 0.537580 -0.505526
O38   O     O_R   0.499980 0.934970 0.462420 -0.505527
O39   O     O_R   0.500020 0.934970 0.537580 -0.505526
O40   O     O_R   0.465090 0.435080 0.465060 -0.509165
O41   O     O_R   0.534910 0.435080 0.534940 -0.509165
O42   O     O_R   0.965090 0.935080 0.465060 -0.509165
O43   O     O_R   0.034910 0.935080 0.534940 -0.509165
O44   O     O_R   0.465080 0.499990 0.529910 -0.508422
O45   O     O_R   0.534920 0.499990 0.470090 -0.508423
O46   O     O_R   0.965080 0.999990 0.529910 -0.508422
O47   O     O_R   0.034920 0.999990 0.470090 -0.508423
O48   O     O_R   0.534860 0.499980 0.599740 -0.509541

loop_
_geom_bond_atom_site_label_1
_geom_bond_atom_site_label_2
_ccdc_geom_bond_type
C115  C141  S    
C199  O25   A    
C106  H21   S    
C18   C21   A    
C132  C150  A    
C36   C42   A    
C133  C151  A    
C136  C140  A    
C124  O23   A    
Cu1   O12   S    
Cu11  O39   S    
C18   H50   S    
C59   C66   A    
C86   C88   A    
C176  H45   S    
C12   C126  S    
C41   H60   S    
C60   C62   A    
C158  H105  S    
C89   C94   A    
C29   H85   S    
C14   O4    A    
C6    O37   A    
C55   C199  S    
C152  C156  A    
C6    C94   S    
C107  C192  S    
C104  C193  S    
C84   C91   A    
C151  C155  A    
C13   C103  S    
C81   H78   S    
C35   C109  S    
C39   H58   S    
C47   C53   A    
C146  H8    S    
C58   C61   A    
C101  C103  S    
C121  H20   S    
C194  H36   S    
Cu2   O45   S    
C130  C134  A    
C106  H2    S    
C29   C69   S    
C124  O11   A    
C53   H66   S    
C100  C190  S    
C122  C149  A    
C105  C189  S    
Cu11  O30   S    
C182  H33   S    
C168  H10   S    
C120  C125  A    
C132  C137  A    
Cu9   O24   S    
C17   C21   A    
C135  O34   A    
C9    O43   A    
C89   H80   S    
C50   H62   S    
C102  C191  S    
C15   C61   S    
Cu5   O17   S    
C144  O21   A    
C159  C181  A    
C110  C157  S    
C142  O15   A    
C116  C142  S    
C122  H22   S    
C74   H71   S    
C1    C185  S    
C46   C110  S    
C108  H43   S    
Cu9   O37   S    
C74   C81   A    
C14   O47   A    
C170  C174  A    
C66   C77   A    
Cu5   O16   S    
C30   H86   S    
C71   H96   S    
Cu4   O8    S    
C3    O28   A    
C63   C74   A    
C119  C123  A    
C17   C25   A    
C20   H52   S    
C91   C94   A    
C136  C153  A    
C57   C111  S    
C2    C157  S    
Cu7   O11   S    
C8    O40   A    
C29   C102  S    
C7    O39   A    
C144  O17   A    
C38   H57   S    
C127  C131  A    
C28   H89   S    
C109  C146  S    
C82   H79   S    
C25   C36   A    
C125  C129  A    
C150  H27   S    
C196  H38   S    
C41   C45   A    
C27   C38   A    
C37   H56   S    
C161  C165  A    
C44   C48   A    
C70   I3    S    
C190  H97   S    
C38   C40   A    
Cu6   O10   S    
C143  O16   A    
C79   C115  T    
C4    O33   A    
C169  C195  A    
C35   C96   T    
C27   C33   A    
C151  H28   S    
C189  H40   S    
C76   C78   A    
Cu7   O21   S    
C197  H39   S    
C122  C127  A    
C139  C165  A    
C90   C102  S    
Cu1   O15   S    
C200  O31   A    
C56   C64   A    
C13   H6    S    
C179  H17   S    
C177  H46   S    
C29   H90   S    
C31   C71   S    
C93   C95   A    
C162  C166  A    
C8    O41   A    
C157  H9    S    
C172  H106  S    
Cu8   O36   S    
C85   C92   A    
Cu5   Cu7   S    
C83   C89   A    
C139  C148  A    
C15   O6    A    
C131  C136  A    
C134  C139  A    
C137  C163  A    
Cu8   Cu9   S    
C13   C168  S    
C45   C52   A    
C75   H72   S    
C183  H34   S    
Cu6   O19   S    
C86   C93   A    
C16   O7    A    
C1    O9    A    
C69   C110  S    
C147  C177  A    
C26   C33   A    
Cu1   Cu6   S    
C23   C34   A    
Cu5   O34   S    
Cu7   O20   S    
C156  C161  A    
C90   C116  T    
C2    H99   S    
C28   H84   S    
C107  H12   S    
C67   H93   S    
C85   C88   A    
C96   C200  S    
Cu9   O28   S    
C105  C109  S    
C148  C178  A    
C107  C111  S    
C3    O32   A    
C168  H16   S    
C43   C50   A    
C175  C180  A    
C51   H63   S    
C31   C104  S    
C154  C159  A    
C170  C196  A    
C135  O13   A    
C64   C75   A    
C159  C163  A    
C76   H73   S    
C32   C49   A    
C178  H47   S    
C174  H108  S    
C104  C113  S    
C30   H91   S    
C40   C44   A    
C169  C173  A    
Cu3   O42   S    
Cu2   O6    S    
C140  C149  A    
C81   C85   A    
C181  H31   S    
C83   C87   A    
C130  H25   S    
C187  C196  A    
C78   H75   S    
C34   H53   S    
C185  C194  A    
C80   C84   A    
C192  H76   S    
C112  O10   A    
C52   H64   S    
Cu12  O44   S    
C50   C54   A    
C65   C76   A    
Cu4   O43   S    
C160  C164  A    
C137  C145  A    
C11   C125  S    
Cu10  O38   S    
C108  H13   S    
C126  C130  A    
C131  H26   S    
C92   H82   S    
C93   H83   S    
C182  C186  A    
C108  C114  S    
C9    O42   A    
C73   C87   A    
C67   I1    S    
C78   C83   A    
C5    C99   S    
C143  O20   A    
C30   C103  S    
C19   C22   A    
C174  C178  A    
C52   C55   A    
C128  H23   S    
C59   H69   S    
C133  C138  A    
C199  O26   A    
C56   H67   S    
C34   C41   A    
C30   C70   S    
C140  C166  A    
C11   O45   A    
C129  H24   S    
C79   C100  S    
Cu4   O47   S    
C5    O30   A    
C10   C123  S    
Cu3   O7    S    
C146  H14   S    
Cu3   O4    S    
C200  O27   A    
C149  C180  A    
C14   C127  S    
C71   C114  S    
C175  H3    S    
C141  O18   A    
C161  C183  A    
C162  C184  A    
C183  C187  A    
C3    C97   S    
C145  C176  A    
C45   C49   A    
C134  C152  A    
Cu6   O18   S    
C121  C148  A    
C75   C82   A    
Cu10  O25   S    
Cu8   O32   S    
C198  O22   A    
C193  H87   S    
C46   C97   T    
C58   H68   S    
C36   H55   S    
C60   H70   S    
C107  H32   S    
C7    C95   S    
C112  O12   A    
C77   C80   A    
C165  C170  A    
Cu7   O13   S    
C15   O5    A    
Cu11  O26   S    
C173  H107  S    
Cu2   Cu12  S    
C24   H101  S    
Cu4   O3    S    
Cu1   O1    S    
C26   C37   A    
C167  C172  A    
C6    O36   A    
C119  C145  A    
C101  C117  T    
C23   C32   A    
C51   C54   A    
C37   C39   A    
C82   C86   A    
Cu8   O22   S    
C154  H102  S    
C188  C197  A    
C57   C98   T    
C17   H49   S    
C80   H77   S    
Cu10  O29   S    
C70   C111  S    
C157  H15   S    
C19   H51   S    
C180  H48   S    
C24   H7    S    
Cu1   O14   S    
C152  H29   S    
C63   C72   A    
C120  C147  A    
C114  C179  S    
C33   C48   A    
C2    C102  S    
C56   C61   A    
C111  C168  S    
C190  H4    S    
Cu8   O27   S    
Cu12  O5    S    
Cu3   Cu4   S    
C4    C98   S    
C100  C189  S    
C84   C87   A    
C77   H74   S    
Cu12  O40   S    
C7    O38   A    
C65   C73   A    
C47   C49   A    
C155  H103  S    
C71   I4    S    
C191  H41   S    
C117  C143  S    
C12   O3    A    
C118  C144  S    
C31   H92   S    
C112  C186  S    
C9    C22   S    
C153  C158  A    
C10   O48   A    
C191  H65   S    
C119  H18   S    
C16   O8    A    
C42   H61   S    
C67   C109  S    
C2    H5    S    
C19   C27   A    
C43   C48   A    
C28   C100  S    
Cu2   O41   S    
Cu6   O9    S    
C166  C171  A    
C153  H30   S    
C164  C169  A    
C16   C62   S    
C106  C191  S    
C128  C132  A    
C120  H19   S    
C160  C182  A    
C72   C88   A    
C142  O19   A    
C53   C55   A    
C70   H95   S    
C11   O2    A    
C105  H1    S    
C18   C23   A    
C193  H44   S    
C186  C195  A    
C28   C67   S    
C31   H88   S    
C181  C185  A    
C39   C43   A    
Cu12  O2    S    
C66   C73   A    
C171  C175  A    
C91   H81   S    
C92   C95   A    
C184  C188  A    
C179  H11   S    
C24   C104  S    
C163  C167  A    
Cu10  O35   S    
C5    O35   A    
C105  H98   S    
C173  C177  A    
C138  C147  A    
C24   C179  S    
C8    C21   S    
C44   C51   A    
C69   I2    S    
C192  H42   S    
C69   H94   S    
C167  C194  A    
C129  C133  A    
C189  H54   S    
C135  C188  S    
C106  C110  S    
C40   H59   S    
C58   C63   A    
C59   C62   A    
Cu9   O31   S    
C155  C160  A    
C141  O14   A    
Cu5   O23   S    
C20   C22   A    
C60   C65   A    
C124  C187  S    
C10   O44   A    
Cu11  O33   S    
C54   C198  S    
C13   H100  S    
Cu2   O48   S    
C156  H104  S    
C68   C99   T    
C121  C126  A    
C171  C197  A    
Cu3   O46   S    
C4    O29   A    
C123  C128  A    
C20   C26   A    
C25   C32   A    
C195  H37   S    
C184  H35   S    
C12   O46   A    
C42   C47   A    
C64   C72   A    
C198  O24   A    
C158  C162  A    
C113  C118  T    
C172  C176  A    
Cu10  Cu11  S    
C150  C154  A    
C146  C190  S    
C138  C164  A    
C103  C192  S    
C108  C193  S    
C1    O1    A    
C68   C114  S    
