data_mof_unit_12863.cif
_audit_creation_date              2012-12-11T14:03:51-0500
_audit_creation_method            fapswitch 2.2
_symmetry_space_group_name_H-M    P1
_symmetry_Int_Tables_number       1
_space_group_crystal_system       triclinic
_cell_length_a                    19.039784
_cell_length_b                    11.0072
_cell_length_c                    18.864411
_cell_angle_alpha                 89.591604
_cell_angle_beta                  89.867562
_cell_angle_gamma                 89.920835
_cell_volume                      3953.38879621

loop_
_atom_site_label
_atom_site_type_symbol
_atom_type_description
_atom_site_fract_x
_atom_site_fract_y
_atom_site_fract_z
_atom_type_partial_charge
C1    C     C_R   0.239570 0.467738 0.646605 0.570570
C2    C     C_R   0.760285 0.467467 0.353317 0.563863
C3    C     C_R   0.739569 0.967741 0.646603 0.570566
C4    C     C_R   0.260285 0.967466 0.353316 0.563867
C5    C     C_2   0.277173 0.825933 0.534147 -0.088566
C6    C     C_2   0.720224 0.829636 0.465692 -0.093407
C7    C     C_2   0.777175 0.325937 0.534148 -0.088563
C8    C     C_2   0.220234 0.329619 0.465698 -0.093412
C9    C     C_R   0.004911 0.658534 0.426312 -0.009566
C10   C     C_R   0.991804 0.669567 0.575718 -0.012888
C11   C     C_R   0.504911 0.158534 0.426312 -0.009562
C12   C     C_R   0.491804 0.169566 0.575718 -0.012890
C13   C     C_R   0.038201 0.875555 0.423852 0.113897
C14   C     C_R   0.996567 0.895733 0.566299 0.131676
C15   C     C_R   0.538201 0.375556 0.423853 0.113905
C16   C     C_R   0.496566 0.395732 0.566300 0.131676
C17   C     C_R   0.043176 0.986605 0.458848 -0.129862
C18   C     C_R   0.019964 0.997600 0.528344 -0.121265
C19   C     C_R   0.543176 0.486605 0.458849 -0.129857
C20   C     C_R   0.519964 0.497600 0.528346 -0.121262
C21   C     C_R   0.000634 0.778726 0.535281 0.022327
C22   C     C_R   0.013582 0.771221 0.460866 0.019813
C23   C     C_R   0.500633 0.278726 0.535281 0.022325
C24   C     C_R   0.513582 0.271222 0.460866 0.019816
C25   C     C_R   0.979850 0.560161 0.539542 0.012593
C26   C     C_R   0.000264 0.551379 0.468278 0.016082
C27   C     C_R   0.479850 0.060161 0.539542 0.012594
C28   C     C_R   0.500263 0.051380 0.468278 0.016085
C29   C     C_R   0.954386 0.455410 0.574866 -0.033061
C30   C     C_R   0.013473 0.434438 0.440671 -0.029833
C31   C     C_R   0.454387 0.955409 0.574865 -0.033059
C32   C     C_R   0.513473 0.934439 0.440670 -0.029833
C33   C     C_R   0.961661 0.341397 0.544371 -0.089956
C34   C     C_R   0.993879 0.330748 0.478421 -0.095589
C35   C     C_R   0.461662 0.841397 0.544371 -0.089960
C36   C     C_R   0.493879 0.830749 0.478421 -0.095600
C37   C     C_2   0.243820 0.909194 0.924297 0.100339
C38   C     C_2   0.759172 0.902111 0.073235 0.100005
C39   C     C_2   0.743816 0.409178 0.924302 0.100339
C40   C     C_2   0.259175 0.402102 0.073234 0.100000
C41   C     C_2   0.247811 0.903901 0.084156 -0.076674
C42   C     C_2   0.753384 0.894394 0.913486 -0.067020
C43   C     C_2   0.747807 0.403887 0.084161 -0.076728
C44   C     C_2   0.253381 0.394390 0.913487 -0.067026
C45   C     C_R   0.227509 0.874536 0.647799 0.542600
C46   C     C_R   0.772453 0.874234 0.352127 0.541593
C47   C     C_R   0.727509 0.374537 0.647799 0.542599
C48   C     C_R   0.272452 0.374236 0.352127 0.541585
C49   C     C_2   0.196002 0.946001 0.043373 -0.123222
C50   C     C_2   0.808907 0.923578 0.952657 -0.098709
C51   C     C_2   0.695995 0.445976 0.043378 -0.123255
C52   C     C_2   0.308908 0.423551 0.952655 -0.098701
C53   C     C_2   0.189603 0.913824 0.970032 -0.111328
C54   C     C_2   0.813194 0.892407 0.027201 -0.093590
C55   C     C_2   0.689597 0.413801 0.970036 -0.111314
C56   C     C_2   0.313193 0.392364 0.027198 -0.093575
C57   C     C_2   0.999794 0.657395 0.918548 0.281583
C58   C     C_2   0.019403 0.667387 0.091949 0.223018
C59   C     C_2   0.499794 0.157383 0.918547 0.281580
C60   C     C_2   0.519383 0.167382 0.091937 0.222952
C61   C     C_2   0.017978 0.586728 0.038426 0.089996
C62   C     C_2   0.044830 0.623134 0.970553 0.106709
C63   C     C_2   0.517971 0.086708 0.038427 0.090004
C64   C     C_2   0.544822 0.123106 0.970552 0.106827
C65   C     C_R   0.026911 0.656506 0.646250 0.562206
C66   C     C_R   0.972399 0.654027 0.354316 0.574371
C67   C     C_R   0.526911 0.156506 0.646250 0.562208
C68   C     C_R   0.472399 0.154028 0.354317 0.574361
C69   C     C_R   0.239722 0.462414 0.848985 0.541894
C70   C     C_R   0.760751 0.464587 0.150329 0.552965
C71   C     C_R   0.739723 0.962413 0.848984 0.541889
C72   C     C_R   0.260752 0.964590 0.150327 0.552984
C73   C     C_R   0.227104 0.872909 0.852869 0.549300
C74   C     C_R   0.773731 0.871320 0.146210 0.548792
C75   C     C_R   0.727103 0.372905 0.852871 0.549301
C76   C     C_R   0.273732 0.371317 0.146210 0.548799
C77   C     C_R   0.026212 0.652415 0.847754 0.601798
C78   C     C_R   0.972488 0.652862 0.151229 0.589955
C79   C     C_R   0.526214 0.152413 0.847754 0.601786
C80   C     C_R   0.472485 0.152860 0.151228 0.589948
C81   C     C_2   0.250511 0.912924 0.577181 0.198894
C82   C     C_2   0.748948 0.914153 0.422090 0.201293
C83   C     C_2   0.750512 0.412927 0.577182 0.198886
C84   C     C_2   0.248946 0.414151 0.422093 0.201290
C85   C     C_2   0.244181 0.910999 0.421037 -0.008170
C86   C     C_2   0.755046 0.908928 0.579510 -0.000703
C87   C     C_2   0.744182 0.411003 0.421038 -0.008163
C88   C     C_2   0.255050 0.408917 0.579516 -0.000695
C89   C     C_2   0.290204 0.844931 0.457915 0.246802
C90   C     C_2   0.706050 0.851986 0.541167 0.243709
C91   C     C_2   0.790205 0.344936 0.457916 0.246813
C92   C     C_2   0.206057 0.351967 0.541174 0.243700
Cr1   Cr    Cr6+3 0.113970 0.508630 0.747920 1.057880
Cr2   Cr    Cr6+3 0.886030 0.508630 0.252080 1.049728
Cr3   Cr    Cr6+3 0.613970 0.008630 0.747920 1.057879
Cr4   Cr    Cr6+3 0.386030 0.008630 0.252080 1.049722
Cr5   Cr    Cr6+3 0.269200 0.666740 0.749850 1.012899
Cr6   Cr    Cr6+3 0.730800 0.666740 0.250150 1.011394
Cr7   Cr    Cr6+3 0.769200 0.166740 0.749850 1.012894
Cr8   Cr    Cr6+3 0.230800 0.166740 0.250150 1.011404
Cr9   Cr    Cr6+3 0.112300 0.820070 0.749800 1.028071
Cr10  Cr    Cr6+3 0.887700 0.820070 0.250200 1.053490
Cr11  Cr    Cr6+3 0.612300 0.320070 0.749800 1.028077
Cr12  Cr    Cr6+3 0.387700 0.320070 0.250200 1.053502
H1    H     H_    0.135964 0.899534 0.952268 0.136000
H2    H     H_    0.865515 0.869678 0.046185 0.135275
H3    H     H_    0.635959 0.399512 0.952270 0.136040
H4    H     H_    0.365510 0.369602 0.046181 0.135292
H5    H     H_    0.285351 0.837324 0.064944 0.137754
H6    H     H_    0.713080 0.833509 0.933760 0.137208
H7    H     H_    0.785348 0.337309 0.064951 0.137762
H8    H     H_    0.213071 0.333517 0.933763 0.137214
H9    H     H_    0.287552 0.735033 0.554507 0.123235
H10   H     H_    0.708136 0.739169 0.446464 0.122914
H11   H     H_    0.787553 0.235036 0.554507 0.123229
H12   H     H_    0.208152 0.239149 0.446471 0.122927
H13   H     H_    0.195190 0.938653 0.445841 0.111794
H14   H     H_    0.806160 0.927926 0.556078 0.103135
H15   H     H_    0.695190 0.438658 0.445842 0.111791
H16   H     H_    0.306164 0.427918 0.556084 0.103141
H17   H     H_    0.063869 0.065268 0.431176 0.108003
H18   H     H_    0.020122 0.085836 0.553156 0.108563
H19   H     H_    0.563870 0.565270 0.431178 0.108002
H20   H     H_    0.520123 0.585835 0.553158 0.108563
H21   H     H_    0.038764 0.422643 0.389715 0.130627
H22   H     H_    0.931300 0.461429 0.627282 0.124525
H23   H     H_    0.538763 0.922645 0.389714 0.130628
H24   H     H_    0.431300 0.961428 0.627282 0.124525
H25   H     H_    0.943753 0.261305 0.572629 0.092379
H26   H     H_    0.001624 0.242396 0.455308 0.095348
H27   H     H_    0.443755 0.761304 0.572629 0.092380
H28   H     H_    0.501625 0.742397 0.455307 0.095349
H29   H     H_    0.156315 0.008078 0.063365 0.171457
H30   H     H_    0.851465 0.978451 0.931262 0.158874
H31   H     H_    0.656308 0.508053 0.063369 0.171463
H32   H     H_    0.351470 0.478412 0.931260 0.158889
O1    O     O_R   0.043230 0.549300 0.667990 -0.505222
O2    O     O_R   0.956770 0.549300 0.332010 -0.519931
O3    O     O_R   0.543230 0.049300 0.667990 -0.505219
O4    O     O_R   0.456770 0.049300 0.332010 -0.519933
O5    O     O_R   0.262920 0.788600 0.824420 -0.498433
O6    O     O_R   0.737080 0.788600 0.175580 -0.501706
O7    O     O_R   0.762920 0.288600 0.824420 -0.498438
O8    O     O_R   0.237080 0.288600 0.175580 -0.501708
O9    O     O_R   0.167530 0.905110 0.830340 -0.529144
O10   O     O_R   0.832470 0.905110 0.169660 -0.521856
O11   O     O_R   0.667530 0.405110 0.830340 -0.529140
O12   O     O_R   0.332470 0.405110 0.169660 -0.521839
O13   O     O_R   0.054010 0.748440 0.822860 -0.516775
O14   O     O_R   0.945990 0.748440 0.177140 -0.465116
O15   O     O_R   0.554010 0.248440 0.822860 -0.516765
O16   O     O_R   0.445990 0.248440 0.177140 -0.465082
O17   O     O_3   0.165160 0.665150 0.749190 -0.266604
O18   O     O_3   0.834840 0.665150 0.250810 -0.267880
O19   O     O_3   0.665160 0.165150 0.749190 -0.266607
O20   O     O_3   0.334840 0.165150 0.250810 -0.267886
O21   O     O_R   0.178620 0.457600 0.674100 -0.425629
O22   O     O_R   0.821380 0.457600 0.325900 -0.426648
O23   O     O_R   0.678620 0.957600 0.674100 -0.425627
O24   O     O_R   0.321380 0.957600 0.325900 -0.426644
O25   O     O_R   0.284680 0.542100 0.669460 -0.548729
O26   O     O_R   0.715320 0.542100 0.330540 -0.555615
O27   O     O_R   0.784680 0.042100 0.669460 -0.548727
O28   O     O_R   0.215320 0.042100 0.330540 -0.555612
O29   O     O_R   0.262860 0.790390 0.676650 -0.524355
O30   O     O_R   0.737140 0.790390 0.323350 -0.523506
O31   O     O_R   0.762860 0.290390 0.676650 -0.524354
O32   O     O_R   0.237140 0.290390 0.323350 -0.523505
O33   O     O_R   0.167460 0.907030 0.670940 -0.507749
O34   O     O_R   0.832540 0.907030 0.329060 -0.505749
O35   O     O_R   0.667460 0.407030 0.670940 -0.507750
O36   O     O_R   0.332540 0.407030 0.329060 -0.505725
O37   O     O_R   0.053950 0.750220 0.675100 -0.474412
O38   O     O_R   0.946050 0.750220 0.324900 -0.470734
O39   O     O_R   0.553950 0.250220 0.675100 -0.474413
O40   O     O_R   0.446050 0.250220 0.324900 -0.470741
O41   O     O_R   0.043300 0.547370 0.827390 -0.529644
O42   O     O_R   0.956700 0.547370 0.172610 -0.558727
O43   O     O_R   0.543300 0.047370 0.827390 -0.529657
O44   O     O_R   0.456700 0.047370 0.172610 -0.558768
O45   O     O_R   0.178690 0.455820 0.821860 -0.517618
O46   O     O_R   0.821310 0.455820 0.178140 -0.506161
O47   O     O_R   0.678690 0.955820 0.821860 -0.517618
O48   O     O_R   0.321310 0.955820 0.178140 -0.506166
O49   O     O_R   0.284750 0.540170 0.828860 -0.509153
O50   O     O_R   0.715250 0.540170 0.171140 -0.510969
O51   O     O_R   0.784750 0.040170 0.828860 -0.509160
O52   O     O_R   0.215250 0.040170 0.171140 -0.510958
O53   O     O_3   0.345581 0.788992 0.423847 -0.686430
H33   H     H_    0.365987 0.728464 0.457031 0.320776
O54   O     O_3   0.644633 0.811431 0.572406 -0.678392
H34   H     H_    0.618695 0.763287 0.536883 0.313470
O55   O     O_3   0.845583 0.288995 0.423847 -0.686436
H35   H     H_    0.865985 0.228459 0.457030 0.320762
O56   O     O_3   0.144640 0.311412 0.572411 -0.678400
H36   H     H_    0.118702 0.263269 0.536887 0.313472
N1    N     N_3   0.314899 0.933843 0.944761 -0.634610
H37   H     H_    0.333950 0.002468 0.911373 0.271666
H38   H     H_    0.344806 0.855823 0.935446 0.244270
N2    N     N_3   0.689621 0.936057 0.052156 -0.629579
H39   H     H_    0.674458 0.010295 0.082921 0.247806
H40   H     H_    0.655865 0.864135 0.064588 0.236391
N3    N     N_3   0.814895 0.433809 0.944769 -0.634623
H41   H     H_    0.833956 0.502417 0.911377 0.271656
H42   H     H_    0.844792 0.355777 0.935462 0.244264
N4    N     N_3   0.189630 0.436105 0.052159 -0.629580
H43   H     H_    0.174503 0.510383 0.082908 0.247837
H44   H     H_    0.155848 0.364231 0.064613 0.236392
N5    N     N_3   0.980521 0.473186 0.040702 -0.619189
H45   H     H_    0.002672 0.416681 0.079433 0.249704
H46   H     H_    0.927310 0.488708 0.051178 0.259221
N6    N     N_3   0.118506 0.604024 0.958548 -0.638518
H47   H     H_    0.124062 0.521965 0.932103 0.282156
H48   H     H_    0.139389 0.674589 0.927823 0.224423
N7    N     N_3   0.480554 0.973149 0.040729 -0.619230
H49   H     H_    0.502722 0.916711 0.079475 0.249702
H50   H     H_    0.427349 0.988633 0.051212 0.259240
N8    N     N_3   0.618503 0.103992 0.958552 -0.638483
H51   H     H_    0.624064 0.021927 0.932109 0.282148
H52   H     H_    0.639391 0.174555 0.927826 0.224420
O57   O     O_3   0.055471 0.776450 0.087720 -0.718703
H53   H     H_    0.097138 0.765909 0.057033 0.333180
O58   O     O_3   0.929162 0.682344 0.928390 -0.736416
H54   H     H_    0.919481 0.695462 0.979298 0.319115
O59   O     O_3   0.555404 0.276478 0.087666 -0.718757
H55   H     H_    0.597120 0.265905 0.057062 0.333190
O60   O     O_3   0.429158 0.182341 0.928383 -0.736361
H56   H     H_    0.419484 0.195469 0.979302 0.319095
O61   O     O_3   0.241185 0.031075 0.553592 -0.742459
H57   H     H_    0.221800 0.079324 0.593293 0.345776
O62   O     O_3   0.760358 0.031437 0.444956 -0.740990
H58   H     H_    0.778942 0.079121 0.404309 0.351251
O63   O     O_3   0.741188 0.531080 0.553595 -0.742461
H59   H     H_    0.721804 0.579323 0.593296 0.345780
O64   O     O_3   0.260355 0.531432 0.444962 -0.740998
H60   H     H_    0.278909 0.579129 0.404309 0.351254
N9    N     N_3   0.063259 0.867264 0.352303 -0.602546
H61   H     H_    0.116864 0.885599 0.351749 0.231531
H62   H     H_    0.038225 0.934277 0.321918 0.243963
N10   N     N_3   0.962889 0.913303 0.633531 -0.603697
H63   H     H_    0.918647 0.967817 0.625210 0.225212
H64   H     H_    0.997051 0.962112 0.665997 0.243852
N11   N     N_3   0.563258 0.367266 0.352304 -0.602562
H65   H     H_    0.616863 0.385603 0.351750 0.231529
H66   H     H_    0.538223 0.434279 0.321919 0.243959
N12   N     N_3   0.462889 0.413302 0.633532 -0.603697
H67   H     H_    0.418647 0.467816 0.625212 0.225212
H68   H     H_    0.497052 0.462110 0.665998 0.243853

loop_
_geom_bond_atom_site_label_1
_geom_bond_atom_site_label_2
_ccdc_geom_bond_type
Cr10  O34   S    
C7    C83   D    
C82   O62   S    
Cr6   O18   S    
C6    C82   D    
C87   C91   D    
C14   C18   A    
Cr9   O37   S    
C35   C36   A    
C42   C50   D    
N3    H41   S    
C92   O56   S    
C43   C51   D    
C2    O26   A    
Cr7   O51   S    
C71   O51   A    
C68   O40   A    
Cr11  O11   S    
C57   C62   D    
Cr12  O40   S    
C73   O5    A    
Cr5   O49   S    
N3    H42   S    
C12   C23   A    
Cr9   O9    S    
C59   C64   D    
C50   C54   S    
C60   C63   D    
Cr3   O23   S    
C80   O44   A    
C14   C21   A    
Cr7   O7    S    
Cr8   O52   S    
C85   C89   D    
Cr1   O45   S    
C39   N3    S    
C36   H28   S    
C83   O63   S    
C91   O55   S    
N4    H44   S    
C9    C22   A    
C33   H25   S    
N11   H65   S    
C29   C33   A    
C11   C24   A    
C5    C81   D    
N6    H47   S    
C60   O59   S    
Cr2   O42   S    
C7    H11   S    
N1    H38   S    
Cr12  O12   S    
C9    C66   S    
C6    H10   S    
C50   H30   S    
C48   O36   A    
C51   H31   S    
C70   O46   A    
C39   C55   D    
C88   C92   D    
C67   O39   A    
N2    H39   S    
C40   C56   D    
Cr7   O19   S    
O64   H60   S    
C4    O28   A    
Cr9   O33   S    
C8    C92   S    
C62   N6    S    
C47   C83   S    
C88   H16   S    
C67   O3    A    
O63   H59   S    
Cr10  O18   S    
Cr3   O19   S    
C61   C62   S    
O55   H35   S    
C3    O27   A    
Cr12  O36   S    
C65   O1    A    
C44   C52   D    
C58   C61   D    
C74   O6    A    
C30   H21   S    
C1    O25   A    
Cr2   O22   S    
C41   H5    S    
C21   C22   A    
Cr6   O6    S    
C3    C86   S    
C3    O23   A    
N10   H64   S    
C2    C87   S    
O53   H33   S    
C4    O24   A    
C43   H7    S    
C31   H24   S    
Cr4   O48   S    
C41   C49   D    
Cr6   O26   S    
C58   O57   S    
C9    C26   A    
O59   H55   S    
Cr7   O31   S    
C90   O54   S    
C10   C21   A    
C25   C29   A    
C12   C67   S    
N12   H68   S    
C30   C34   A    
C12   C27   A    
C27   C31   A    
O54   H34   S    
C46   C82   S    
C28   C32   A    
C84   O64   S    
Cr1   O1    S    
C72   O48   A    
O58   H54   S    
N5    H45   S    
C86   C90   D    
C59   C79   S    
C15   N11   S    
C54   H2    S    
N4    H43   S    
Cr3   O43   S    
C13   N9    S    
C4    C85   S    
C75   O11   A    
C25   C26   A    
C6    C90   S    
C19   H19   S    
Cr5   O17   S    
Cr12  O20   S    
C48   C84   S    
C76   O12   A    
C55   H3    S    
Cr1   O17   S    
Cr2   O2    S    
C86   H14   S    
C15   C19   A    
N7    H49   S    
C42   C71   S    
C87   H15   S    
O61   H57   S    
C65   O37   A    
C57   C77   S    
O57   H53   S    
C47   O31   A    
N8    H52   S    
O60   H56   S    
C38   C54   D    
Cr9   O17   S    
C16   C20   A    
C7    C91   S    
Cr11  O39   S    
C17   C18   A    
C44   C69   S    
Cr8   O28   S    
C61   N5    S    
C1    O21   A    
Cr4   O44   S    
Cr1   O21   S    
Cr5   O5    S    
Cr6   O30   S    
C46   O34   A    
C75   O7    A    
C18   H18   S    
C41   C72   S    
Cr7   O27   S    
C44   H8    S    
C10   C25   A    
Cr11  O19   S    
C15   C24   A    
Cr4   O24   S    
Cr10  O14   S    
C26   C30   A    
C16   C23   A    
C37   N1    S    
N9    H62   S    
Cr8   O8    S    
C52   H32   S    
C79   O43   A    
C72   O52   A    
C85   H13   S    
Cr10  O38   S    
Cr8   O20   S    
C77   O13   A    
C69   O49   A    
O62   H58   S    
C59   O60   S    
C11   C68   S    
C78   O14   A    
C79   O15   A    
C38   C74   S    
C10   C65   S    
C17   H17   S    
C64   N8    S    
C80   O16   A    
C49   H29   S    
N12   H67   S    
C60   C80   S    
Cr1   O41   S    
C46   O30   A    
C5    H9    S    
C32   H23   S    
C78   O42   A    
Cr3   O3    S    
C74   O10   A    
C45   C81   S    
N6    H48   S    
C76   O8    A    
C45   O33   A    
Cr4   O4    S    
C47   O35   A    
C32   C36   A    
Cr11  O15   S    
C43   C70   S    
Cr2   O46   S    
C8    H12   S    
C37   C73   S    
C13   C17   A    
Cr8   O32   S    
C38   N2    S    
C63   N7    S    
Cr12  O16   S    
C19   C20   A    
N7    H50   S    
C42   H6    S    
C35   H27   S    
C37   C53   D    
Cr6   O50   S    
O56   H36   S    
Cr10  O10   S    
C14   N10   S    
Cr2   O18   S    
Cr11  O35   S    
Cr3   O47   S    
N8    H51   S    
Cr4   O20   S    
C11   C28   A    
C1    C88   S    
Cr5   O29   S    
N9    H61   S    
C31   C35   A    
Cr9   O13   S    
N10   H63   S    
N5    H46   S    
C33   C34   A    
C13   C22   A    
C51   C55   S    
C40   N4    S    
C89   O53   S    
N1    H37   S    
C77   O41   A    
C16   N12   S    
C20   H20   S    
C49   C53   S    
C68   O4    A    
C58   C78   S    
C23   C24   A    
C66   O2    A    
C63   C64   S    
C53   H1    S    
C2    O22   A    
C34   H26   S    
N2    H40   S    
C39   C75   S    
C8    C84   D    
C40   C76   S    
C73   O9    A    
C27   C28   A    
C56   H4    S    
C66   O38   A    
C81   O61   S    
N11   H66   S    
C57   O58   S    
C29   H22   S    
C45   O29   A    
C48   O32   A    
C70   O50   A    
C5    C89   S    
C52   C56   S    
Cr5   O25   S    
C69   O45   A    
C71   O47   A    
