data_mof_unit_43007.cif
_audit_creation_date              2012-12-10T16:38:32-0500
_audit_creation_method            fapswitch 2.2
_symmetry_space_group_name_H-M    P1
_symmetry_Int_Tables_number       1
_space_group_crystal_system       triclinic
_cell_length_a                    10.896321
_cell_length_b                    10.880797
_cell_length_c                    17.762179
_cell_angle_alpha                 99.104906
_cell_angle_beta                  72.671014
_cell_angle_gamma                 98.831973
_cell_volume                      1972.29223887

loop_
_atom_site_label
_atom_site_type_symbol
_atom_type_description
_atom_site_fract_x
_atom_site_fract_y
_atom_site_fract_z
_atom_type_partial_charge
C1    C     C_R   0.158427 0.480304 0.517356 0.943098
C2    C     C_R   0.652400 0.492679 0.923425 -0.234739
C3    C     C_R   0.717486 0.428745 0.959357 0.084977
C4    C     C_R   0.843148 0.519312 0.482125 0.809901
C5    C     C_R   0.653734 0.397857 0.037318 0.068171
C6    C     C_R   0.554327 0.470623 0.085103 0.045361
C7    C     C_R   0.691492 0.305057 0.071405 0.074966
C8    C     C_R   0.671566 0.320153 0.154897 0.058178
C9    C     C_R   0.525088 0.475179 0.167833 -0.279994
C10   C     C_2   0.981457 0.524739 0.475129 -0.254509
C11   C     C_2   0.022341 0.472408 0.527473 -0.140605
C12   C     C_R   0.345920 0.708313 0.840793 -0.037069
C13   C     C_2   0.546195 0.969328 0.483238 -0.125370
C14   C     C_2   0.445499 0.037019 0.522584 -0.051659
C15   C     C_R   0.464220 0.169428 0.518722 0.848756
C16   C     C_R   0.530605 0.833514 0.483731 0.857441
C17   C     C_R   0.565739 0.433955 0.287840 0.808754
C18   C     C_R   0.437045 0.565973 0.713268 0.797112
C19   C     C_R   0.415319 0.604756 0.801068 -0.229918
C20   C     C_R   0.589857 0.409161 0.201915 -0.049514
C21   C     C_R   0.309570 0.732555 0.925098 0.013670
C22   C     C_3   0.298857 0.816598 0.105299 -0.422945
C23   C     C_R   0.461382 0.537325 0.846592 -0.088480
C24   C     C_3   0.364499 0.872434 0.171042 -0.374503
C25   C     C_3   0.327611 0.003673 0.206365 -0.861098
C26   C     C_3   0.734921 0.184315 0.020757 -0.427316
C27   C     C_3   0.634119 0.070962 0.043167 -0.354941
C28   C     C_3   0.681017 0.950025 0.993868 -0.869878
C29   C     C_2   0.074494 0.588659 0.408363 0.892668
C30   C     C_3   0.933844 0.407023 0.598042 -0.358476
C31   C     C_3   0.002612 0.357743 0.649390 -0.424655
C32   C     C_3   0.904656 0.289054 0.714489 -0.839523
C33   C     C_3   0.679314 0.029474 0.438990 -0.418907
C34   C     C_R   0.458476 0.585251 0.925987 -0.019254
C35   C     C_3   0.773608 0.045246 0.489972 -0.313527
C36   C     C_3   0.906292 0.107717 0.447602 -0.874489
C37   C     C_3   0.307624 0.978015 0.560948 -0.382144
C38   C     C_3   0.200211 0.065125 0.585616 -0.393897
C39   C     C_3   0.069743 0.993718 0.623513 -0.867059
C40   C     C_3   0.741197 0.248342 0.193659 -0.473913
C41   C     C_3   0.865396 0.326136 0.205509 -0.324962
C42   C     C_3   0.930611 0.258794 0.249638 -0.845096
C43   C     C_3   0.860587 0.416227 0.918416 -0.421163
C44   C     C_3   0.948004 0.475074 0.971429 -0.369621
C45   C     C_R   0.373695 0.676414 0.968763 0.050836
C46   C     C_3   0.089395 0.457612 0.929191 -0.818707
C47   C     C_3   0.185749 0.795527 0.964532 -0.446541
C48   C     C_3   0.204584 0.938960 0.963146 -0.306124
C49   C     C_3   0.102787 0.003395 0.030455 -0.904526
C50   C     C_2   0.303794 0.788593 0.795325 0.944769
C51   C     C_2   0.483313 0.403667 0.819623 0.946607
C52   C     C_R   0.532639 0.536037 0.965217 0.046928
C53   C     C_R   0.492818 0.540560 0.048246 0.060758
C54   C     C_R   0.397026 0.618313 0.090817 -0.223798
C55   C     C_R   0.354643 0.701125 0.053269 0.081647
H1    H     H_    0.457827 0.535052 0.208122 0.137095
H2    H     H_    0.194296 0.792914 0.134486 0.206650
H3    H     H_    0.701540 0.957154 0.929496 0.269420
H4    H     H_    0.770092 0.931023 0.006091 0.256889
H5    H     H_    0.605335 0.870160 0.009261 0.258864
H6    H     H_    0.612361 0.060197 0.106911 0.226888
H7    H     H_    0.542398 0.085177 0.032009 0.230823
H8    H     H_    0.742152 0.187654 0.957843 0.212517
H9    H     H_    0.831483 0.169556 0.024533 0.206191
H10   H     H_    0.238091 0.704314 0.370388 0.321514
H11   H     H_    0.836691 0.353646 0.753920 0.287834
H12   H     H_    0.360880 0.624124 0.154264 0.153570
H13   H     H_    0.847822 0.209303 0.688231 0.268523
H14   H     H_    0.956136 0.252635 0.750155 0.243718
H15   H     H_    0.070846 0.291663 0.611806 0.218517
H16   H     H_    0.057584 0.436947 0.677595 0.241518
H17   H     H_    0.868696 0.474281 0.637951 0.250329
H18   H     H_    0.876202 0.324543 0.574826 0.247771
H19   H     H_    0.948149 0.051140 0.390303 0.268886
H20   H     H_    0.898257 0.203240 0.436242 0.256715
H21   H     H_    0.972537 0.115757 0.485521 0.255337
H22   H     H_    0.734420 0.103595 0.547081 0.240946
H23   H     H_    0.698438 0.514803 0.863394 0.168364
H24   H     H_    0.785246 0.952066 0.503476 0.223639
H25   H     H_    0.718056 0.969750 0.382390 0.217319
H26   H     H_    0.674764 0.121454 0.420984 0.188442
H27   H     H_    0.047855 0.910342 0.582657 0.275302
H28   H     H_    0.070245 0.963211 0.680189 0.262075
H29   H     H_    0.992040 0.054922 0.635919 0.255089
H30   H     H_    0.222105 0.144863 0.628933 0.217274
H31   H     H_    0.192307 0.101867 0.532548 0.246547
H32   H     H_    0.279690 0.901058 0.517823 0.245456
H33   H     H_    0.307791 0.939848 0.615410 0.252983
H34   H     H_    0.358688 0.068355 0.159978 0.257593
H35   H     H_    0.864721 0.243175 0.309286 0.247422
H36   H     H_    0.956765 0.167177 0.215572 0.254619
H37   H     H_    0.020201 0.316944 0.257211 0.277085
H38   H     H_    0.933845 0.342819 0.146667 0.219174
H39   H     H_    0.843523 0.418425 0.240004 0.255339
H40   H     H_    0.675926 0.222822 0.251593 0.195277
H41   H     H_    0.768385 0.158680 0.157940 0.217428
H42   H     H_    0.101389 0.356434 0.912812 0.278188
H43   H     H_    0.123320 0.505502 0.874675 0.272404
H44   H     H_    0.149725 0.497850 0.969531 0.258451
H45   H     H_    0.221223 0.000411 0.232876 0.266698
H46   H     H_    0.937942 0.576755 0.987226 0.224357
H47   H     H_    0.920487 0.431219 0.027167 0.225911
H48   H     H_    0.878851 0.318234 0.896315 0.195045
H49   H     H_    0.893263 0.465984 0.864607 0.215036
H50   H     H_    0.004125 0.965384 0.026258 0.260614
H51   H     H_    0.111605 0.989165 0.089082 0.260947
H52   H     H_    0.116626 0.105585 0.026133 0.263910
H53   H     H_    0.302681 0.980053 0.966926 0.222621
H54   H     H_    0.195069 0.961001 0.906393 0.242894
H55   H     H_    0.111809 0.754771 0.933228 0.224668
H56   H     H_    0.375964 0.040851 0.253539 0.258088
H57   H     H_    0.138225 0.768840 0.024626 0.204530
H58   H     H_    0.165363 0.820703 0.749062 0.333090
H59   H     H_    0.413251 0.222676 0.830254 0.350692
H60   H     H_    0.333539 0.812940 0.220260 0.223581
H61   H     H_    0.471225 0.877010 0.146910 0.231302
H62   H     H_    0.313439 0.891424 0.067545 0.238221
O1    O     O_3   0.500000 0.500000 0.500000 -0.490795
O2    O     O_R   0.470800 0.371790 0.332500 -0.637805
O3    O     O_R   0.380610 0.619380 0.674980 -0.625977
O4    O     O_R   0.632640 0.524780 0.317540 -0.640667
O5    O     O_R   0.515950 0.484050 0.674980 -0.598772
O6    O     O_2   0.053878 0.574409 0.343323 -0.628219
O7    O     O_R   0.183537 0.666667 0.420112 -0.827171
O8    O     O_2   0.376430 0.879024 0.769343 -0.651332
O9    O     O_R   0.182407 0.759501 0.781281 -0.817121
O10   O     O_2   0.585007 0.375719 0.772267 -0.629773
O11   O     O_R   0.387751 0.309975 0.851688 -0.817991
O12   O     O_R   0.535460 0.243030 0.556410 -0.630459
O13   O     O_R   0.437420 0.784080 0.535340 -0.646136
O14   O     O_R   0.223560 0.397520 0.472140 -0.660621
O15   O     O_R   0.803560 0.575360 0.436110 -0.609033
O16   O     O_R   0.209690 0.568800 0.556400 -0.616520
O17   O     O_R   0.763190 0.458310 0.535350 -0.658017
O18   O     O_R   0.414000 0.207090 0.472140 -0.671023
O19   O     O_R   0.613120 0.765800 0.436110 -0.643854
Zn1   Zn    Zn3+2 0.577310 0.422690 0.565550 0.974168
Zn2   Zn    Zn3+2 0.403760 0.371330 0.445150 0.949426
Zn3   Zn    Zn3+2 0.634990 0.589920 0.423760 0.985026
Zn4   Zn    Zn3+2 0.383940 0.616050 0.565540 0.998801

loop_
_geom_bond_atom_site_label_1
_geom_bond_atom_site_label_2
_ccdc_geom_bond_type
C22   H62   S    
C46   H44   S    
O18   Zn2   S    
C41   C42   S    
C37   H33   S    
C35   C36   S    
C1    C11   S    
C43   C44   S    
O13   Zn4   S    
O17   Zn1   S    
C22   C55   S    
C7    C8    A    
C4    O15   A    
C53   C54   A    
O15   Zn3   S    
C40   H40   S    
C3    C43   S    
C26   C27   S    
C8    C20   A    
C7    C26   S    
C38   H31   S    
C5    C6    A    
C51   O11   S    
C32   H11   S    
C27   H7    S    
C40   H41   S    
C39   H29   S    
C18   C19   S    
C30   C31   S    
C1    O16   A    
C15   O18   A    
C47   H57   S    
C29   O7    S    
C17   C20   S    
C42   H36   S    
H10   O7    S    
C26   H9    S    
C43   H49   S    
C36   H21   S    
C31   H15   S    
C41   H38   S    
C47   C48   S    
C11   C30   S    
C5    C7    A    
O3    Zn4   S    
O1    Zn1   S    
C16   O13   A    
C50   O8    D    
C32   H13   S    
C31   H16   S    
C48   H54   S    
C46   H43   S    
C13   C14   D    
C22   H2    S    
O19   Zn3   S    
O1    Zn4   S    
C44   C46   S    
C21   C45   A    
C28   H5    S    
C38   C39   S    
C9    C20   A    
C38   H30   S    
C25   H56   S    
C24   C25   S    
O5    Zn1   S    
C49   H52   S    
C34   C45   A    
C30   H18   S    
C44   H47   S    
C49   H50   S    
C54   H12   S    
C3    C5    A    
C12   C21   A    
C35   H22   S    
C42   H35   S    
C27   H6    S    
C19   C23   A    
C26   H8    S    
C13   C33   S    
C37   C38   S    
C2    H23   S    
C36   H20   S    
H59   O11   S    
C25   H45   S    
C23   C51   S    
C41   H39   S    
C15   O12   A    
C23   C34   A    
C9    H1    S    
C32   H14   S    
C36   H19   S    
C18   O5    A    
C50   O9    S    
C17   O4    A    
C48   C49   S    
C46   H42   S    
C24   H61   S    
C22   C24   S    
C6    C53   A    
C4    C10   S    
O1    Zn3   S    
C16   O19   A    
C18   O3    A    
C52   C53   A    
C4    O17   A    
C28   H4    S    
C54   C55   A    
C40   C41   S    
O2    Zn2   S    
C34   C52   A    
C37   H32   S    
C31   C32   S    
C39   H27   S    
C30   H17   S    
C1    O14   A    
C12   C50   S    
C44   H46   S    
C33   H25   S    
C49   H51   S    
H58   O9    S    
C28   H3    S    
C47   H55   S    
C25   H34   S    
C2    C52   A    
C51   O10   D    
O4    Zn3   S    
C2    C3    A    
C39   H28   S    
O14   Zn2   S    
C14   C37   S    
C10   C29   S    
C48   H53   S    
C29   O6    D    
C12   C19   A    
C35   H24   S    
C33   C35   S    
C42   H37   S    
C43   H48   S    
C10   C11   D    
C17   O2    A    
C24   H60   S    
C6    C9    A    
O12   Zn1   S    
C45   C55   A    
O16   Zn4   S    
C13   C16   S    
C27   C28   S    
C14   C15   S    
C8    C40   S    
O1    Zn2   S    
C33   H26   S    
C21   C47   S    
