data_mof_unit_21089.cif
_audit_creation_date              2012-12-11T16:05:04-0500
_audit_creation_method            fapswitch 2.2
_symmetry_space_group_name_H-M    P1
_symmetry_Int_Tables_number       1
_space_group_crystal_system       triclinic
_cell_length_a                    10.635129
_cell_length_b                    10.595333
_cell_length_c                    16.899357
_cell_angle_alpha                 98.232812
_cell_angle_beta                  98.361719
_cell_angle_gamma                 61.748189
_cell_volume                      1653.53804299

loop_
_atom_site_label
_atom_site_type_symbol
_atom_type_description
_atom_site_fract_x
_atom_site_fract_y
_atom_site_fract_z
_atom_type_partial_charge
C1    C     C_R   0.351617 0.782457 0.401641 0.540510
C2    C     C_3   0.687965 0.319998 0.237235 -0.132312
C3    C     C_3   0.747182 0.387258 0.309488 0.051900
C4    C     C_3   0.901238 0.287482 0.289959 -0.115404
C5    C     C_3   0.891106 0.402079 0.239521 -0.106504
C6    C     C_3   0.736388 0.502618 0.260088 -0.122204
C7    C     C_3   0.677785 0.435455 0.186075 -0.145048
C8    C     C_3   0.831899 0.335100 0.166570 0.057005
C9    C     C_3   0.434449 0.826426 0.222091 -0.118881
C10   C     C_3   0.369341 0.740771 0.251752 -0.115836
C11   C     C_3   0.330571 0.846015 0.327248 0.054977
C12   C     C_R   0.369590 0.346180 0.359167 0.541612
C13   C     C_3   0.396671 0.931028 0.299070 -0.121861
C14   C     C_3   0.247705 0.027955 0.256976 -0.144848
C15   C     C_3   0.182963 0.941429 0.286933 -0.128253
C16   C     C_3   0.221433 0.836356 0.211104 -0.099198
C17   C     C_3   0.286462 0.921732 0.181914 0.053528
C18   C     C_3   0.479638 0.272967 0.789355 0.105723
C19   C     C_3   0.443257 0.417071 0.759184 -0.154620
C20   C     C_3   0.379947 0.368229 0.680451 0.028070
C21   C     C_3   0.419810 0.222855 0.710763 -0.071520
C22   C     C_3   0.271011 0.291707 0.743096 -0.123890
C23   C     C_R   0.706246 0.416192 0.390702 0.562823
C24   C     C_3   0.230841 0.437382 0.711911 -0.111236
C25   C     C_3   0.293671 0.484472 0.792614 -0.149280
C26   C     C_3   0.334202 0.338708 0.822553 0.071235
C27   C     C_1   0.818481 0.340818 0.709333 -0.048715
C28   C     C_1   0.844815 0.314734 0.778018 -0.056458
C29   C     C_1   0.338269 0.811823 0.709770 -0.040889
C30   C     C_1   0.313759 0.838893 0.778642 -0.043666
C31   C     C_R   0.891011 0.310929 0.090624 0.539346
C32   C     C_R   0.318517 0.298965 0.120493 0.532013
C33   C     C_R   0.256334 0.959665 0.099206 0.560447
C34   C     C_R   0.356558 0.771407 0.627219 0.540827
C35   C     C_R   0.885057 0.299564 0.860832 0.538717
C36   C     C_R   0.311269 0.297665 0.894977 0.551623
C37   C     C_R   0.280462 0.884238 0.859139 0.549332
C38   C     C_R   0.409377 0.378257 0.601077 0.565269
C39   C     C_R   0.774953 0.378818 0.629399 0.550238
C40   C     C_1   0.341326 0.335331 0.275522 -0.070172
C41   C     C_1   0.329691 0.325167 0.204245 -0.063922
C42   C     C_3   0.843544 0.219343 0.216256 -0.115616
Cr1   Cr    Cr6+3 0.608340 0.611040 0.520430 1.017396
Cr2   Cr    Cr6+3 0.287650 0.601120 0.489350 1.021823
Cr3   Cr    Cr6+3 0.604040 0.287870 0.490280 1.014094
Cr4   Cr    Cr6+3 0.054020 0.052700 0.970850 1.020755
Cr5   Cr    Cr6+3 0.059230 0.375120 0.993390 1.022127
Cr6   Cr    Cr6+3 0.374950 0.061200 0.992340 1.038625
H1    H     H_    0.606078 0.284477 0.238722 0.130273
H2    H     H_    0.198514 0.146376 0.256267 0.101691
H3    H     H_    0.081610 0.983916 0.315611 0.122105
H4    H     H_    0.149590 0.796300 0.175031 0.136367
H5    H     H_    0.515579 0.466975 0.764121 0.103338
H6    H     H_    0.472809 0.114996 0.677798 0.142438
H7    H     H_    0.199106 0.241122 0.737812 0.116374
H8    H     H_    0.127913 0.505124 0.678050 0.148862
H9    H     H_    0.241636 0.590216 0.827718 0.137943
H10   H     H_    0.887696 0.103063 0.196234 0.124688
H11   H     H_    0.989270 0.233376 0.336409 0.122306
H12   H     H_    0.975998 0.434850 0.239295 0.128345
H13   H     H_    0.696302 0.617317 0.282527 0.123137
H14   H     H_    0.588033 0.494285 0.141372 0.115591
H15   H     H_    0.417140 0.622264 0.251760 0.105398
H16   H     H_    0.535046 0.781823 0.192330 0.125776
H17   H     H_    0.468236 0.969139 0.337219 0.137514
O1    O     O_R   0.751220 0.499230 0.435170 -0.510186
O2    O     O_R   0.297880 0.469080 0.560050 -0.496017
O3    O     O_R   0.489720 0.254590 0.564810 -0.518192
O4    O     O_R   0.725220 0.304230 0.585080 -0.508842
O5    O     O_3   0.500010 0.500010 0.500020 -0.302500
O6    O     O_R   0.171830 0.913880 0.057510 -0.523366
O7    O     O_R   0.940690 0.186050 0.054730 -0.519890
O8    O     O_R   0.920470 0.405720 0.075010 -0.517380
O9    O     O_R   0.196690 0.370460 0.084120 -0.504106
O10   O     O_R   0.412990 0.180750 0.091610 -0.518692
O11   O     O_R   0.366620 0.943130 0.065760 -0.500700
O12   O     O_R   0.477220 0.727600 0.436870 -0.520689
O13   O     O_R   0.160510 0.906330 0.879210 -0.507593
O14   O     O_R   0.930190 0.179050 0.889450 -0.498943
O15   O     O_R   0.909140 0.398170 0.896710 -0.500810
O16   O     O_R   0.186190 0.363460 0.918830 -0.505101
O17   O     O_R   0.401670 0.173200 0.913310 -0.481098
O18   O     O_R   0.356120 0.936130 0.900470 -0.485251
O19   O     O_3   0.162740 0.163010 0.985530 -0.279780
O20   O     O_R   0.258650 0.745120 0.411470 -0.512299
O21   O     O_R   0.297070 0.467240 0.395960 -0.489689
O22   O     O_R   0.488830 0.252610 0.387790 -0.522396
O23   O     O_R   0.724400 0.302390 0.420980 -0.498192
O24   O     O_R   0.752100 0.501210 0.612190 -0.499989
O25   O     O_R   0.478040 0.729440 0.600970 -0.497702
O26   O     O_R   0.259530 0.747110 0.588490 -0.514154
N1    N     N_3   0.615042 0.182560 0.832869 -0.585825
H18   H     H_    0.695478 0.150166 0.794445 0.235093
H19   H     H_    0.634039 0.247134 0.880903 0.232460

loop_
_geom_bond_atom_site_label_1
_geom_bond_atom_site_label_2
_ccdc_geom_bond_type
C18   C21   S    
C1    O12   A    
Cr6   O11   S    
C3    C23   S    
C19   C20   S    
C1    C11   S    
C3    C6    S    
C42   H10   S    
C32   O10   A    
C7    C8    S    
C13   H17   S    
Cr1   O24   S    
C25   H9    S    
C6    H13   S    
Cr3   O22   S    
C8    C42   S    
C32   O9    A    
C5    C6    S    
C31   O8    A    
C15   C16   S    
C9    H16   S    
C35   O15   A    
C18   C19   S    
C9    C13   S    
C34   O26   A    
C11   C15   S    
C10   H15   S    
C2    C7    S    
C28   C35   S    
C36   O17   A    
C16   C17   S    
C18   C26   S    
C32   C41   S    
Cr2   O5    S    
C15   H3    S    
C9    C10   S    
Cr4   O7    S    
C5    H12   S    
C19   H5    S    
C21   C22   S    
Cr6   O10   S    
C17   C33   S    
Cr5   O15   S    
Cr2   O21   S    
C1    O20   A    
Cr1   O25   S    
C14   H2    S    
Cr3   O4    S    
C20   C24   S    
Cr3   O23   S    
C24   C25   S    
Cr5   O8    S    
C27   C39   S    
Cr4   O13   S    
C25   C26   S    
C29   C34   S    
Cr6   O19   S    
C30   C37   S    
C12   C40   S    
C34   O25   A    
C7    H14   S    
C29   C30   T    
C2    H1    S    
C20   C38   S    
C33   O11   A    
C36   O16   A    
Cr3   O3    S    
N1    H19   S    
C39   O4    A    
Cr5   O19   S    
C20   C21   S    
Cr4   O6    S    
C6    C7    S    
Cr2   O26   S    
Cr4   O19   S    
C9    C17   S    
C31   O7    A    
C38   O3    A    
Cr1   O5    S    
C23   O23   A    
C22   C24   S    
Cr1   O12   S    
C3    C4    S    
C23   O1    A    
C26   C36   S    
C40   C41   T    
C12   O22   A    
Cr3   O5    S    
C8    C31   S    
C16   H4    S    
Cr5   O9    S    
C4    C5    S    
C5    C8    S    
C22   H7    S    
C24   H8    S    
C37   O13   A    
Cr6   O18   S    
C12   O21   A    
C21   H6    S    
C18   N1    S    
C2    C3    S    
C10   C16   S    
C11   C13   S    
Cr4   O14   S    
C4    C42   S    
C2    C42   S    
Cr1   O1    S    
C4    H11   S    
C35   O14   A    
N1    H18   S    
Cr6   O17   S    
Cr5   O16   S    
C19   C25   S    
C10   C11   S    
C33   O6    A    
C38   O2    A    
C22   C26   S    
C27   C28   T    
C14   C15   S    
C37   O18   A    
Cr2   O2    S    
C13   C14   S    
C39   O24   A    
Cr2   O20   S    
C14   C17   S    
