data_mof_unit_47908.cif
_audit_creation_date              2012-12-10T18:07:33-0500
_audit_creation_method            fapswitch 2.2
_symmetry_space_group_name_H-M    P1
_symmetry_Int_Tables_number       1
_space_group_crystal_system       triclinic
_cell_length_a                    11.550023
_cell_length_b                    12.730361
_cell_length_c                    13.149688
_cell_angle_alpha                 82.438131
_cell_angle_beta                  91.522712
_cell_angle_gamma                 102.604793
_cell_volume                      1870.46322403

loop_
_atom_site_label
_atom_site_type_symbol
_atom_type_description
_atom_site_fract_x
_atom_site_fract_y
_atom_site_fract_z
_atom_type_partial_charge
C1    C     C_R   0.484367 0.439190 0.690522 0.928354
C2    C     C_R   0.540447 0.597755 0.201183 -0.254327
C3    C     C_R   0.330778 0.348093 0.811736 -0.170685
C4    C     C_R   0.269304 0.364996 0.894753 -0.142513
C5    C     C_R   0.326484 0.433865 0.962899 -0.012377
C6    C     C_R   0.451417 0.474352 0.958632 0.069461
C7    C     C_R   0.513870 0.453953 0.874619 -0.135097
C8    C     C_R   0.515721 0.537577 0.031889 -0.008690
C9    C     C_R   0.635813 0.592860 0.009869 -0.183899
C10   C     C_R   0.696126 0.569179 0.926732 0.451209
C11   C     C_R   0.637936 0.492091 0.866449 0.389382
C12   C     C_R   0.717674 0.501180 0.500243 0.962183
C13   C     C_R   0.468580 0.541066 0.129509 0.386769
C14   C     C_R   0.650128 0.665992 0.171983 0.347502
C15   C     C_R   0.449410 0.401629 0.796521 -0.028821
C16   C     C_R   0.359390 0.095212 0.327329 0.374797
C17   C     C_R   0.646996 0.804136 0.625157 0.380700
C18   C     C_R   0.686503 0.912554 0.643452 0.341269
C19   C     C_R   0.634209 0.990738 0.590074 -0.153539
C20   C     C_R   0.537476 0.963009 0.524477 -0.007819
C21   C     C_R   0.506109 0.854115 0.502929 0.134088
C22   C     C_R   0.477745 0.041496 0.473463 -0.026527
C23   C     C_R   0.515807 0.560759 0.309391 0.884780
C24   C     C_R   0.405192 0.014383 0.388019 -0.118162
C25   C     C_R   0.376972 0.906625 0.366961 -0.186623
C26   C     C_R   0.424864 0.827751 0.424931 -0.098872
C27   C     C_R   0.487418 0.145904 0.504070 0.404869
C28   C     C_R   0.376098 0.197715 0.358196 0.467616
C29   C     C_R   0.282329 0.498865 0.499663 0.847399
C30   C     C_1   0.838910 0.503042 0.500681 -0.071120
C31   C     C_1   0.940915 0.501627 0.500434 0.057823
C32   C     C_1   0.059105 0.498531 0.499768 0.034187
C33   C     C_1   0.161095 0.497050 0.499386 -0.146384
C34   C     C_R   0.697336 0.662549 0.077178 -0.179798
H1    H     H_    0.315241 0.881012 0.307122 0.166928
H2    H     H_    0.676361 0.073637 0.597401 0.235217
H3    H     H_    0.400221 0.747392 0.404327 0.191302
H4    H     H_    0.787046 0.707912 0.061715 0.197603
H5    H     H_    0.281242 0.306709 0.752002 0.166647
H6    H     H_    0.268487 0.458460 0.013227 0.201273
H7    H     H_    0.174500 0.333029 0.900852 0.178575
N1    N     N_R   0.440320 0.222190 0.444690 -0.240850
N2    N     N_R   0.559060 0.776980 0.554780 -0.167178
O1    O     O_R   0.471500 0.366730 0.627160 -0.604154
O2    O     O_R   0.509620 0.544830 0.662520 -0.566575
O3    O     O_R   0.646490 0.410960 0.482310 -0.652880
O4    O     O_R   0.684610 0.589050 0.517670 -0.514559
O5    O     O_R   0.490380 0.455170 0.337480 -0.577209
O6    O     O_R   0.528500 0.633270 0.372840 -0.598160
O7    O     O_R   0.315390 0.410950 0.482330 -0.641970
O8    O     O_R   0.353510 0.589040 0.517690 -0.632546
Zn1   Zn    Zn3+2 0.474550 0.381080 0.476390 0.979770
Zn2   Zn    Zn3+2 0.525450 0.618920 0.523610 1.032898
Cl1   Cl    Cl    0.741375 0.742703 0.257808 -0.566826
O9    O     O_3   0.296848 0.077665 0.237909 -0.674959
H8    H     H_    0.332154 0.028407 0.202164 0.336481
O10   O     O_3   0.532784 0.166896 0.598568 -0.740083
H9    H     H_    0.579952 0.241890 0.589923 0.387165
Cl2   Cl    Cl    0.720430 0.706216 0.685622 -0.556883
O11   O     O_3   0.778260 0.947160 0.709202 -0.713969
H10   H     H_    0.799078 0.884490 0.752438 0.376095
O12   O     O_3   0.814788 0.613260 0.907456 -0.670624
H11   H     H_    0.827347 0.692714 0.907569 0.342665
O13   O     O_3   0.360523 0.475693 0.160933 -0.734709
H12   H     H_    0.325223 0.510049 0.212323 0.317965
Cl3   Cl    Cl    0.725028 0.441238 0.783649 -0.524144
O14   O     O_3   0.326413 0.272536 0.297729 -0.644106
H13   H     H_    0.307074 0.322542 0.341982 0.374666

loop_
_geom_bond_atom_site_label_1
_geom_bond_atom_site_label_2
_ccdc_geom_bond_type
C16   C28   A    
O7    Zn1   S    
O9    H8    S    
C17   N2    A    
C26   H3    S    
C14   C34   A    
C6    C7    A    
C1    C15   S    
C29   C33   S    
C9    C10   A    
C1    O1    A    
C19   C20   A    
C11   Cl3   S    
C30   C31   T    
O4    Zn2   S    
C32   C33   T    
O1    Zn1   S    
C7    C15   A    
C17   C18   A    
C25   C26   A    
C16   O9    S    
C3    H5    S    
C16   C24   A    
C10   O12   S    
C4    H7    S    
O13   H12   S    
C7    C11   A    
C27   N1    A    
C1    O2    A    
O10   H9    S    
O12   H11   S    
C13   O13   S    
C29   O7    A    
C17   Cl2   S    
C12   O4    A    
O6    Zn2   S    
C18   O11   S    
C14   Cl1   S    
C21   C26   A    
C25   H1    S    
C9    C34   A    
C34   H4    S    
C22   C27   A    
C27   O10   S    
C5    C6    A    
C2    C14   A    
C22   C24   A    
C24   C25   A    
C23   O6    A    
C10   C11   A    
O2    Zn2   S    
O14   H13   S    
C8    C13   A    
O3    Zn1   S    
O5    Zn1   S    
C28   O14   S    
C3    C15   A    
C20   C21   A    
C8    C9    A    
C12   O3    A    
C18   C19   A    
C29   O8    A    
C5    H6    S    
C28   N1    A    
C2    C23   S    
C2    C13   A    
O11   H10   S    
C6    C8    A    
C23   O5    A    
C12   C30   S    
C19   H2    S    
C21   N2    A    
N2    Zn2   S    
C31   C32   S    
C3    C4    A    
C20   C22   A    
C4    C5    A    
O8    Zn2   S    
N1    Zn1   S    
