data_mof_unit_39563.cif
_audit_creation_date              2012-10-26T19:03:31-0400
_audit_creation_method            fapswitch 2.2
_symmetry_space_group_name_H-M    P1
_symmetry_Int_Tables_number       1
_space_group_crystal_system       triclinic
_cell_length_a                    10.777001
_cell_length_b                    13.087722
_cell_length_c                    11.767396
_cell_angle_alpha                 100.452816
_cell_angle_beta                  93.632363
_cell_angle_gamma                 91.249259
_cell_volume                      1627.98801557

loop_
_atom_site_label
_atom_site_type_symbol
_atom_type_description
_atom_site_fract_x
_atom_site_fract_y
_atom_site_fract_z
_atom_type_partial_charge
C1    C     C_R   0.499202 0.299383 0.478088 0.624848
C2    C     C_R   0.440343 0.123464 0.366067 0.392779
C3    C     C_R   0.551157 0.140492 0.554391 0.303144
C4    C     C_R   0.262651 0.502473 0.500972 0.674454
C5    C     C_R   0.541656 0.031990 0.548555 -0.036939
C6    C     C_R   0.471495 0.970294 0.452813 -0.090776
C7    C     C_R   0.450747 0.863360 0.451050 -0.000633
C8    C     C_R   0.591278 0.875335 0.624939 -0.071070
C9    C     C_R   0.600648 0.983725 0.635040 0.001415
C10   C     C_R   0.362831 0.415870 0.025012 -0.063071
C11   C     C_R   0.382418 0.420192 0.145892 0.117796
C12   C     C_R   0.067215 0.603252 0.520006 -0.026909
C13   C     C_R   0.556538 0.535540 0.155314 0.084447
C14   C     C_R   0.544940 0.530111 0.033015 0.009533
C15   C     C_R   0.447902 0.468549 0.965399 -0.068092
C16   C     C_R   0.506413 0.700752 0.521767 0.588254
C17   C     C_R   0.441842 0.462131 0.841547 0.107067
C18   C     C_R   0.616557 0.577704 0.856109 0.105765
C19   C     C_R   0.629136 0.584486 0.976943 0.361106
C20   C     C_R   0.737108 0.498741 0.499276 0.530611
C21   C     C_R   0.131593 0.701244 0.544251 0.372361
C22   C     C_R   0.066676 0.793631 0.552721 0.039921
C23   C     C_R   0.128839 0.507287 0.503695 0.021747
C24   C     C_R   0.937282 0.790004 0.539127 -0.146235
C25   C     C_R   0.872190 0.694803 0.520243 -0.096900
C26   C     C_R   0.935678 0.600855 0.512627 -0.035165
C27   C     C_1   0.675673 0.043132 0.733043 0.343216
C28   C     C_1   0.357583 0.388568 0.766671 0.316669
C29   C     C_1   0.250067 0.361952 0.967861 0.200905
C30   C     C_1   0.298540 0.360341 0.201528 0.343762
C31   C     C_1   0.133020 0.892867 0.576110 0.288801
C32   C     C_1   0.358181 0.803982 0.368207 0.380614
C33   C     C_1   0.667024 0.827310 0.705637 0.205986
C34   C     C_R   0.061495 0.412622 0.487715 0.355663
C35   C     C_R   0.933154 0.411387 0.486497 -0.074901
C36   C     C_R   0.870624 0.504300 0.498493 -0.031712
C37   C     C_R   0.514656 0.814959 0.534330 -0.009738
C38   C     C_R   0.497361 0.186079 0.465220 -0.021852
C39   C     C_R   0.425410 0.017406 0.360265 0.412477
Cu1   Cu    Cu3+1 0.509250 0.507730 0.615930 1.081734
Cu2   Cu    Cu3+1 0.490750 0.492270 0.384070 1.043473
F1    F     F_    0.120667 0.321046 0.474651 -0.585728
F2    F     F_    0.396874 0.164465 0.274182 -0.549294
F3    F     F_    0.614438 0.203122 0.645351 -0.603286
F4    F     F_    0.724555 0.643321 0.038456 -0.611258
F5    F     F_    0.256465 0.708585 0.564842 -0.652001
F6    F     F_    0.369290 0.961552 0.261066 -0.549751
H1    H     H_    0.684450 0.616781 0.814454 0.180409
H2    H     H_    0.629824 0.583689 0.207224 0.184923
H3    H     H_    0.886319 0.861053 0.544931 0.135057
H4    H     H_    0.771807 0.695384 0.511371 0.122529
H5    H     H_    0.882034 0.337609 0.475778 0.167927
N1    N     N_R   0.523180 0.519350 0.790130 -0.296337
N2    N     N_R   0.476820 0.480650 0.209890 -0.276876
N3    N     N_1   0.735521 0.089894 0.811222 -0.164699
N4    N     N_1   0.290336 0.328964 0.706728 -0.178175
N5    N     N_1   0.159509 0.319018 0.924100 -0.193894
N6    N     N_1   0.229112 0.312395 0.243735 -0.111261
N7    N     N_1   0.186350 0.972497 0.594850 -0.219803
N8    N     N_1   0.284419 0.756538 0.302572 -0.189763
N9    N     N_1   0.729474 0.791384 0.770545 -0.250888
O1    O     O_R   0.506570 0.354460 0.582000 -0.446704
O2    O     O_R   0.490940 0.341410 0.386200 -0.464952
O3    O     O_R   0.327470 0.506530 0.597920 -0.473586
O4    O     O_R   0.311840 0.493480 0.402120 -0.501719
O5    O     O_R   0.509060 0.658590 0.613800 -0.462525
O6    O     O_R   0.493430 0.645540 0.418000 -0.519186
O7    O     O_R   0.688160 0.506520 0.597880 -0.505750
O8    O     O_R   0.672530 0.493470 0.402080 -0.517964

loop_
_geom_bond_atom_site_label_1
_geom_bond_atom_site_label_2
_ccdc_geom_bond_type
C19   F4    S    
C5    C9    A    
C6    C7    A    
C17   N1    A    
C13   N2    A    
C16   C37   S    
C35   C36   A    
C34   F1    S    
C2    F2    S    
C10   C15   A    
C23   C34   A    
C10   C11   A    
C1    O1    A    
C25   H4    S    
C28   N4    T    
Cu2   O6    S    
C16   O6    A    
Cu1   O5    S    
C13   C14   A    
Cu2   N2    S    
C17   C28   S    
C12   C23   A    
C4    O3    A    
C4    O4    A    
C11   N2    A    
C12   C21   A    
C1    C38   S    
C13   H2    S    
Cu1   O3    S    
C30   N6    T    
C26   C36   A    
Cu1   Cu2   S    
C25   C26   A    
C12   C26   A    
C29   N5    T    
C34   C35   A    
C22   C24   A    
C8    C33   S    
C24   H3    S    
C5    C6    A    
C3    F3    S    
C27   N3    T    
C20   O8    A    
C16   O5    A    
C8    C37   A    
Cu2   O2    S    
Cu1   N1    S    
C21   F5    S    
C10   C29   S    
C35   H5    S    
Cu1   O1    S    
C24   C25   A    
C9    C27   S    
C33   N9    T    
C18   C19   A    
Cu1   O7    S    
C31   N7    T    
C32   N8    T    
C15   C17   A    
C4    C23   S    
C2    C38   A    
C6    C39   A    
C1    O2    A    
C20   C36   S    
Cu2   O4    S    
C7    C32   S    
C2    C39   A    
C18   N1    A    
C3    C5    A    
C22   C31   S    
C21   C22   A    
Cu2   O8    S    
C14   C19   A    
C20   O7    A    
C39   F6    S    
C14   C15   A    
C11   C30   S    
C3    C38   A    
C8    C9    A    
C7    C37   A    
C18   H1    S    
