data_mof_unit_10735.cif
_audit_creation_date              2012-12-10T17:25:37-0500
_audit_creation_method            fapswitch 2.2
_symmetry_space_group_name_H-M    P1
_symmetry_Int_Tables_number       1
_space_group_crystal_system       triclinic
_cell_length_a                    10.094663
_cell_length_b                    10.747743
_cell_length_c                    23.428519
_cell_angle_alpha                 89.984852
_cell_angle_beta                  81.33643
_cell_angle_gamma                 95.733324
_cell_volume                      2499.99711913

loop_
_atom_site_label
_atom_site_type_symbol
_atom_type_description
_atom_site_fract_x
_atom_site_fract_y
_atom_site_fract_z
_atom_type_partial_charge
C1    C     C_R   0.556806 0.733272 0.493569 0.824797
C2    C     C_R   0.381574 0.467638 0.303253 0.395238
C3    C     C_R   0.390251 0.505235 0.772841 0.485113
C4    C     C_R   0.385785 0.474991 0.243248 0.466805
C5    C     C_R   0.512760 0.484624 0.791580 0.136000
C6    C     C_R   0.509434 0.507708 0.207878 0.161332
C7    C     C_2   0.590323 0.866033 0.481404 0.351197
C8    C     C_2   0.408841 0.133828 0.494597 0.347250
C9    C     C_2   0.489698 0.932781 0.472814 -0.226099
C10   C     C_2   0.507949 0.067144 0.471224 -0.235537
C11   C     C_2   0.927292 0.510323 0.504689 -0.127208
C12   C     C_R   0.443031 0.266732 0.501481 0.811372
C13   C     C_2   0.072757 0.489715 0.495276 -0.116384
C14   C     C_R   0.499963 0.498505 0.610878 0.954731
C15   C     C_R   0.499485 0.499845 0.389385 0.903956
C16   C     C_R   0.521148 0.392933 0.119761 0.574546
C17   C     C_R   0.527523 0.602521 0.877942 0.576667
C18   C     C_R   0.521625 0.615560 0.117116 0.506388
C19   C     C_R   0.530277 0.380184 0.880445 0.487376
C20   C     C_R   0.526884 0.615139 0.057216 -0.018857
C21   C     C_R   0.532807 0.381441 0.939857 -0.024641
C22   C     C_R   0.528994 0.499919 0.028549 -0.017232
C23   C     C_R   0.625547 0.463852 0.751953 -0.157983
C24   C     C_R   0.531326 0.496723 0.968473 -0.022747
C25   C     C_R   0.527312 0.387730 0.059900 -0.034519
C26   C     C_R   0.530489 0.608642 0.937262 -0.042915
C27   C     C_R   0.528679 0.726371 0.025580 -0.157156
C28   C     C_R   0.533672 0.270469 0.971333 -0.154121
C29   C     C_R   0.530309 0.723132 0.966081 -0.148431
C30   C     C_R   0.530706 0.273563 0.030900 -0.157626
C31   C     C_3   0.180384 0.425651 0.693349 -0.201423
C32   C     C_3   0.249549 0.299110 0.344885 -0.268648
C33   C     C_3   0.224659 0.428898 0.846327 -0.275306
C34   C     C_R   0.626449 0.539663 0.231688 -0.182862
C35   C     C_3   0.196561 0.543571 0.218779 -0.260141
C36   C     C_3   0.194286 0.085609 0.477552 -0.320673
C37   C     C_3   0.798783 0.914454 0.430507 -0.322323
C38   C     C_R   0.619647 0.467583 0.693394 -0.277408
C39   C     C_R   0.621812 0.537354 0.291018 -0.295714
C40   C     C_R   0.500330 0.491978 0.673424 -0.242115
C41   C     C_R   0.500033 0.501896 0.327166 -0.215324
C42   C     C_R   0.383817 0.508457 0.713543 0.417016
H1    H     H_    0.527488 0.815963 0.046718 0.190996
H2    H     H_    0.713672 0.563592 0.308676 0.192184
H3    H     H_    0.108955 0.421710 0.464003 0.179080
H4    H     H_    0.891138 0.578446 0.535925 0.174942
H5    H     H_    0.231128 0.353042 0.666843 0.149071
H6    H     H_    0.092746 0.446888 0.672949 0.181493
H7    H     H_    0.141045 0.388205 0.737470 0.159069
H8    H     H_    0.330233 0.268960 0.367747 0.127298
H9    H     H_    0.251078 0.251471 0.302637 0.201730
H10   H     H_    0.151353 0.268733 0.371633 0.159916
H11   H     H_    0.261762 0.435632 0.888544 0.177525
H12   H     H_    0.535026 0.180887 0.950192 0.193207
H13   H     H_    0.245045 0.337354 0.826127 0.148346
H14   H     H_    0.113696 0.430000 0.855147 0.193959
H15   H     H_    0.255406 0.623506 0.193295 0.176851
H16   H     H_    0.160814 0.573088 0.263510 0.185027
H17   H     H_    0.106301 0.516174 0.198122 0.189910
H18   H     H_    0.607849 0.111796 0.454748 0.185942
H19   H     H_    0.388579 0.888289 0.471640 0.190391
H20   H     H_    0.233156 0.045139 0.435282 0.139683
H21   H     H_    0.173516 0.183976 0.471552 0.166667
H22   H     H_    0.097032 0.031121 0.494349 0.212097
H23   H     H_    0.119871 0.614938 0.552980 0.185857
H24   H     H_    0.755705 0.960674 0.395954 0.156398
H25   H     H_    0.812997 0.815685 0.419164 0.179439
H26   H     H_    0.899733 0.964049 0.432478 0.182277
H27   H     H_    0.880091 0.384828 0.447127 0.169750
H28   H     H_    0.530148 0.810307 0.942890 0.194002
H29   H     H_    0.530067 0.186307 0.054137 0.192538
H30   H     H_    0.719129 0.447702 0.766718 0.177591
H31   H     H_    0.721231 0.565415 0.203992 0.170751
H32   H     H_    0.709761 0.452987 0.663730 0.199088
N1    N     N_R   0.517297 0.505436 0.146801 -0.328015
N2    N     N_R   0.524822 0.489338 0.851308 -0.337848
N3    N     N_2   0.842710 0.448880 0.476480 -0.190305
N4    N     N_2   0.157290 0.551120 0.523520 -0.190363
O1    O     O_R   0.431060 0.692470 0.504730 -0.628051
O2    O     O_2   0.526384 0.708300 0.847021 -0.518135
O3    O     O_2   0.519707 0.724571 0.145682 -0.568055
O4    O     O_2   0.529988 0.270855 0.852097 -0.552003
O5    O     O_3   0.266242 0.537111 0.695210 -0.553723
O6    O     O_3   0.260977 0.430281 0.338104 -0.592117
O7    O     O_3   0.279385 0.534069 0.811190 -0.560288
O8    O     O_3   0.271794 0.439903 0.218682 -0.588943
O9    O     O_3   0.283110 0.076869 0.518076 -0.576305
O10   O     O_3   0.718468 0.922395 0.484847 -0.584397
O11   O     O_R   0.568940 0.307530 0.495270 -0.628516
O12   O     O_R   0.651120 0.659650 0.489640 -0.594675
O13   O     O_R   0.348880 0.340350 0.510360 -0.601921
O14   O     O_R   0.389950 0.516450 0.591390 -0.557865
O15   O     O_R   0.610050 0.483550 0.408610 -0.627622
O16   O     O_R   0.610020 0.483630 0.576300 -0.615963
O17   O     O_R   0.389980 0.516370 0.423700 -0.572441
O18   O     O_2   0.518942 0.286824 0.150887 -0.548329
Zn1   Zn    Zn3+2 0.353060 0.521920 0.510080 0.985881
Zn2   Zn    Zn3+2 0.646940 0.478080 0.489920 0.950532

loop_
_geom_bond_atom_site_label_1
_geom_bond_atom_site_label_2
_ccdc_geom_bond_type
C33   H13   S    
C38   C40   A    
C3    C42   A    
C18   N1    A    
C3    O7    S    
C16   N1    A    
C37   O10   S    
H27   N3    S    
C30   H29   S    
C6    N1    S    
C39   C41   A    
C1    O12   A    
C35   H16   S    
C9    H19   S    
C17   C26   A    
C19   N2    A    
C19   C21   A    
C24   C26   A    
C15   O17   A    
C35   O8    S    
C27   C29   A    
O16   Zn2   S    
C2    C41   A    
C37   H26   S    
C16   C25   A    
C18   O3    S    
C31   O5    S    
C35   H17   S    
C33   O7    S    
C32   H10   S    
C11   N3    D    
C2    O6    S    
C22   C25   A    
C17   N2    A    
C36   H21   S    
C9    C10   S    
C33   H14   S    
C40   C42   A    
C31   H5    S    
C31   H7    S    
C36   H20   S    
O14   Zn1   S    
C36   O9    S    
C33   H11   S    
C32   O6    S    
C16   O18   S    
C34   C39   A    
C12   O11   A    
C15   C41   S    
C4    C6    A    
C28   H12   S    
C17   O2    S    
C6    C34   A    
C10   H18   S    
C32   H9    S    
C7    O10   S    
C5    C23   A    
C8    C12   S    
C32   H8    S    
C37   H24   S    
N4    Zn1   S    
C12   O13   A    
N3    Zn2   S    
O13   Zn1   S    
C14   O14   A    
C21   C28   A    
C20   C22   A    
C31   H6    S    
C1    O1    A    
C22   C24   A    
C19   O4    S    
C29   H28   S    
C38   H32   S    
C25   C30   A    
C7    C9    D    
C13   N4    D    
H23   N4    S    
C1    C7    S    
C23   H30   S    
O1    Zn1   S    
C42   O5    S    
C3    C5    A    
C15   O15   A    
O17   Zn1   S    
C39   H2    S    
C20   C27   A    
C23   C38   A    
O11   Zn2   S    
C35   H15   S    
C8    O9    S    
C5    N2    S    
C28   C30   A    
C13   H3    S    
C11   C13   S    
C2    C4    A    
C37   H25   S    
C14   O16   A    
C18   C20   A    
C34   H31   S    
C14   C40   S    
C27   H1    S    
C4    O8    S    
C26   C29   A    
C8    C10   D    
C21   C24   A    
C11   H4    S    
C36   H22   S    
O15   Zn2   S    
O12   Zn2   S    
