data_mof_unit_62333.cif
_audit_creation_date              2012-12-11T14:52:52-0500
_audit_creation_method            fapswitch 2.2
_symmetry_space_group_name_H-M    P1
_symmetry_Int_Tables_number       1
_space_group_crystal_system       triclinic
_cell_length_a                    8.273919
_cell_length_b                    15.226336
_cell_length_c                    27.019391
_cell_angle_alpha                 98.007686
_cell_angle_beta                  92.413239
_cell_angle_gamma                 80.690381
_cell_volume                      3325.68730901

loop_
_atom_site_label
_atom_site_type_symbol
_atom_type_description
_atom_site_fract_x
_atom_site_fract_y
_atom_site_fract_z
_atom_type_partial_charge
Ba1   Ba    Ba6+2 0.860900 0.457020 0.523210 1.720998
Ba2   Ba    Ba6+2 0.328940 0.542910 0.476780 1.716527
C1    C     C_3   0.612442 0.156631 0.665761 0.325470
C2    C     C_R   0.825843 0.522203 0.169296 0.581192
C3    C     C_2   0.785287 0.585863 0.277980 -0.082489
C4    C     C_3   0.157624 0.266313 0.655249 0.344482
C5    C     C_3   0.748812 0.602722 0.333168 -0.098563
C6    C     C_1   0.981591 0.483552 0.344284 0.012140
C7    C     C_2   0.008926 0.466695 0.295355 -0.085411
C8    C     C_2   0.910001 0.522121 0.259025 0.205730
C9    C     C_R   0.025793 0.503795 0.103222 -0.077530
C10   C     C_R   0.150536 0.483680 0.138768 -0.043611
C11   C     C_R   0.312048 0.457169 0.122322 -0.041995
C12   C     C_3   0.649664 0.235999 0.641638 0.846577
C13   C     C_R   0.862671 0.525153 0.118899 -0.032184
C14   C     C_2   0.855742 0.540525 0.363928 -0.221627
C15   C     C_2   0.342907 0.480059 0.640963 0.101534
C16   C     C_3   0.136107 0.243708 0.707445 -0.313995
C17   C     C_R   0.260917 0.463865 0.983369 0.018724
C18   C     C_R   0.981657 0.540395 0.967863 0.018475
C19   C     C_R   0.140419 0.502445 0.950325 0.053504
C20   C     C_R   0.411434 0.418891 0.962935 -0.108106
C21   C     C_R   0.442546 0.413613 0.912081 -0.057053
C22   C     C_R   0.328290 0.456569 0.879766 -0.034132
C23   C     C_3   0.472857 0.695370 0.631280 0.664558
C24   C     C_R   0.178996 0.503139 0.899251 -0.079908
C25   C     C_R   0.068156 0.550380 0.867715 -0.033310
C26   C     C_R   0.113160 0.555878 0.818303 0.600830
C27   C     C_R   0.359351 0.452418 0.828213 0.587473
C28   C     C_3   0.231408 0.266435 0.411459 0.295430
C29   C     C_2   0.452089 0.496127 0.729269 -0.111478
C30   C     C_3   0.490383 0.492307 0.674275 -0.058772
C31   C     C_1   0.199358 0.518042 0.657675 0.044534
C32   C     C_2   0.161425 0.515715 0.704780 -0.171376
C33   C     C_2   0.294442 0.505014 0.744731 0.182794
C34   C     C_3   0.416072 0.741378 0.683327 0.264593
C35   C     C_R   0.226422 0.471124 0.035360 0.017196
C36   C     C_R   0.064067 0.502510 0.051917 0.053921
C37   C     C_R   0.939491 0.532744 0.017649 0.021268
C38   C     C_R   0.348726 0.449024 0.071696 -0.112030
C39   C     C_R   0.738997 0.548506 0.083762 -0.074065
C40   C     C_3   0.263726 0.165855 0.393745 -0.366468
C41   C     C_R   0.871432 0.586078 0.935050 -0.101252
C42   C     C_R   0.915302 0.592626 0.886515 -0.049235
C43   C     C_R   0.776523 0.553670 0.034468 -0.106411
C44   C     C_R   0.740449 0.763734 0.474971 -0.351221
C45   C     C_3   0.000376 0.749560 0.339212 0.339457
C46   C     C_R   0.824571 0.821060 0.454245 -0.004886
C47   C     C_R   0.756781 0.912009 0.456171 -0.207262
C48   C     C_R   0.631140 0.951363 0.490586 -0.019778
C49   C     C_R   0.573887 0.892227 0.520288 0.409593
C50   C     C_R   0.611939 0.798889 0.506942 0.031747
C51   C     C_R   0.399187 0.081703 0.514072 0.292759
C52   C     C_3   0.972268 0.729067 0.581241 0.326811
C53   C     C_R   0.344078 0.174860 0.527603 -0.072906
C54   C     C_R   0.582006 0.209661 0.490732 0.064876
C55   C     C_R   0.653284 0.118292 0.485202 0.249635
C56   C     C_3   0.022830 0.776127 0.288038 -0.349279
C57   C     C_R   0.562253 0.051584 0.496846 -0.072888
C58   C     C_R   0.434738 0.237079 0.514772 -0.393713
C59   C     C_3   0.938364 0.830967 0.593685 -0.314682
C60   C     C_3   0.737480 0.324866 0.372089 0.695690
C61   C     C_3   0.789073 0.278808 0.319823 -0.230933
C62   C     C_3   0.466524 0.785520 0.364153 0.367973
C63   C     C_3   0.416558 0.872408 0.341716 -0.350268
C64   C     C_R   0.111859 0.492268 0.190118 0.589704
H1    H     H_    0.335054 0.129543 0.422184 0.067683
H2    H     H_    0.840469 0.325668 0.299222 0.045598
H3    H     H_    0.681125 0.257252 0.298100 0.116453
H4    H     H_    0.543802 0.256160 0.616334 -0.213201
H5    H     H_    0.482308 0.169906 0.677595 -0.031512
H6    H     H_    0.366444 0.666407 0.611899 -0.084874
H7    H     H_    0.379893 0.690418 0.704535 0.026376
H8    H     H_    0.518737 0.770126 0.704755 0.060390
H9    H     H_    0.049605 0.677026 0.338389 0.054190
H10   H     H_    0.867274 0.762389 0.346472 -0.056598
H11   H     H_    0.153821 0.761278 0.277938 0.161556
H12   H     H_    0.145615 0.139958 0.386497 0.135299
H13   H     H_    0.978355 0.848962 0.288162 0.109476
H14   H     H_    0.601592 0.776537 0.369580 -0.089619
H15   H     H_    0.409269 0.792447 0.401248 0.089490
H16   H     H_    0.281641 0.885820 0.335596 0.153621
H17   H     H_    0.477866 0.867480 0.305337 0.102088
H18   H     H_    0.558807 0.376949 0.898302 0.126798
H19   H     H_    0.475712 0.428290 0.062253 0.074207
H20   H     H_    0.717290 0.632341 0.254780 0.109789
H21   H     H_    0.612040 0.565212 0.094604 0.117491
H22   H     H_    0.752119 0.620742 0.946659 0.071603
H23   H     H_    0.064860 0.711639 0.551544 0.064528
H24   H     H_    0.278943 0.287928 0.653294 -0.025610
H25   H     H_    0.827013 0.629842 0.863321 0.121895
H26   H     H_    0.035122 0.518441 0.713944 0.174528
H27   H     H_    0.674350 0.571531 0.009744 0.071880
H28   H     H_    0.836383 0.551493 0.403957 0.060026
H29   H     H_    0.807791 0.950253 0.431831 0.144624
H30   H     H_    0.384598 0.307619 0.520278 0.135918
H31   H     H_    0.009619 0.230021 0.711264 0.196707
H32   H     H_    0.785893 0.692412 0.470642 0.069330
H33   H     H_    0.224244 0.183388 0.714644 0.124305
H34   H     H_    0.835613 0.851277 0.620277 0.134613
H35   H     H_    0.349552 0.290528 0.420463 0.032216
H36   H     H_    0.153706 0.279227 0.445070 0.045683
H37   H     H_    0.761907 0.191876 0.579697 0.272123
H38   H     H_    0.334946 0.152280 0.358784 0.127984
H39   H     H_    0.858294 0.704086 0.567307 -0.012298
H40   H     H_    0.636031 0.446206 0.397113 0.288643
H41   H     H_    0.598971 0.578042 0.609488 0.281212
H42   H     H_    0.322211 0.862632 0.671828 0.323402
H43   H     H_    0.688383 0.090491 0.720832 0.307872
H44   H     H_    0.157402 0.301343 0.735644 0.078434
H45   H     H_    0.905623 0.862058 0.559156 0.032789
H46   H     H_    0.951938 0.737648 0.259390 0.064127
H47   H     H_    0.454056 0.929495 0.367570 0.082182
H48   H     H_    0.059979 0.322854 0.649192 0.111235
H49   H     H_    0.094965 0.407899 0.281098 0.112046
H50   H     H_    0.411260 0.441178 0.148607 0.161463
H51   H     H_    0.553629 0.496801 0.755938 0.137371
H52   H     H_    0.505611 0.384131 0.985139 0.074725
H53   H     H_    0.421828 0.456107 0.574799 0.302225
H54   H     H_    0.200278 0.043799 0.534772 0.333038
H55   H     H_    0.870907 0.055371 0.491097 0.317041
H56   H     H_    0.049723 0.856192 0.610746 0.173697
H57   H     H_    0.531297 0.979664 0.579211 0.285897
H58   H     H_    0.848942 0.342720 0.392961 -0.056551
H59   H     H_    0.629599 0.094872 0.637649 -0.052075
H60   H     H_    0.884300 0.218600 0.322730 0.067121
N1    N     N_R   0.949841 0.510936 0.205470 -0.426692
N2    N     N_R   0.255709 0.504746 0.797739 -0.418201
O1    O     O_2   0.905540 0.548000 0.618290 -0.425450
O2    O     O_2   0.156871 0.823316 0.470936 -0.439390
O3    O     O_3   0.084617 0.800821 0.375621 -0.589812
O4    O     O_3   0.137550 0.547930 0.558110 -0.486861
O5    O     O_3   0.574690 0.391440 0.474610 -0.512852
O6    O     O_2   0.341330 0.720570 0.525000 -0.457472
O7    O     O_3   0.523987 0.759037 0.605455 -0.606014
O8    O     O_2   0.439821 0.537447 0.320806 -0.374914
O9    O     O_3   0.414591 0.713503 0.332222 -0.590428
O10   O     O_2   0.223397 0.484711 0.221026 -0.561483
O11   O     O_2   0.477519 0.400607 0.810518 -0.579602
O12   O     O_3   0.666403 0.264531 0.395352 -0.629565
O13   O     O_2   0.682650 0.528800 0.180689 -0.593530
O14   O     O_2   0.025958 0.607765 0.794129 -0.587904
O15   O     O_3   0.688580 0.383890 0.587540 -0.475722
O16   O     O_2   0.828921 0.438434 0.674192 -0.493972
O17   O     O_3   0.029275 0.692048 0.624565 -0.590014
O18   O     O_3   0.670403 0.307316 0.679225 -0.567698
O19   O     O_2   0.848360 0.279400 0.474970 -0.439658
O20   O     O_3   0.104690 0.337720 0.562900 -0.447112
O21   O     O_2   0.008073 0.182614 0.531237 -0.442783
O22   O     O_3   0.795086 0.208483 0.615235 -0.685719
O23   O     O_3   0.144515 0.190723 0.619773 -0.573149
O24   O     O_3   0.620953 0.401369 0.367169 -0.700955
O25   O     O_3   0.607811 0.628418 0.637263 -0.756963
O26   O     O_3   0.279213 0.808830 0.679446 -0.714404
O27   O     O_3   0.717132 0.143743 0.707739 -0.672329
O28   O     O_3   0.354951 0.426969 0.595309 -0.733971
O29   O     O_3   0.294106 0.019459 0.512946 -0.676797
O30   O     O_3   0.811527 0.097155 0.468992 -0.698342
O31   O     O_3   0.494923 0.922470 0.564869 -0.691523
O32   O     O_2   0.284150 0.451970 0.381680 -0.402567
O33   O     O_3   0.052160 0.451990 0.441880 -0.512600
O34   O     O_3   0.501140 0.616030 0.412450 -0.493008
O35   O     O_3   0.151773 0.308529 0.372546 -0.644165
O36   O     O_3   0.615020 0.608480 0.525380 -0.515464
O37   O     O_3   0.085020 0.662210 0.437090 -0.495765
P1    P     P_3+3 0.070480 0.574800 0.610950 1.056203
P2    P     P_3+3 0.668430 0.292880 0.460530 1.038109
P3    P     P_3+3 0.151060 0.221189 0.559718 1.017986
P4    P     P_3+3 0.119230 0.425130 0.389040 1.000313
P5    P     P_3+3 0.036523 0.777808 0.434390 0.966129
P6    P     P_3+3 0.669348 0.406507 0.652995 1.049022
P7    P     P_3+3 0.525914 0.721918 0.541054 1.018066
P8    P     P_3+3 0.526514 0.613682 0.348423 1.030993

loop_
_geom_bond_atom_site_label_1
_geom_bond_atom_site_label_2
_ccdc_geom_bond_type
O35   P4    S    
C55   O30   S    
O3    P5    S    
H53   O28   S    
C27   O11   D    
C12   H4    S    
C31   P1    S    
C19   C24   A    
Ba1   O4    S    
C43   H27   S    
Ba2   O34   S    
C60   H58   S    
C51   C57   A    
C34   O26   S    
O34   P8    S    
C64   N1    Am   
O16   P6    D    
C24   C25   A    
Ba2   O6    S    
C60   O24   S    
O1    P1    D    
C56   H46   S    
C41   H22   S    
C53   P3    S    
C17   C19   A    
O4    P1    S    
C45   H10   S    
C32   C33   S    
C35   C38   A    
Ba1   O1    S    
O5    P2    S    
C36   C37   A    
Ba1   O5    S    
C63   H17   S    
Ba1   P2    S    
O23   P3    S    
C44   C50   A    
C54   C55   A    
C28   H35   S    
Ba1   Ba2   S    
Ba1   O19   S    
C22   C27   A    
C29   H51   S    
C11   C38   A    
C17   C35   A    
H37   O22   S    
C61   H2    S    
C9    C13   A    
C25   C42   A    
C4    H48   S    
C61   H3    S    
Ba1   O36   S    
C6    C7    D    
Ba2   O4    S    
O32   P4    D    
C16   H31   S    
C7    C8    S    
C56   H11   S    
C48   C57   S    
C37   C43   A    
O33   P4    S    
O12   P2    S    
C44   H32   S    
Ba1   O33   S    
C6    C14   D    
O6    P7    D    
C53   C58   A    
C62   H14   S    
C28   H36   S    
O21   P3    D    
C15   C31   D    
C28   O35   S    
C4    C16   S    
Ba2   O33   S    
C48   C49   A    
C62   O9    S    
C51   C53   A    
C39   H21   S    
C44   C46   A    
Ba2   O5    S    
H40   O24   S    
C21   H18   S    
C23   O25   S    
C49   C50   A    
C7    H49   S    
C17   C20   A    
C13   C39   A    
C52   H23   S    
Ba2   O36   S    
C2    O13   D    
C3    C5    S    
C18   C37   A    
Ba2   P4    S    
C4    H24   S    
C10   C64   A    
C54   C58   A    
C45   O3    S    
C59   H56   S    
C38   H19   S    
C27   N2    Am   
C9    C36   A    
C1    H5    S    
C41   C42   A    
O9    P8    S    
C35   C36   A    
Ba1   O15   S    
C29   C30   S    
C64   O10   D    
C21   C22   A    
C12   O22   S    
C60   C61   S    
C1    O27   S    
C31   C32   D    
C23   H6    S    
O7    P7    S    
C47   H29   S    
C42   H25   S    
Ba2   O37   S    
H41   O25   S    
C1    C12   S    
O19   P2    D    
C56   H13   S    
C52   O17   S    
C46   P5    S    
C3    H20   S    
C58   H30   S    
C46   C47   A    
C30   P6    S    
C40   H12   S    
H55   O30   S    
C40   H1    S    
O20   P3    S    
C29   C33   D    
O36   P7    S    
C59   H34   S    
C26   O14   D    
C16   H33   S    
C4    O23   S    
C8    N1    S    
C59   H45   S    
C18   C41   A    
C6    P4    S    
O37   P5    S    
C20   H52   S    
O8    P8    D    
C5    C14   S    
C52   H39   S    
C18   C19   A    
C63   H47   S    
C16   H44   S    
C22   C24   A    
C51   O29   S    
C40   H38   S    
C9    C10   A    
C1    H59   S    
C52   C59   S    
C12   O18   S    
C14   H28   S    
C62   C63   S    
C2    C13   A    
O15   P6    S    
C3    C8    D    
C45   C56   S    
C63   H16   S    
H54   O29   S    
H57   O31   S    
Ba1   P1    S    
O2    P5    D    
C5    P8    S    
C54   P2    S    
C49   O31   S    
C50   P7    S    
O17   P1    S    
C33   N2    S    
H43   O27   S    
C32   H26   S    
C62   H15   S    
C11   H50   S    
C55   C57   A    
C34   H7    S    
C23   C34   S    
C45   H9    S    
C61   H60   S    
H42   O26   S    
C10   C11   A    
Ba2   O32   S    
C47   C48   A    
C23   O7    S    
C25   C26   A    
C15   C30   S    
C39   C43   A    
C20   C21   A    
C28   C40   S    
Ba1   O20   S    
C60   O12   S    
O18   P6    S    
C15   O28   S    
C2    N1    Am   
C34   H8    S    
C26   N2    Am   
