data_mof_unit_14587.cif
_audit_creation_date              2012-12-10T16:51:18-0500
_audit_creation_method            fapswitch 2.2
_symmetry_space_group_name_H-M    P1
_symmetry_Int_Tables_number       1
_space_group_crystal_system       triclinic
_cell_length_a                    27.81808
_cell_length_b                    8.664723
_cell_length_c                    7.42802
_cell_angle_alpha                 103.086186
_cell_angle_beta                  94.051091
_cell_angle_gamma                 92.285213
_cell_volume                      1736.6881165

loop_
_atom_site_label
_atom_site_type_symbol
_atom_type_description
_atom_site_fract_x
_atom_site_fract_y
_atom_site_fract_z
_atom_type_partial_charge
C1    C     C_R   0.498543 0.199580 0.453091 0.892834
C2    C     C_R   0.501457 0.800420 0.546909 0.892835
C3    C     C_R   0.102386 0.503319 0.511561 -0.092503
C4    C     C_R   0.897613 0.496666 0.488470 -0.092501
C5    C     C_R   0.125052 0.367752 0.421398 -0.000630
C6    C     C_R   0.874947 0.632229 0.578647 -0.000635
C7    C     C_R   0.097170 0.233136 0.325803 -0.183800
C8    C     C_R   0.902829 0.766837 0.674262 -0.183795
C9    C     C_R   0.131168 0.639792 0.606781 -0.062241
C10   C     C_R   0.868830 0.360199 0.393232 -0.062241
C11   C     C_R   0.354781 0.501294 0.508640 -0.036598
C12   C     C_R   0.645219 0.498700 0.491361 -0.036590
C13   C     C_R   0.971575 0.361916 0.402432 0.004065
C14   C     C_R   0.028423 0.638066 0.597606 0.004063
C15   C     C_R   0.977119 0.636564 0.591992 0.074338
C16   C     C_R   0.022879 0.363415 0.408056 0.074338
C17   C     C_R   0.948961 0.498257 0.494258 0.063431
C18   C     C_R   0.051038 0.501725 0.505780 0.063432
C19   C     C_R   0.941935 0.227486 0.308279 -0.276368
C20   C     C_R   0.058064 0.772499 0.691748 -0.276373
C21   C     C_R   0.891717 0.224369 0.304689 0.260323
C22   C     C_R   0.108281 0.775620 0.695329 0.260320
C23   C     C_R   0.407527 0.500201 0.502765 0.799533
C24   C     C_R   0.592473 0.499797 0.497235 0.799528
C25   C     C_R   0.047303 0.230598 0.318870 -0.217743
C26   C     C_R   0.952696 0.769375 0.681197 -0.217740
C27   C     C_2   0.497842 0.031588 0.426646 -0.363743
C28   C     C_2   0.502158 0.968412 0.573354 -0.363743
C29   C     C_R   0.175464 0.369339 0.427695 0.520170
C30   C     C_R   0.824535 0.630642 0.572347 0.520176
C31   C     C_R   0.182007 0.634911 0.609857 0.549758
C32   C     C_R   0.817991 0.365088 0.390135 0.549753
C33   C     C_R   0.275257 0.498068 0.350556 -0.096434
C34   C     C_R   0.724740 0.501809 0.649425 -0.096462
C35   C     C_R   0.325179 0.497362 0.346061 -0.206961
C36   C     C_R   0.674818 0.502516 0.653917 -0.206949
C37   C     C_R   0.333486 0.506098 0.675824 -0.214045
C38   C     C_R   0.666516 0.494009 0.324201 -0.214037
C39   C     C_R   0.283425 0.506347 0.679817 -0.098430
C40   C     C_R   0.716577 0.493757 0.320212 -0.098430
C41   C     C_R   0.254195 0.502223 0.517111 0.353639
C42   C     C_R   0.745804 0.497768 0.482896 0.353670
Cu1   Cu    Cu3+1 0.505380 0.517380 0.684380 0.956411
Cu2   Cu    Cu3+1 0.494620 0.482620 0.315620 0.956412
H1    H     H_    0.355412 0.508934 0.803088 0.156555
H2    H     H_    0.644592 0.491264 0.196958 0.156540
H3    H     H_    0.462197 0.378249 0.948315 0.225270
H4    H     H_    0.537803 0.621751 0.051685 0.225268
H5    H     H_    0.267305 0.509090 0.808948 0.137378
H6    H     H_    0.732699 0.491101 0.191102 0.137357
H7    H     H_    0.113846 0.127739 0.255444 0.177048
H8    H     H_    0.886152 0.872229 0.744635 0.177049
H9    H     H_    0.659473 0.505706 0.784637 0.157880
H10   H     H_    0.340522 0.494081 0.215320 0.157881
H11   H     H_    0.747166 0.504328 0.775457 0.139245
H12   H     H_    0.252830 0.495463 0.224504 0.139258
H13   H     H_    0.956318 0.119425 0.236627 0.137496
H14   H     H_    0.043680 0.880562 0.763399 0.137505
H15   H     H_    0.029356 0.121125 0.241406 0.134959
H16   H     H_    0.970643 0.878840 0.758682 0.134955
H17   H     H_    0.493777 0.959626 0.285424 0.179927
H18   H     H_    0.506223 0.040374 0.714576 0.179927
N1    N     N_R   0.202711 0.501699 0.519930 -0.473665
N2    N     N_R   0.797288 0.498293 0.480082 -0.473670
N3    N     N_2   0.486510 0.456430 0.038510 -0.218080
N4    N     N_2   0.513490 0.543570 0.961490 -0.218080
O1    O     O_R   0.503500 0.286120 0.619780 -0.583651
O2    O     O_R   0.496500 0.713880 0.380220 -0.583651
O3    O     O_R   0.494410 0.256780 0.308360 -0.582877
O4    O     O_R   0.505590 0.743220 0.691640 -0.582877
O5    O     O_R   0.434810 0.514700 0.655690 -0.591863
O6    O     O_R   0.565190 0.485300 0.344310 -0.591858
O7    O     O_R   0.425720 0.485350 0.344280 -0.584808
O8    O     O_R   0.574280 0.514650 0.655720 -0.584805
O9    O     O_2   0.197246 0.239160 0.342787 -0.540187
O10   O     O_2   0.802752 0.760811 0.657283 -0.540176
O11   O     O_2   0.789238 0.238292 0.299438 -0.493702
O12   O     O_2   0.210759 0.761724 0.700509 -0.493705
N5    N     N_2   0.864817 0.082201 0.210654 -0.372645
H19   H     H_    0.877007 0.031633 0.083819 0.242530
C43   C     C_3   0.859071 0.967458 0.323086 -0.554091
H20   H     H_    0.894650 0.923143 0.358463 0.193467
H21   H     H_    0.835040 0.865352 0.244733 0.233624
H22   H     H_    0.842490 0.021469 0.452750 0.255173
N6    N     N_2   0.135180 0.917785 0.789377 -0.372644
H23   H     H_    0.122998 0.968319 0.916236 0.242536
C44   C     C_3   0.140913 0.032564 0.676982 -0.554095
H24   H     H_    0.105328 0.076862 0.641635 0.193463
H25   H     H_    0.157492 0.978595 0.547301 0.255193
H26   H     H_    0.164938 0.134679 0.755351 0.233611

loop_
_geom_bond_atom_site_label_1
_geom_bond_atom_site_label_2
_ccdc_geom_bond_type
C44   H24   S    
C29   N1    A    
C30   N2    A    
C8    C26   A    
C14   C18   A    
C34   C42   A    
C43   H20   S    
C39   C41   A    
N6    H23   S    
C19   H13   S    
C3    C18   A    
C19   C21   A    
C2    O2    A    
C9    C22   A    
C14   C20   A    
C22   N6    S    
C11   C37   A    
C36   H9    S    
C27   H17   S    
C1    O1    A    
C32   O11   S    
C12   C36   A    
C8    H8    S    
C33   H12   S    
C40   C42   A    
C34   H11   S    
C35   H10   S    
Cu2   N3    S    
C23   O7    A    
C43   H21   S    
C5    C29   A    
N6    C44   S    
C10   C21   A    
C13   C19   A    
C31   N1    A    
C32   N2    A    
C4    C6    A    
C5    C7    A    
C15   C26   A    
C6    C8    A    
C1    O3    A    
Cu1   Cu2   S    
C3    C9    A    
C23   O5    A    
C30   O10   S    
C21   N5    S    
Cu2   O3    S    
C4    C17   A    
Cu1   O1    S    
C39   H5    S    
C20   C22   A    
Cu1   O4    S    
C44   H25   S    
Cu2   O2    S    
C41   N1    S    
C20   H14   S    
C42   N2    S    
C43   H22   S    
C24   O6    A    
C31   O12   S    
N5    C43   S    
C16   C25   A    
C15   C17   A    
Cu1   O5    S    
C6    C30   A    
C4    C10   A    
C3    C5    A    
C29   O9    S    
C12   C24   S    
C7    C25   A    
C13   C17   A    
C33   C41   A    
C11   C35   A    
C13   C16   A    
C7    H7    S    
C37   C39   A    
C38   C40   A    
C24   O8    A    
C26   H16   S    
Cu1   O8    S    
Cu1   N4    S    
C40   H6    S    
C11   C23   S    
C33   C35   A    
Cu2   O6    S    
C34   C36   A    
C12   C38   A    
Cu2   O7    S    
C38   H2    S    
C9    C31   A    
N5    H19   S    
C10   C32   A    
C16   C18   A    
N3    N4    D    
C44   H26   S    
C27   C28   D    
C1    C27   S    
C14   C15   A    
C2    C28   S    
C25   H15   S    
H4    N4    S    
C2    O4    A    
C37   H1    S    
H3    N3    S    
C28   H18   S    
