data_mof_unit_9640.cif
_audit_creation_date              2012-12-11T14:33:05-0500
_audit_creation_method            fapswitch 2.2
_symmetry_space_group_name_H-M    P1
_symmetry_Int_Tables_number       1
_space_group_crystal_system       triclinic
_cell_length_a                    6.947948
_cell_length_b                    13.749396
_cell_length_c                    17.966987
_cell_angle_alpha                 112.451801
_cell_angle_beta                  95.452422
_cell_angle_gamma                 90.339701
_cell_volume                      1577.44695051

loop_
_atom_site_label
_atom_site_type_symbol
_atom_type_description
_atom_site_fract_x
_atom_site_fract_y
_atom_site_fract_z
_atom_type_partial_charge
O1    O     O_R   0.484560 0.544530 0.414330 -0.544995
O2    O     O_R   0.197040 0.638810 0.585080 -0.542227
O3    O     O_R   0.026800 0.455470 0.585670 -0.498421
C1    C     C_R   0.374123 0.678259 0.611271 0.684914
O4    O     O_R   0.155000 0.556150 0.414940 -0.550490
O5    O     O_R   0.984450 0.372220 0.414320 -0.536214
C2    C     C_R   0.317755 0.565032 0.386594 0.730956
O6    O     O_R   0.526900 0.627780 0.585680 -0.542423
O7    O     O_3   0.339170 0.439750 0.499990 -0.310640
V1    V     V_3+5 0.064350 0.511180 0.500000 1.445739
O8    O     O_R   0.654880 0.361190 0.414920 -0.543155
C3    C     C_R   0.816907 0.324469 0.386458 0.751777
O9    O     O_R   0.696930 0.443850 0.585060 -0.517597
C4    C     C_R   0.873094 0.433524 0.612297 0.724416
V2    V     V_3+5 0.564340 0.488820 0.500000 1.469705
O10   O     O_3   0.839390 0.560250 0.500010 -0.393036
C5    C     C_R   0.041735 0.861150 0.822859 -0.050194
C6    C     C_R   0.905991 0.397369 0.679656 -0.038024
C7    C     C_R   0.921412 0.821311 0.683190 -0.130877
C8    C     C_R   0.973798 0.788159 0.746043 -0.143681
C9    C     C_R   0.052525 0.969001 0.836946 -0.211660
C10   C     C_R   0.997484 0.005280 0.773798 0.095818
C11   C     C_R   0.933065 0.928451 0.696141 0.121374
C12   C     C_R   0.002377 0.114428 0.784838 0.066976
C13   C     C_R   0.944944 0.144119 0.717729 0.070018
C14   C     C_R   0.884872 0.063702 0.641880 -0.178712
C15   C     C_R   0.878896 0.958493 0.631638 -0.219189
C16   C     C_R   0.062346 0.194850 0.860699 -0.179746
C17   C     C_R   0.068267 0.300060 0.870945 -0.210332
C18   C     C_R   0.014298 0.330093 0.806418 0.118564
C19   C     C_R   0.949949 0.253261 0.728755 0.082985
C20   C     C_R   0.026050 0.437226 0.819355 -0.136209
C21   C     C_R   0.973832 0.470370 0.756483 -0.157276
C22   C     C_R   0.895157 0.289522 0.665579 -0.196598
H1    H     H_    0.829902 0.899726 0.572284 0.117623
H2    H     H_    0.846997 0.236599 0.604640 0.099722
H3    H     H_    0.988422 0.553311 0.767722 0.092751
H4    H     H_    0.117140 0.358833 0.930310 0.117299
H5    H     H_    0.869467 0.762874 0.624191 0.133307
H6    H     H_    0.959293 0.705211 0.734794 0.087795
H7    H     H_    0.100848 0.021916 0.897869 0.092914
H8    H     H_    0.839818 0.079245 0.588681 0.125072
H9    H     H_    0.107264 0.179309 0.913911 0.122815
H10   H     H_    0.077975 0.495660 0.878358 0.142690
H11   H     H_    0.114050 0.224004 0.308846 0.155549
H12   H     H_    0.834384 0.034447 0.193601 0.155238
C23   C     C_2   0.135763 0.037600 0.184052 -0.351932
C24   C     C_2   0.972762 0.077816 0.217020 -0.131551
H13   H     H_    0.674573 0.177357 0.294496 0.124955
C25   C     C_2   0.812664 0.220861 0.318381 -0.347613
C26   C     C_2   0.975668 0.180642 0.285418 -0.126041
H14   H     H_    0.273845 0.081119 0.207920 0.125307
C27   C     C_R   0.409793 0.783750 0.678862 -0.063865
C28   C     C_R   0.539849 0.471492 0.827672 -0.132586
C29   C     C_R   0.532717 0.884514 0.818743 -0.123143
C30   C     C_R   0.480062 0.788228 0.755613 -0.141344
C31   C     C_R   0.398250 0.878911 0.665786 -0.208458
C32   C     C_R   0.453605 0.979138 0.729749 0.097436
C33   C     C_R   0.519344 0.979394 0.806886 0.115164
C34   C     C_R   0.447592 0.078731 0.720310 0.071920
C35   C     C_R   0.504238 0.176090 0.788165 0.098162
C36   C     C_R   0.565171 0.170263 0.863263 -0.179505
C37   C     C_R   0.572950 0.074126 0.872110 -0.223065
C38   C     C_R   0.387290 0.084073 0.645120 -0.206154
C39   C     C_R   0.379984 0.179494 0.635868 -0.172647
C40   C     C_R   0.432851 0.274565 0.700840 0.006931
C41   C     C_R   0.497755 0.275728 0.778384 0.031355
C42   C     C_R   0.419599 0.368788 0.688133 0.608084
C43   C     C_R   0.471241 0.465489 0.750519 -0.226726
C44   C     C_R   0.551579 0.376753 0.841959 -0.224823
H15   H     H_    0.622866 0.073924 0.931079 0.119792
H16   H     H_    0.600162 0.384510 0.902810 0.108776
H17   H     H_    0.455653 0.536459 0.738445 0.111879
H18   H     H_    0.330768 0.178322 0.576451 0.173785
H19   H     H_    0.585929 0.884805 0.877418 0.145203
H20   H     H_    0.496007 0.716660 0.766786 0.092403
H21   H     H_    0.348420 0.871660 0.605212 0.091832
H22   H     H_    0.609595 0.239213 0.916657 0.123315
H23   H     H_    0.343409 0.015324 0.591585 0.125062
H24   H     H_    0.334147 0.667327 0.194664 0.154477
H25   H     H_    0.615016 0.590875 0.307987 0.151643
C45   C     C_2   0.314393 0.602260 0.318959 -0.344491
C46   C     C_2   0.476603 0.610968 0.285346 -0.131218
H26   H     H_    0.772863 0.636172 0.206762 0.125520
C47   C     C_2   0.634749 0.655989 0.183661 -0.349319
C48   C     C_2   0.472588 0.647246 0.217293 -0.129857
H27   H     H_    0.176327 0.622097 0.295834 0.125425
O11   O     O_R   0.421600 0.630430 0.917010 -0.539373
O12   O     O_R   0.793840 0.702190 0.087630 -0.543557
O13   O     O_R   0.964010 0.886170 0.088190 -0.536019
C49   C     C_R   0.631192 0.693247 0.116035 0.755615
O14   O     O_R   0.751460 0.619510 0.917500 -0.539181
O15   O     O_R   0.921330 0.802900 0.916840 -0.542498
C50   C     C_R   0.574716 0.578452 0.893691 0.714865
O16   O     O_R   0.464290 0.713700 0.088350 -0.537738
O17   O     O_3   0.609200 0.818520 0.002630 -0.375864
V3    V     V_3+5 0.884140 0.747190 0.002530 1.369669
O18   O     O_R   0.251150 0.814630 0.917340 -0.541900
C51   C     C_R   0.074895 0.824960 0.890192 0.691843
O19   O     O_R   0.293530 0.897310 0.087470 -0.542498
C52   C     C_R   0.131528 0.933978 0.115989 0.763523
V4    V     V_3+5 0.384070 0.769710 0.002370 1.370706
O20   O     O_3   0.109180 0.698190 0.002460 -0.375081
F1    F     F_    0.353809 0.366978 0.614385 -0.680920

loop_
_geom_bond_atom_site_label_1
_geom_bond_atom_site_label_2
_ccdc_geom_bond_type
C13   C19   A    
C40   C42   A    
C29   C30   A    
C30   H20   S    
O17   V4    S    
C1    C27   S    
C4    C6    S    
O2    C1    A    
C7    C8    A    
C1    O6    A    
C47   C49   S    
C47   C48   D    
C14   C15   A    
C17   C18   A    
C23   C52   S    
C16   C17   A    
C29   C33   A    
O5    C3    A    
C18   C19   A    
C8    H6    S    
H11   C26   S    
C32   C34   A    
V2    O10   S    
O18   C51   A    
C5    C8    A    
H24   C48   S    
O8    V2    S    
C24   C26   S    
C42   C43   A    
C17   H4    S    
C43   H17   S    
O1    V2    S    
C11   C15   A    
O12   C49   A    
O7    V1    S    
O15   C51   A    
O13   V3    S    
O16   V4    S    
C29   H19   S    
C40   C41   A    
O9    C4    A    
V4    O20   S    
O19   V4    S    
H25   C46   S    
O14   V3    S    
H12   C24   S    
O11   C50   A    
C31   H21   S    
H26   C47   S    
O4    C2    A    
C27   C31   A    
C15   H1    S    
C32   C33   A    
O18   V4    S    
C21   H3    S    
C39   H18   S    
O12   V3    S    
C34   C35   A    
C7    C11   A    
O13   C52   A    
C36   C37   A    
C5    C51   S    
C35   C41   A    
C3    C25   S    
C23   C24   D    
C28   C44   A    
O17   V3    S    
C46   C48   S    
O14   C50   A    
C25   C26   D    
C20   H10   S    
C19   C22   A    
C12   C13   A    
C6    C22   A    
V3    O20   S    
O3    C4    A    
C7    H5    S    
C9    H7    S    
C37   H15   S    
C45   C46   D    
O6    V2    S    
O9    V2    S    
C38   H23   S    
C10   C12   A    
O2    V1    S    
O15   V3    S    
C14   H8    S    
C27   C30   A    
O1    C2    A    
C36   H22   S    
C12   C16   A    
O5    V1    S    
O11   V4    S    
O8    C3    A    
C23   H14   S    
C16   H9    S    
C33   C37   A    
C34   C38   A    
C41   C44   A    
C20   C21   A    
C42   F1    S    
C13   C14   A    
O4    V1    S    
O3    V1    S    
V1    O10   S    
C38   C39   A    
C18   C20   A    
C31   C32   A    
C28   C43   A    
O19   C52   A    
C22   H2    S    
C39   C40   A    
O7    V2    S    
C35   C36   A    
C6    C21   A    
C5    C9    A    
C28   C50   S    
C49   O16   A    
C2    C45   S    
H13   C25   S    
C10   C11   A    
C44   H16   S    
C9    C10   A    
C45   H27   S    
