data_mof_unit_48295.cif
_audit_creation_date              2013-03-05T16:41:15-0500
_audit_creation_method            fapswitch 2.2
_symmetry_space_group_name_H-M    P1
_symmetry_Int_Tables_number       1
_space_group_crystal_system       triclinic
_cell_length_a                    10.715558
_cell_length_b                    10.698747
_cell_length_c                    9.880551
_cell_angle_alpha                 89.856977
_cell_angle_beta                  89.212762
_cell_angle_gamma                 90.104828
_cell_volume                      1132.62402653

loop_
_atom_site_label
_atom_site_type_symbol
_atom_site_description
_atom_site_fract_x
_atom_site_fract_y
_atom_site_fract_z
_atom_type_partial_charge
O1    O     O_R   0.500020 0.316790 0.614690 -0.619252
O2    O     O_R   0.500000 0.316760 0.385350 -0.623113
C1    C     C_R   0.502194 0.260096 0.500061 0.950170
O3    O     O_R   0.319080 0.500020 0.614640 -0.586398
O4    O     O_R   0.319070 0.499980 0.385300 -0.622829
C2    C     C_R   0.262717 0.506926 0.500829 0.976464
Zn1   Zn    Zn3+2 0.500010 0.500020 0.653130 1.006089
Zn2   Zn    Zn3+2 0.499990 0.499980 0.346870 0.966720
O5    O     O_R   0.500000 0.683240 0.614650 -0.617415
O6    O     O_R   0.499980 0.683210 0.385310 -0.624529
O7    O     O_R   0.680930 0.500020 0.614700 -0.591348
O8    O     O_R   0.680920 0.499980 0.385360 -0.643115
C3    C     C_R   0.504032 0.739790 0.499861 0.870338
C4    C     C_R   0.737323 0.494719 0.498851 0.837967
C5    C     C_2   0.933500 0.532988 0.395764 -0.268688
C6    C     C_2   0.868292 0.472061 0.492690 0.142900
H1    H     H_    0.887558 0.593868 0.323584 0.162985
C7    C     C_2   0.067631 0.529566 0.388968 -0.124328
C8    C     C_2   0.131407 0.526502 0.503478 -0.220473
H2    H     H_    0.112968 0.532080 0.290161 0.181648
H3    H     H_    0.085408 0.536091 0.601519 0.211292
C9    C     C_R   0.504463 0.062397 0.621358 0.046664
C10   C     C_R   0.516065 0.128355 0.500337 -0.046321
C11   C     C_R   0.549145 0.065150 0.380784 -0.182636
H4    H     H_    0.566572 0.114644 0.286590 0.171913
C12   C     C_R   0.550978 0.935699 0.380700 -0.190536
H5    H     H_    0.568238 0.887065 0.286256 0.172426
C13   C     C_R   0.521609 0.871109 0.500714 -0.064536
C14   C     C_R   0.511800 0.935546 0.622416 0.065270
C15   C     C_3   0.421724 0.922033 0.738442 -0.472336
C16   C     C_3   0.410960 0.063826 0.736545 0.096337
H6    H     H_    0.335125 0.871464 0.709971 0.233088
H7    H     H_    0.467664 0.885758 0.830740 0.191344
H8    H     H_    0.446920 0.109704 0.829018 0.100598
C17   C     C_R   0.391165 0.487622 0.072986 0.162205
N1    N     N_R   0.499170 0.499140 0.142800 -0.108492
C18   C     C_R   0.606509 0.522117 0.070221 -0.114513
H9    H     H_    0.692923 0.538292 0.122639 0.163738
C19   C     C_R   0.606611 0.521689 0.926508 -0.093856
H10   H     H_    0.693215 0.537372 0.871688 0.190698
N2    N     N_R   0.499170 0.499180 0.857150 -0.142108
C20   C     C_R   0.390599 0.490221 0.930538 0.160802
C21   C     C_3   0.299652 0.384186 0.926237 0.113837
C22   C     C_3   0.303912 0.379086 0.079868 -0.523671
H11   H     H_    0.337281 0.300588 0.873805 0.129203
H12   H     H_    0.214112 0.402825 0.130800 0.229138
H13   H     H_    0.349432 0.293164 0.118934 0.201498
N3    N     N_R   0.176410 0.421577 0.878691 0.244412
O9    O     O_R   0.088944 0.337771 0.869846 -0.258842
O10   O     O_R   0.148542 0.538811 0.860591 -0.405324
N4    N     N_R   0.919446 0.372920 0.574485 0.217663
O11   O     O_R   0.871104 0.348466 0.693179 -0.323169
O12   O     O_R   0.996624 0.292641 0.520862 -0.300105
N5    N     N_R   0.284274 0.103276 0.701660 0.233072
O13   O     O_R   0.194871 0.089521 0.790832 -0.312140
O14   O     O_R   0.257720 0.147020 0.582483 -0.350406

loop_
_geom_bond_atom_site_label_1
_geom_bond_atom_site_label_2
_geom_bond_distance
_ccdc_geom_bond_type
O4    Zn2   1.970367 S    
C15   H6    1.113126 S    
C10   C11   1.404144 A    
C6    N4    1.445235 S    
C3    C13   1.417242 S    
C14   C15   1.494999 S    
C17   C22   1.490326 S    
C9    C14   1.359594 A    
C5    C7    1.438467 S    
N2    C20   1.365482 A    
C1    C10   1.417547 S    
C17   N1    1.360974 A    
C22   H13   1.112193 S    
Zn2   O8    1.980834 S    
C21   C22   1.520120 S    
C21   N3    1.463818 S    
N3    O10   1.302323 A    
O2    C1    1.284540 A    
C16   H8    1.111502 S    
C18   C19   1.419964 A    
O1    Zn1   1.997716 S    
Zn1   O7    1.970368 S    
C2    C8    1.422836 S    
C21   H11   1.108510 S    
C11   C12   1.385146 A    
C12   H5    1.083397 S    
C18   H9    1.081049 S    
N1    C18   1.368602 A    
O3    Zn1   1.980834 S    
O4    C2    1.286395 A    
O3    C2    1.285759 A    
C13   C14   1.390399 A    
C8    H3    1.086007 S    
O8    C4    1.282316 A    
C7    H2    1.084717 S    
Zn1   N2    2.015724 S    
C16   N5    1.467661 S    
C15   C16   1.521680 S    
O7    C4    1.288426 A    
N5    O14   1.301351 A    
C9    C16   1.506053 S    
C5    C6    1.344290 D    
Zn1   O5    1.995824 S    
C11   H4    1.083442 S    
C19   N2    1.369152 A    
Zn2   O6    1.997716 S    
C7    C8    1.330176 D    
Zn2   N1    2.016506 S    
C19   H10   1.080697 S    
C5    H1    1.087990 S    
C17   C20   1.407774 A    
O5    C3    1.284294 A    
N5    O13   1.300510 A    
N3    O9    1.299824 A    
C15   H7    1.111705 S    
N4    O12   1.301991 A    
C4    C6    1.425123 S    
C9    C10   1.390913 A    
C12   C13   1.402695 A    
O2    Zn2   1.995826 S    
N4    O11   1.301324 A    
C20   C21   1.495274 S    
C22   H12   1.109915 S    
O1    C1    1.286073 A    
O6    C3    1.286085 A    
