data_mof_unit_41388.cif
_audit_creation_date              2012-12-10T17:16:39-0500
_audit_creation_method            fapswitch 2.2
_symmetry_space_group_name_H-M    P1
_symmetry_Int_Tables_number       1
_space_group_crystal_system       triclinic
_cell_length_a                    10.326038
_cell_length_b                    10.804131
_cell_length_c                    10.667702
_cell_angle_alpha                 93.840623
_cell_angle_beta                  92.882034
_cell_angle_gamma                 81.318375
_cell_volume                      1172.87795234

loop_
_atom_site_label
_atom_site_type_symbol
_atom_type_description
_atom_site_fract_x
_atom_site_fract_y
_atom_site_fract_z
_atom_type_partial_charge
C1    C     C_R   0.447024 0.507483 0.266758 0.961643
C2    C     C_R   0.551921 0.488141 0.732735 0.908393
C3    C     C_2   0.420796 0.504381 0.131881 -0.060451
C4    C     C_2   0.571795 0.467481 0.865730 -0.123001
C5    C     C_2   0.488768 0.413167 0.059123 0.087604
C6    C     C_2   0.481035 0.415749 0.923388 0.067333
C7    C     C_2   0.070219 0.498840 0.482651 0.606950
C8    C     C_2   0.933677 0.485011 0.526140 0.664616
C9    C     C_R   0.497136 0.261209 0.479328 0.923028
C10   C     C_R   0.499418 0.741503 0.502736 0.899423
C11   C     C_R   0.715951 0.056938 0.358755 0.081924
C12   C     C_R   0.246651 0.917388 0.472287 0.093673
C13   C     C_R   0.821322 0.958495 0.343038 -0.041937
C14   C     C_R   0.141565 0.009640 0.504630 -0.041174
C15   C     C_R   0.834550 0.857874 0.422783 0.347577
C16   C     C_R   0.137687 0.126691 0.453632 0.328295
C17   C     C_R   0.738463 0.857497 0.510848 0.440209
C18   C     C_R   0.254502 0.154641 0.408023 0.442066
C19   C     C_R   0.613762 0.926533 0.486236 -0.097636
C20   C     C_R   0.373846 0.081731 0.444036 -0.107400
C21   C     C_R   0.609935 0.041518 0.433022 -0.043775
C22   C     C_R   0.372370 0.956488 0.471448 -0.073401
C23   C     C_R   0.494526 0.877475 0.494500 -0.118414
C24   C     C_R   0.493396 0.127799 0.442554 -0.070415
N1    N     N_2   0.157300 0.551390 0.551120 -0.036975
N2    N     N_2   0.842700 0.448610 0.448880 0.034743
O1    O     O_R   0.568940 0.489660 0.307530 -0.636268
O2    O     O_R   0.431060 0.510340 0.692470 -0.609034
O3    O     O_R   0.348880 0.522640 0.340350 -0.609160
O4    O     O_R   0.651120 0.477360 0.659650 -0.554646
O5    O     O_R   0.610030 0.300280 0.483580 -0.625829
O6    O     O_R   0.389970 0.699720 0.516420 -0.657689
O7    O     O_R   0.389970 0.333270 0.516400 -0.578478
O8    O     O_R   0.610030 0.666730 0.483600 -0.556774
Zn1   Zn    Zn3+2 0.646940 0.477980 0.478080 1.035991
Zn2   Zn    Zn3+2 0.353060 0.522020 0.521920 0.987383
O9    O     O_3   0.024577 0.211656 0.442951 -0.762628
H1    H     H_    0.951220 0.177875 0.478192 0.347404
O10   O     O_3   0.934996 0.758416 0.415596 -0.808364
H2    H     H_    0.973855 0.753900 0.332383 0.331803
N3    N     N_3   0.707341 0.160819 0.282266 -0.409348
H3    H     H_    0.714544 0.123818 0.189420 0.195204
H4    H     H_    0.790080 0.204078 0.303756 0.241479
N4    N     N_3   0.212310 0.823371 0.379905 -0.458188
H5    H     H_    0.289644 0.790231 0.321021 0.198158
H6    H     H_    0.183424 0.749794 0.424602 0.260076
N5    N     N_3   0.911651 0.963472 0.246197 -0.463276
H7    H     H_    0.006409 0.957646 0.285819 0.235571
H8    H     H_    0.906714 0.887363 0.181218 0.187703
N6    N     N_3   0.032769 0.979081 0.568405 -0.449630
H9    H     H_    0.021436 0.039066 0.649403 0.178805
H10   H     H_    0.056323 0.888656 0.600307 0.243806
O11   O     O_3   0.760418 0.787317 0.615613 -0.728548
H11   H     H_    0.855473 0.756460 0.625433 0.397150
O12   O     O_3   0.255020 0.242972 0.320930 -0.715694
H12   H     H_    0.170479 0.248449 0.271740 0.391905
N7    N     N_3   0.379678 0.358442 0.854106 -0.419052
H13   H     H_    0.318162 0.327589 0.916524 0.184020
H14   H     H_    0.425221 0.278306 0.804289 0.174306
N8    N     N_3   0.570376 0.310243 0.112406 -0.442636
H15   H     H_    0.535819 0.228446 0.076035 0.182722
H16   H     H_    0.664912 0.308311 0.080709 0.198991
N9    N     N_3   0.681720 0.508954 0.935252 -0.454424
H17   H     H_    0.767328 0.462108 0.895359 0.223617
H18   H     H_    0.678007 0.604723 0.923428 0.204253
N10   N     N_3   0.325490 0.600700 0.080459 -0.491440
H19   H     H_    0.253354 0.558055 0.029385 0.216806
H20   H     H_    0.371781 0.649462 0.018760 0.197861
O13   O     O_3   0.904030 0.506597 0.650840 -0.764058
H21   H     H_    0.983369 0.474053 0.701459 0.331131
O14   O     O_3   0.101969 0.456390 0.362814 -0.688295
H22   H     H_    0.119047 0.530706 0.320295 0.339326
O15   O     O_3   0.872725 0.429942 0.327441 -0.666406
H23   H     H_    0.791111 0.414832 0.281228 0.368924
O16   O     O_3   0.115756 0.621231 0.654004 -0.748750
H24   H     H_    0.195394 0.650893 0.693043 0.371323

loop_
_geom_bond_atom_site_label_1
_geom_bond_atom_site_label_2
_ccdc_geom_bond_type
C2    C4    S    
O16   H24   S    
N9    H18   S    
C9    C24   S    
O9    H1    S    
C12   C22   A    
C10   C23   S    
N5    H8    S    
C11   C13   A    
N3    H3    S    
N6    H10   S    
N5    H7    S    
C6    N7    S    
C16   O9    S    
C2    O4    A    
O1    Zn1   S    
O7    Zn2   S    
O12   H12   S    
C1    O3    A    
N10   H19   S    
N7    H13   S    
C3    C5    D    
C7    C8    S    
C12   N4    S    
C10   O6    A    
O11   H11   S    
N8    H16   S    
C9    O7    A    
N3    H4    S    
C4    N9    S    
C15   O10   S    
C8    O13   S    
C14   N6    S    
C18   O12   S    
C10   O8    A    
O6    Zn2   S    
C16   C18   A    
C19   C21   A    
C20   C22   A    
C11   N3    S    
O5    Zn1   S    
O13   H21   S    
C13   C15   A    
C7    O14   S    
C5    C6    S    
C14   C16   A    
N7    H14   S    
C4    C6    D    
N10   H20   S    
C9    O5    A    
N1    Zn2   S    
N9    H17   S    
C3    N10   S    
C17   O11   S    
N2    Zn1   S    
O14   H22   S    
N2    O15   S    
C8    N2    D    
N4    H5    S    
O2    Zn2   S    
C18   C20   A    
C1    O1    A    
O8    Zn1   S    
O15   H23   S    
C21   C24   A    
O4    Zn1   S    
O10   H2    S    
C15   C17   A    
C19   C23   A    
C17   C19   A    
C2    O2    A    
N6    H9    S    
C5    N8    S    
N1    O16   S    
C22   C23   A    
C13   N5    S    
C11   C21   A    
N4    H6    S    
O3    Zn2   S    
C20   C24   A    
C12   C14   A    
N8    H15   S    
C1    C3    S    
C7    N1    D    
