data_mof_unit_50662.cif
_audit_creation_date              2012-12-11T15:44:54-0500
_audit_creation_method            fapswitch 2.2
_symmetry_space_group_name_H-M    P1
_symmetry_Int_Tables_number       1
_space_group_crystal_system       triclinic
_cell_length_a                    19.02352
_cell_length_b                    10.933268
_cell_length_c                    18.711571
_cell_angle_alpha                 90.340181
_cell_angle_beta                  90.09658
_cell_angle_gamma                 89.710188
_cell_volume                      3891.68176311

loop_
_atom_site_label
_atom_site_type_symbol
_atom_type_description
_atom_site_fract_x
_atom_site_fract_y
_atom_site_fract_z
_atom_type_partial_charge
C1    C     C_R   0.759971 0.535600 0.646665 0.531289
C2    C     C_R   0.173765 0.088829 0.552349 -0.161288
C3    C     C_R   0.463752 0.937949 0.971435 0.023889
C4    C     C_R   0.998088 0.231747 0.965399 -0.175737
C5    C     C_R   0.997534 0.227185 0.040165 -0.167689
C6    C     C_R   0.510906 0.734352 0.961115 -0.174824
C7    C     C_R   0.514353 0.728822 0.035574 -0.165200
C8    C     C_3   0.983654 0.572265 0.049800 -0.228180
C9    C     C_3   0.984301 0.572846 0.969034 -0.235634
C10   C     C_3   0.475853 0.067797 0.051123 -0.251025
C11   C     C_3   0.480866 0.070733 0.970513 -0.234488
C12   C     C_R   0.759919 0.532828 0.851897 0.559076
C13   C     C_R   0.218742 0.509583 0.479706 -0.127182
C14   C     C_R   0.237957 0.526706 0.145413 0.569756
C15   C     C_R   0.273242 0.985261 0.859577 0.570036
C16   C     C_R   0.725999 0.981719 0.140220 0.566095
C17   C     C_R   0.771810 0.122985 0.852198 0.555721
C18   C     C_R   0.227749 0.125280 0.147293 0.563932
C19   C     C_R   0.272097 0.623507 0.852107 0.553802
C20   C     C_R   0.726335 0.629210 0.145624 0.559753
C21   C     C_R   0.968365 0.347225 0.855129 0.544460
C22   C     C_R   0.027815 0.346376 0.147673 0.547589
C23   C     C_R   0.469890 0.847155 0.853993 0.534864
C24   C     C_R   0.673762 0.588844 0.552354 -0.161281
C25   C     C_R   0.529203 0.845940 0.146896 0.539849
C26   C     C_R   0.747629 0.079557 0.424478 0.032154
C27   C     C_R   0.240476 0.107364 0.583625 0.005670
C28   C     C_R   0.247625 0.579556 0.424479 0.034186
C29   C     C_R   0.740474 0.607375 0.583629 0.005795
C30   C     C_R   0.797062 0.168935 0.440260 0.011069
C31   C     C_R   0.289058 0.176775 0.545526 0.014845
C32   C     C_R   0.297053 0.668942 0.440258 0.010161
C33   C     C_R   0.789053 0.676791 0.545530 0.014757
C34   C     C_R   0.810702 0.199310 0.510758 0.011340
C35   C     C_3   0.797423 0.299707 0.417732 -0.272784
C36   C     C_R   0.277540 0.202628 0.473960 0.024917
C37   C     C_R   0.310698 0.699317 0.510756 0.011908
C38   C     C_R   0.777534 0.702648 0.473965 0.024355
C39   C     C_2   0.919723 0.915907 0.922369 0.558719
C40   C     C_2   0.102839 0.874414 0.091022 0.571888
C41   C     C_2   0.417581 0.405484 0.926290 0.553878
C42   C     C_2   0.696229 0.341937 0.084297 0.575031
C43   C     C_3   0.366082 0.159511 0.534572 -0.256149
C44   C     C_3   0.297396 0.799717 0.417733 -0.275595
C45   C     C_3   0.866077 0.659530 0.534575 -0.255965
C46   C     C_3   0.812123 0.332595 0.495069 -0.284786
C47   C     C_3   0.353145 0.184483 0.455869 -0.262955
C48   C     C_3   0.312103 0.832604 0.495067 -0.283502
C49   C     C_R   0.239236 0.535238 0.353071 0.540805
C50   C     C_3   0.853139 0.684512 0.455873 -0.262729
C51   C     C_R   0.776757 0.138718 0.566051 0.032951
C52   C     C_R   0.217014 0.161770 0.438538 -0.001635
C53   C     C_R   0.276757 0.638720 0.566050 0.032181
C54   C     C_R   0.717009 0.661787 0.438541 -0.002313
C55   C     C_R   0.003484 0.347238 0.429018 -0.045450
C56   C     C_R   0.010449 0.329193 0.579110 -0.040604
C57   C     C_R   0.503498 0.847241 0.429028 -0.046017
C58   C     C_R   0.510461 0.829186 0.579120 -0.041510
C59   C     C_R   0.967821 0.131066 0.421922 -0.085365
C60   C     C_R   0.259970 0.035601 0.646668 0.541117
C61   C     C_R   0.992918 0.105084 0.567542 -0.083671
C62   C     C_R   0.467813 0.631079 0.421933 -0.085298
C63   C     C_R   0.492921 0.605084 0.567550 -0.083719
C64   C     C_R   0.960726 0.017229 0.453813 -0.120012
C65   C     C_R   0.974640 0.003672 0.526216 -0.131596
C66   C     C_R   0.460709 0.517243 0.453824 -0.119842
C67   C     C_R   0.474631 0.503679 0.526225 -0.131128
C68   C     C_R   0.997702 0.222898 0.536978 0.006593
C69   C     C_R   0.989930 0.233947 0.462056 -0.009398
C70   C     C_R   0.497710 0.722898 0.536987 0.006567
C71   C     C_R   0.739238 0.035243 0.353067 0.549139
C72   C     C_R   0.489935 0.733952 0.462066 -0.008732
C73   C     C_R   0.031412 0.437478 0.545677 -0.000189
C74   C     C_R   0.016665 0.453112 0.472764 0.003912
C75   C     C_R   0.531433 0.937467 0.545691 -0.000129
C76   C     C_R   0.516690 0.953109 0.472778 0.003353
C77   C     C_R   0.791633 0.171045 0.638789 0.558909
C78   C     C_R   0.208153 0.172772 0.361102 0.561663
C79   C     C_R   0.291634 0.671048 0.638789 0.560925
C80   C     C_R   0.708151 0.672778 0.361102 0.563906
C81   C     C_R   0.061245 0.534784 0.585460 -0.083117
C82   C     C_R   0.733941 0.038280 0.550548 -0.126135
C83   C     C_R   0.016215 0.575187 0.446755 -0.075767
C84   C     C_R   0.561267 0.034765 0.585480 -0.083009
C85   C     C_R   0.516245 0.075186 0.446774 -0.075685
C86   C     C_R   0.067816 0.650632 0.555925 -0.117831
C87   C     C_R   0.042914 0.671756 0.487376 -0.131976
C88   C     C_R   0.567838 0.150616 0.555952 -0.117642
C89   C     C_R   0.542939 0.171750 0.487403 -0.131506
C90   C     C_R   0.730454 0.002828 0.063013 0.015766
C91   C     C_R   0.266215 0.016659 0.934403 0.011656
C92   C     C_R   0.243302 0.551460 0.069369 0.027311
C93   C     C_R   0.162457 0.114731 0.480223 -0.167461
C94   C     C_R   0.744998 0.584361 0.921651 0.031512
C95   C     C_R   0.788531 0.959244 0.025113 -0.035279
C96   C     C_R   0.221596 0.947557 0.977253 -0.036358
C97   C     C_R   0.296603 0.492367 0.031526 -0.022988
C98   C     C_R   0.687231 0.539984 0.959571 -0.009249
C99   C     C_R   0.797260 0.986684 0.953725 0.044185
C100  C     C_R   0.213276 0.977838 0.048911 0.042170
C101  C     C_R   0.301453 0.501792 0.958609 0.038604
C102  C     C_R   0.683987 0.551401 0.032286 0.003271
C103  C     C_R   0.685689 0.091063 0.951942 -0.162252
C104  C     C_R   0.233937 0.538285 0.550549 -0.126593
C105  C     C_R   0.295991 0.143042 0.036515 -0.173461
C106  C     C_R   0.191199 0.610071 0.955488 -0.173301
C107  C     C_R   0.791576 0.665263 0.032671 -0.149775
C108  C     C_R   0.676620 0.061508 0.024370 -0.126951
C109  C     C_R   0.302575 0.115479 0.964285 -0.154430
C110  C     C_R   0.187423 0.602588 0.030167 -0.144729
C111  C     C_R   0.794327 0.655966 0.958112 -0.144804
C112  C     C_3   0.864991 0.975582 0.041508 -0.248822
C113  C     C_3   0.143804 0.934130 0.966641 -0.226242
C114  C     C_3   0.373990 0.497862 0.042990 -0.268204
C115  C     C_R   0.662454 0.614746 0.480227 -0.167110
C116  C     C_3   0.655740 0.414390 0.961759 -0.252776
C117  C     C_3   0.874624 0.005706 0.963353 -0.041856
C118  C     C_3   0.134928 0.969866 0.043774 -0.026454
C119  C     C_3   0.380245 0.510527 0.962467 -0.036134
C120  C     C_3   0.650837 0.429188 0.042216 -0.063856
C121  C     C_R   0.749030 0.061930 0.917652 0.016321
C122  C     C_R   0.250568 0.074979 0.079448 0.006360
C123  C     C_R   0.252109 0.571239 0.920240 0.013944
C124  C     C_R   0.738232 0.605982 0.070613 0.045183
C125  C     C_R   0.973847 0.343913 0.648411 0.521717
C126  C     C_R   0.718746 0.009581 0.479704 -0.129016
C127  C     C_R   0.029016 0.347939 0.354089 0.520714
C128  C     C_R   0.473850 0.843912 0.648415 0.521903
C129  C     C_R   0.529022 0.847940 0.354094 0.519557
C130  C     C_R   0.990517 0.335777 0.080247 0.016823
C131  C     C_R   0.984283 0.342650 0.930763 0.017016
C132  C     C_R   0.496910 0.832709 0.077528 0.014771
C133  C     C_R   0.489224 0.842928 0.928456 0.016325
C134  C     C_R   0.964610 0.439609 0.045593 0.022829
C135  C     C_R   0.962557 0.442348 0.972322 0.039629
C136  C     C_R   0.464677 0.932380 0.044527 0.010789
Cr1   Cr    Cr6+3 0.885860 0.491680 0.749630 1.015793
Cr2   Cr    Cr6+3 0.112430 0.179310 0.249850 1.029001
Cr3   Cr    Cr6+3 0.387570 0.679310 0.750150 1.029175
Cr4   Cr    Cr6+3 0.612430 0.679310 0.249850 1.013397
Cr5   Cr    Cr6+3 0.114140 0.491680 0.250370 1.006898
Cr6   Cr    Cr6+3 0.385860 0.991680 0.749630 1.009655
Cr7   Cr    Cr6+3 0.614140 0.991680 0.250370 1.036058
Cr8   Cr    Cr6+3 0.730490 0.332970 0.748720 1.003214
Cr9   Cr    Cr6+3 0.269510 0.332970 0.251280 1.005817
Cr10  Cr    Cr6+3 0.230490 0.832970 0.748720 1.002063
Cr11  Cr    Cr6+3 0.769510 0.832970 0.251280 1.006965
Cr12  Cr    Cr6+3 0.887570 0.179310 0.750150 1.039060
H1    H     H_    0.711215 0.984498 0.593016 0.131269
H2    H     H_    0.321440 0.224301 0.057020 0.139701
H3    H     H_    0.149694 0.653827 0.925730 0.122032
H4    H     H_    0.831247 0.716406 0.060734 0.124284
H5    H     H_    0.631077 0.095099 0.051698 0.146348
H6    H     H_    0.331843 0.176728 0.930830 0.171267
H7    H     H_    0.142679 0.640504 0.057163 0.157868
H8    H     H_    0.836859 0.697426 0.929630 0.163452
H9    H     H_    0.891546 0.890159 0.058776 0.175069
H10   H     H_    0.127389 0.839899 0.954344 0.162043
H11   H     H_    0.395074 0.410881 0.065089 0.158313
H12   H     H_    0.113299 0.088147 0.455833 0.157984
H13   H     H_    0.693527 0.342971 0.943857 0.186488
H14   H     H_    0.875010 0.055442 0.077122 0.144552
H15   H     H_    0.121337 0.003427 0.929648 0.158449
H16   H     H_    0.390135 0.581468 0.072760 0.130570
H17   H     H_    0.603824 0.411528 0.934773 0.172197
H18   H     H_    0.888779 0.102240 0.954599 0.125159
H19   H     H_    0.109974 0.060716 0.049587 0.107625
H20   H     H_    0.399488 0.601331 0.945933 0.125333
H21   H     H_    0.595820 0.436923 0.061901 0.130141
H22   H     H_    0.008832 0.149288 0.934933 0.150825
H23   H     H_    0.211211 0.484506 0.593018 0.132357
H24   H     H_    0.008403 0.141580 0.066409 0.150262
H25   H     H_    0.526013 0.655290 0.929392 0.141583
H26   H     H_    0.536738 0.647527 0.059471 0.146657
H27   H     H_    0.035722 0.590355 0.072955 0.179933
H28   H     H_    0.943992 0.632933 0.945268 0.166462
H29   H     H_    0.524227 0.097144 0.078174 0.167190
H30   H     H_    0.440635 0.127270 0.944314 0.173215
H31   H     H_    0.940885 0.628623 0.073317 0.153646
H32   H     H_    0.037531 0.583384 0.945983 0.137453
H33   H     H_    0.428834 0.115133 0.072514 0.142624
H34   H     H_    0.613296 0.588159 0.455837 0.158199
H35   H     H_    0.534770 0.087387 0.950837 0.140234
H36   H     H_    0.684684 0.932867 0.467886 0.121312
H37   H     H_    0.133056 0.040566 0.580738 0.141600
H38   H     H_    0.184682 0.432867 0.467889 0.122248
H39   H     H_    0.633054 0.540579 0.580743 0.141339
H40   H     H_    0.245141 0.832127 0.398668 0.159505
H41   H     H_    0.884490 0.565165 0.545554 0.158986
H42   H     H_    0.745176 0.332137 0.398660 0.162180
H43   H     H_    0.384496 0.065148 0.545556 0.158527
H44   H     H_    0.842094 0.320244 0.381582 0.139183
H45   H     H_    0.089681 0.724924 0.587190 0.124795
H46   H     H_    0.397034 0.232240 0.561570 0.145280
H47   H     H_    0.342059 0.820272 0.381576 0.137472
H48   H     H_    0.897029 0.732255 0.561576 0.144623
H49   H     H_    0.865074 0.371767 0.503576 0.134847
H50   H     H_    0.377819 0.269904 0.437015 0.139050
H51   H     H_    0.365053 0.871789 0.503566 0.134906
H52   H     H_    0.877811 0.769938 0.437023 0.139101
H53   H     H_    0.768147 0.382853 0.520858 0.148417
H54   H     H_    0.361920 0.102902 0.421162 0.141347
H55   H     H_    0.268125 0.882848 0.520864 0.147499
H56   H     H_    0.043913 0.763217 0.465605 0.108318
H57   H     H_    0.861916 0.602937 0.421162 0.141946
H58   H     H_    0.945552 0.939289 0.421733 0.108919
H59   H     H_    0.971386 0.914402 0.550541 0.105715
H60   H     H_    0.445521 0.439310 0.421746 0.108431
H61   H     H_    0.471371 0.414408 0.550549 0.105923
H62   H     H_    0.954408 0.138178 0.365899 0.133914
H63   H     H_    0.006456 0.088868 0.622811 0.134608
H64   H     H_    0.454396 0.638199 0.365911 0.132232
H65   H     H_    0.506464 0.588865 0.622819 0.134047
H66   H     H_    0.992731 0.599342 0.396171 0.139859
H67   H     H_    0.589701 0.224905 0.587223 0.124916
H68   H     H_    0.078414 0.521438 0.640116 0.128508
H69   H     H_    0.492761 0.099349 0.396191 0.140117
H70   H     H_    0.578431 0.021410 0.640137 0.127842
H71   H     H_    0.930343 0.804657 0.836599 0.321349
H72   H     H_    0.112990 0.764823 0.176721 0.332761
H73   H     H_    0.421293 0.287472 0.843060 0.323521
H74   H     H_    0.790205 0.257620 0.095847 0.337177
H75   H     H_    0.543936 0.263216 0.465639 0.109159
H76   H     H_    0.646643 0.146404 0.925095 0.118048
O1    O     O_R   0.957020 0.451640 0.669920 -0.519017
O2    O     O_R   0.168040 0.093290 0.169870 -0.488474
O3    O     O_R   0.331960 0.593290 0.830130 -0.478504
O4    O     O_R   0.668040 0.593290 0.169870 -0.498648
O5    O     O_R   0.945600 0.250580 0.824860 -0.504407
O6    O     O_R   0.054400 0.250580 0.175140 -0.506867
O7    O     O_R   0.445600 0.750580 0.824860 -0.510080
O8    O     O_R   0.554400 0.750580 0.175140 -0.513859
O9    O     O_3   0.834640 0.334650 0.749500 -0.267570
O10   O     O_3   0.165360 0.334650 0.250500 -0.270682
O11   O     O_3   0.334640 0.834650 0.749500 -0.286557
O12   O     O_R   0.042980 0.451640 0.330080 -0.526427
O13   O     O_3   0.665360 0.834650 0.250500 -0.295453
O14   O     O_R   0.821450 0.543440 0.674610 -0.495532
O15   O     O_R   0.178550 0.543440 0.325390 -0.498480
O16   O     O_R   0.321450 0.043440 0.674610 -0.490055
O17   O     O_R   0.678550 0.043440 0.325390 -0.488562
O18   O     O_R   0.715320 0.458650 0.668100 -0.536769
O19   O     O_R   0.284680 0.458650 0.331900 -0.526638
O20   O     O_R   0.215320 0.958650 0.668100 -0.533124
O21   O     O_R   0.784680 0.958650 0.331900 -0.524630
O22   O     O_R   0.737170 0.209590 0.674530 -0.510535
O23   O     O_R   0.457020 0.951640 0.669920 -0.518054
O24   O     O_R   0.262830 0.209590 0.325470 -0.500617
O25   O     O_R   0.237170 0.709590 0.674530 -0.509986
O26   O     O_R   0.762830 0.709590 0.325470 -0.498014
O27   O     O_R   0.832710 0.092740 0.669580 -0.503087
O28   O     O_R   0.167290 0.092740 0.330420 -0.510754
O29   O     O_R   0.332710 0.592740 0.669580 -0.500438
O30   O     O_R   0.667290 0.592740 0.330420 -0.507637
O31   O     O_R   0.946290 0.250060 0.676040 -0.521565
O32   O     O_R   0.053710 0.250060 0.323960 -0.519571
O33   O     O_R   0.446290 0.750060 0.676040 -0.520142
O34   O     O_R   0.542980 0.951640 0.330080 -0.525275
O35   O     O_R   0.553710 0.750060 0.323960 -0.518837
O36   O     O_R   0.956270 0.452200 0.830470 -0.520590
O37   O     O_R   0.043730 0.452200 0.169530 -0.529074
O38   O     O_R   0.456270 0.952200 0.830470 -0.527672
O39   O     O_R   0.543730 0.952200 0.169530 -0.531100
O40   O     O_R   0.820760 0.543950 0.823440 -0.494381
O41   O     O_R   0.179240 0.543950 0.176560 -0.502516
O42   O     O_R   0.320760 0.043950 0.823440 -0.497489
O43   O     O_R   0.679240 0.043950 0.176560 -0.455550
O44   O     O_R   0.714570 0.459210 0.828640 -0.523880
O45   O     O_R   0.736470 0.210100 0.823360 -0.510076
O46   O     O_R   0.285430 0.459210 0.171360 -0.522534
O47   O     O_R   0.214570 0.959210 0.828640 -0.513862
O48   O     O_R   0.785430 0.959210 0.171360 -0.521368
O49   O     O_2   0.979428 0.894092 0.942901 -0.542216
O50   O     O_R   0.894730 0.862102 0.859342 -0.690147
O51   O     O_2   0.041569 0.845183 0.081909 -0.538730
O52   O     O_R   0.141588 0.824135 0.147336 -0.687809
O53   O     O_2   0.472811 0.366883 0.951041 -0.595657
O54   O     O_R   0.390729 0.355848 0.862916 -0.678864
O55   O     O_2   0.672842 0.296074 0.138610 -0.501443
O56   O     O_R   0.263530 0.210100 0.176640 -0.508669
O57   O     O_R   0.765139 0.316270 0.062542 -0.709292
O58   O     O_R   0.236470 0.710100 0.823360 -0.518669
O59   O     O_R   0.763530 0.710100 0.176640 -0.521565
O60   O     O_R   0.831960 0.093290 0.830130 -0.476203

loop_
_geom_bond_atom_site_label_1
_geom_bond_atom_site_label_2
_ccdc_geom_bond_type
C35   H44   S    
C78   O28   A    
C40   C118  S    
C74   C83   A    
C8    H27   S    
C90   C95   A    
C48   H55   S    
C80   O30   A    
Cr8   O9    S    
C43   H46   S    
C57   C76   A    
C86   H45   S    
C95   C99   A    
C81   H68   S    
C40   O52   S    
C29   C33   A    
C94   C111  A    
C33   C45   S    
Cr9   O19   S    
C36   C47   S    
C26   C126  A    
C125  O31   A    
C41   O54   S    
C91   C96   A    
C55   C74   A    
C108  H5    S    
C44   H47   S    
Cr8   O18   S    
C47   H50   S    
C60   O16   A    
C81   C86   A    
C59   H62   S    
C99   C121  A    
Cr5   O15   S    
Cr9   O10   S    
C22   C130  S    
C26   C71   S    
C130  C134  A    
Cr7   O34   S    
C107  C124  A    
H74   O57   S    
C73   C81   A    
C48   H51   S    
C27   C31   A    
C28   C32   A    
C17   O45   A    
C62   C66   A    
C58   C70   A    
C98   C102  A    
C75   C76   A    
Cr11  O48   S    
C22   O6    A    
C117  H18   S    
C1    C29   S    
C79   O29   A    
C109  H6    S    
C7    C132  A    
C84   H70   S    
C59   C69   A    
C104  H23   S    
C39   O50   S    
C5    C130  A    
C35   H42   S    
Cr3   O11   S    
C71   O21   A    
C103  C121  A    
C87   H56   S    
C56   C73   A    
Cr5   O37   S    
C84   C88   A    
C4    C5    A    
C6    C7    A    
C33   C38   A    
C27   C60   S    
C45   C50   S    
C67   H61   S    
C3    C11   S    
C15   C91   S    
Cr1   O40   S    
C61   C65   A    
C88   C89   A    
Cr10  O20   S    
C62   H64   S    
C31   C36   A    
Cr3   O7    S    
C43   C47   S    
C76   C85   A    
C23   O7    A    
C44   C48   S    
C25   O8    A    
C58   C128  S    
Cr7   O13   S    
C49   O15   A    
C15   O42   A    
C19   C123  S    
C34   C51   A    
C31   C43   S    
C9    H28   S    
C24   H39   S    
Cr2   O28   S    
C120  H21   S    
C113  H15   S    
C53   C104  A    
C118  H19   S    
Cr2   O2    S    
Cr12  O9    S    
C12   O40   A    
C19   O3    A    
Cr1   O1    S    
C110  H7    S    
C17   O60   A    
C46   H53   S    
C82   C126  A    
C78   O24   A    
C34   C46   S    
C20   O59   A    
C114  C119  S    
C36   C52   A    
C37   C53   A    
C45   H48   S    
C66   C67   A    
C80   O26   A    
H73   O54   S    
C49   O19   A    
C92   C97   A    
Cr4   O4    S    
C30   C34   A    
Cr10  O25   S    
C8    C134  S    
C116  H13   S    
Cr2   O6    S    
C56   C68   A    
C116  C120  S    
C47   H54   S    
Cr9   O46   S    
C12   O44   A    
C99   C117  S    
C28   C49   S    
C114  H16   S    
C132  C136  A    
C52   C93   A    
C32   C37   A    
C55   C69   A    
C9    C135  S    
Cr6   O11   S    
C55   C127  S    
C26   C30   A    
C115  H34   S    
C105  C109  A    
Cr10  O11   S    
C10   H29   S    
C107  C111  A    
Cr6   O42   S    
C129  O35   A    
C89   H75   S    
C134  C135  A    
C65   H59   S    
C20   O4    A    
C128  O33   A    
C2    H37   S    
C90   C108  A    
C42   C120  S    
C96   C100  A    
Cr4   O13   S    
C5    H24   S    
C105  C122  A    
C20   C124  S    
C16   O43   A    
C41   O53   D    
C1    O18   A    
Cr6   O23   S    
C97   C114  S    
C25   C132  S    
C83   C87   A    
C16   C90   S    
C82   H1    S    
C88   H67   S    
C73   C74   A    
C83   H66   S    
Cr11  O26   S    
Cr6   O16   S    
C105  H2    S    
Cr10  O47   S    
C6    C133  A    
C95   C112  S    
C112  C117  S    
C52   C78   S    
C94   C98   A    
C7    H26   S    
Cr3   O3    S    
C77   O22   A    
C24   C29   A    
C21   C131  S    
C68   C69   A    
Cr7   O17   S    
C13   C28   A    
C2    C27   A    
Cr10  O58   S    
C14   O41   A    
C39   O49   D    
C128  O23   A    
C12   C94   S    
Cr8   O44   S    
C102  C124  A    
C16   O48   A    
C54   C80   S    
Cr11  O13   S    
C60   O20   A    
C112  H9    S    
C85   C89   A    
C86   C87   A    
C46   H49   S    
C40   O51   D    
C39   C117  S    
C64   H58   S    
C93   H12   S    
C51   C77   S    
C103  H76   S    
C66   H60   S    
C38   C54   A    
C21   O5    A    
C54   C115  A    
Cr2   O32   S    
C59   C64   A    
C56   C125  S    
C41   C119  S    
C13   C104  A    
C4    H22   S    
C18   O56   A    
C17   C121  S    
Cr4   O8    S    
C116  H17   S    
Cr2   O10   S    
Cr4   O30   S    
C102  C120  S    
C125  O1    A    
Cr12  O27   S    
C13   H38   S    
Cr3   O29   S    
C14   O46   A    
C6    H25   S    
C64   C65   A    
Cr8   O45   S    
C8    H31   S    
Cr3   O33   S    
C57   C72   A    
C75   C84   A    
C106  H3    S    
C10   H33   S    
Cr6   O38   S    
C35   C46   S    
C119  H20   S    
Cr4   O35   S    
Cr8   O22   S    
H72   O52   S    
C126  H36   S    
C92   C110  A    
C127  O12   A    
C101  C123  A    
C30   C35   S    
C57   C129  S    
C53   C79   S    
C10   C136  S    
C3    C136  A    
C131  C135  A    
C25   O39   A    
C22   O37   A    
Cr11  O59   S    
C61   H63   S    
Cr1   O14   S    
C85   H69   S    
C18   O2    A    
C8    C9    S    
C106  C123  A    
C103  C108  A    
C77   O27   A    
C113  H10   S    
C111  H8    S    
C100  C122  A    
C43   H43   S    
C79   O25   A    
C15   O47   A    
C58   C75   A    
C4    C131  A    
C63   C67   A    
C23   C133  S    
C127  O32   A    
C101  C119  S    
C11   H35   S    
C71   O17   A    
C129  O34   A    
C10   C11   S    
C50   H52   S    
Cr5   O10   S    
C23   O38   A    
H71   O50   S    
C3    C133  A    
Cr5   O41   S    
C98   C116  S    
C63   C70   A    
C32   C44   S    
C62   C72   A    
C11   H30   S    
C63   H65   S    
C37   C48   S    
C51   C82   A    
C14   C92   S    
C9    H32   S    
C44   H40   S    
C107  H4    S    
C45   H41   S    
C18   C122  S    
Cr12  O31   S    
Cr9   O56   S    
Cr1   O9    S    
C106  C110  A    
Cr1   O36   S    
C19   O58   A    
C42   O57   S    
Cr12  O60   S    
Cr9   O24   S    
C2    C93   A    
C21   O36   A    
C38   C50   S    
C1    O14   A    
C112  H14   S    
C91   C109  A    
C42   O55   D    
C61   C68   A    
Cr5   O12   S    
Cr7   O43   S    
C100  C118  S    
C96   C113  S    
C114  H11   S    
C113  C118  S    
C50   H57   S    
Cr7   O39   S    
Cr11  O21   S    
C24   C115  A    
C70   C72   A    
Cr12  O5    S    
C97   C101  A    
