data_mof_unit_27979.cif
_audit_creation_date              2012-12-11T15:37:21-0500
_audit_creation_method            fapswitch 2.2
_symmetry_space_group_name_H-M    P1
_symmetry_Int_Tables_number       1
_space_group_crystal_system       triclinic
_cell_length_a                    17.604689
_cell_length_b                    24.105949
_cell_length_c                    15.225132
_cell_angle_alpha                 89.278483
_cell_angle_beta                  126.263086
_cell_angle_gamma                 90.557494
_cell_volume                      5209.29888803

loop_
_atom_site_label
_atom_site_type_symbol
_atom_type_description
_atom_site_fract_x
_atom_site_fract_y
_atom_site_fract_z
_atom_type_partial_charge
C1    C     C_R   0.847703 0.652035 0.906649 -0.135679
C2    C     C_3   0.587861 0.500089 0.570431 0.208446
C3    C     C_3   0.063385 0.986374 0.422907 -0.146274
C4    C     C_3   0.971441 0.627837 0.322086 -0.968813
C5    C     C_3   0.842479 0.436734 0.538391 -0.884837
C6    C     C_3   0.169797 0.589688 0.860280 -0.908541
C7    C     C_3   0.194411 0.415225 0.466652 -0.869356
C8    C     C_3   0.439201 0.120143 0.297269 -0.931134
C9    C     C_3   0.345487 0.937011 0.537876 -0.890889
C10   C     C_3   0.669369 0.091418 0.858014 -0.909384
C11   C     C_3   0.700306 0.922709 0.459120 -0.865917
C12   C     C_3   0.792954 0.358787 0.690744 -0.915336
C13   C     C_3   0.926191 0.999214 0.385652 0.222821
C14   C     C_3   0.281488 0.602203 0.447532 -0.973325
C15   C     C_3   0.217813 0.351606 0.296496 -0.898521
C16   C     C_3   0.789236 0.619009 0.638441 -0.980262
C17   C     C_3   0.294848 0.858447 0.690591 -0.911534
C18   C     C_3   0.772848 0.121577 0.370998 -1.001134
C19   C     C_3   0.731968 0.854626 0.305842 -0.898196
C20   C     C_3   0.259418 0.104510 0.574106 -0.944926
C21   C     C_3   0.104043 0.003476 0.539099 0.213358
C22   C     C_R   0.656857 0.315957 0.901871 -0.171604
C23   C     C_R   0.207608 0.770566 0.099505 -0.167961
C24   C     C_R   0.335585 0.312230 0.095531 -0.173254
C25   C     C_R   0.780547 0.766760 0.894260 -0.170763
C26   C     C_R   0.157391 0.816115 0.902854 -0.171395
C27   C     C_R   0.705579 0.270982 0.098207 -0.166607
C28   C     C_R   0.837053 0.813905 0.090521 -0.172881
C29   C     C_R   0.192720 0.381045 0.087486 -0.132182
C30   C     C_R   0.284943 0.268865 0.898586 -0.170277
C31   C     C_R   0.107349 0.771214 0.902412 -0.168353
C32   C     C_R   0.756979 0.315196 0.098916 -0.167388
C33   C     C_R   0.885255 0.768703 0.091287 -0.167198
C34   C     C_R   0.237867 0.314798 0.898448 -0.165633
C35   C     C_R   0.606042 0.271391 0.901145 -0.167904
C36   C     C_R   0.258104 0.815220 0.099914 -0.167482
C37   C     C_R   0.382444 0.266423 0.095734 -0.167984
C38   C     C_R   0.732137 0.811941 0.893563 -0.163859
C39   C     C_R   0.138182 0.744826 0.000755 0.139898
C40   C     C_R   0.146761 0.653803 0.090975 -0.146303
C41   C     C_R   0.738871 0.334153 0.000852 0.142346
C42   C     C_R   0.851479 0.741586 0.993653 0.143510
C43   C     C_R   0.256924 0.333248 0.996664 0.143574
C44   C     C_R   0.636001 0.245282 0.999378 0.143698
C45   C     C_R   0.239365 0.834395 0.001622 0.143057
C46   C     C_R   0.351909 0.241507 0.997080 0.143261
C47   C     C_R   0.753971 0.831820 0.992151 0.143807
C48   C     C_R   0.051798 0.445646 0.585535 -0.183303
C49   C     C_R   0.104458 0.540772 0.531250 -0.188153
C50   C     C_R   0.034842 0.449101 0.485927 -0.198098
C51   C     C_R   0.808482 0.376883 0.909790 -0.131233
C52   C     C_R   0.100796 0.541313 0.618698 -0.212313
C53   C     C_R   0.557584 0.945334 0.591027 -0.168842
C54   C     C_R   0.595710 0.041968 0.524572 -0.170413
C55   C     C_R   0.537288 0.947663 0.489415 -0.203214
C56   C     C_R   0.596160 0.042613 0.614763 -0.216878
C57   C     C_R   0.060954 0.497214 0.458047 0.202273
C58   C     C_R   0.065415 0.494809 0.640440 0.169861
C59   C     C_R   0.554712 0.996873 0.454680 0.178096
C60   C     C_R   0.567116 0.995229 0.642138 0.168248
C61   C     C_R   0.903412 0.376334 0.092486 -0.126489
C62   C     C_R   0.347500 0.152181 0.907192 -0.133442
C63   C     C_R   0.049535 0.654585 0.910603 -0.058649
C64   C     C_R   0.093485 0.373796 0.906900 -0.128227
C65   C     C_R   0.943519 0.652772 0.087683 -0.122492
C66   C     C_R   0.403732 0.876257 0.092715 -0.124401
C67   C     C_R   0.548160 0.154612 0.909774 -0.042671
C68   C     C_R   0.591259 0.872553 0.905439 -0.128598
C69   C     C_R   0.444388 0.152808 0.088061 -0.118748
C70   C     C_R   0.031379 0.545948 0.292998 0.174230
C71   C     C_R   0.986433 0.453524 0.721040 0.121784
C72   C     C_R   0.016328 0.544942 0.747474 0.150990
C73   C     C_R   0.690848 0.877793 0.085561 -0.133802
C74   C     C_R   0.047082 0.453757 0.302488 0.106472
C75   C     C_R   0.525021 0.045043 0.289475 0.162367
C76   C     C_R   0.487679 0.953576 0.721886 0.119509
C77   C     C_R   0.517104 0.044971 0.748420 0.146692
C78   C     C_R   0.544581 0.953292 0.300895 0.103092
C79   C     C_R   0.740112 0.454902 0.699453 0.170597
C80   C     C_R   0.257344 0.546011 0.300162 0.153628
C81   C     C_R   0.257927 0.454519 0.302652 0.165995
C82   C     C_R   0.738764 0.546114 0.703406 0.183450
C83   C     C_R   0.245842 0.956015 0.693619 0.158427
C84   C     C_R   0.644436 0.154494 0.089813 -0.131693
C85   C     C_R   0.770141 0.045471 0.268545 0.195034
C86   C     C_R   0.768915 0.953737 0.279568 0.158570
C87   C     C_R   0.246440 0.047334 0.697925 0.156660
C88   C     C_R   0.878542 0.684005 0.996053 0.026691
C89   C     C_R   0.185489 0.364463 0.996044 0.031639
C90   C     C_R   0.112070 0.686809 0.000578 0.026677
C91   C     C_R   0.812728 0.363668 0.001531 0.033008
C92   C     C_R   0.378606 0.184004 0.997169 0.029770
C93   C     C_R   0.682609 0.861862 0.993417 0.031274
C94   C     C_R   0.609717 0.187271 0.999262 -0.000636
C95   C     C_R   0.308307 0.877278 0.909777 -0.129878
C96   C     C_R   0.312848 0.863950 0.001805 0.030037
C97   C     C_R   0.043898 0.499522 0.353859 -0.066867
C98   C     C_R   0.026174 0.498111 0.701840 -0.047597
C99   C     C_R   0.536386 0.998485 0.349589 -0.049697
C100  C     C_R   0.528055 0.998191 0.703715 -0.048646
C101  C     C_R   0.687704 0.500727 0.644898 -0.168297
C102  C     C_R   0.307417 0.500545 0.361052 -0.115663
C103  C     C_R   0.199639 0.002620 0.633456 -0.118519
C104  C     C_R   0.826318 0.999197 0.309538 -0.178880
C105  C     C_3   0.524897 0.450784 0.553139 -0.180454
C106  C     C_3   0.407268 0.501387 0.437915 0.219888
C107  C     C_3   0.470350 0.550706 0.455531 -0.150556
C108  C     C_3   0.469884 0.461276 0.429764 -0.189746
C109  C     C_3   0.525598 0.540179 0.578942 -0.173290
C110  C     C_3   0.034046 0.966314 0.541371 -0.196912
C111  C     C_3   0.995170 0.036229 0.381689 -0.170900
C112  C     C_3   0.991750 0.949251 0.423702 -0.185949
C113  C     C_3   0.038011 0.053339 0.499875 -0.148695
C114  C     C_3   0.460800 0.490974 0.559496 -0.140437
C115  C     C_3   0.534327 0.510524 0.449003 -0.146364
C116  C     C_3   0.967762 0.016097 0.501838 -0.133257
H1    H     H_    0.808343 0.666034 0.823318 0.127970
H2    H     H_    0.000159 0.669863 0.828419 0.080569
H3    H     H_    0.862040 0.618732 0.713861 0.258659
H4    H     H_    0.165743 0.895511 0.573238 0.171818
H5    H     H_    0.279011 0.822245 0.723003 0.238848
H6    H     H_    0.366100 0.873669 0.753865 0.270442
H7    H     H_    0.293794 0.843565 0.621215 0.246493
H8    H     H_    0.867220 0.110217 0.333835 0.172305
H9    H     H_    0.794477 0.165709 0.391104 0.249143
H10   H     H_    0.807778 0.097087 0.447762 0.256038
H11   H     H_    0.695735 0.119025 0.326438 0.250446
H12   H     H_    0.854209 0.901439 0.418297 0.168787
H13   H     H_    0.062414 0.362858 0.823875 0.083686
H14   H     H_    0.751396 0.821568 0.272562 0.233336
H15   H     H_    0.657333 0.866323 0.246250 0.274424
H16   H     H_    0.740978 0.834712 0.377144 0.241130
H17   H     H_    0.197460 0.127676 0.650326 0.145274
H18   H     H_    0.272244 0.148281 0.562653 0.243905
H19   H     H_    0.195023 0.089502 0.496418 0.254430
H20   H     H_    0.320768 0.079380 0.595362 0.256792
H21   H     H_    0.992988 0.670262 0.166390 0.102685
H22   H     H_    0.431750 0.870490 0.177108 0.085032
H23   H     H_    0.497773 0.169456 0.827320 0.088242
H24   H     H_    0.558995 0.861987 0.822048 0.083520
H25   H     H_    0.496089 0.170745 0.165580 0.094924
H26   H     H_    0.427403 0.483214 0.601606 0.116549
H27   H     H_    0.567597 0.518314 0.406759 0.116975
H28   H     H_    0.927015 0.027288 0.533329 0.112737
H29   H     H_    0.257808 0.385232 0.166735 0.129574
H30   H     H_    0.106000 0.974613 0.394097 0.116899
H31   H     H_    0.546896 0.409707 0.594575 0.111844
H32   H     H_    0.449103 0.592048 0.415529 0.107698
H33   H     H_    0.445752 0.429067 0.366792 0.114697
H34   H     H_    0.550623 0.572360 0.642162 0.110443
H35   H     H_    0.050823 0.937781 0.608497 0.115936
H36   H     H_    0.976511 0.064256 0.313227 0.109144
H37   H     H_    0.972168 0.906680 0.390043 0.113821
H38   H     H_    0.053218 0.096735 0.528396 0.109490
H39   H     H_    0.636436 0.331904 0.824128 0.104918
H40   H     H_    0.183876 0.667915 0.173473 0.093762
H41   H     H_    0.229882 0.753446 0.177243 0.104258
H42   H     H_    0.355491 0.326784 0.173363 0.105745
H43   H     H_    0.755835 0.749061 0.816728 0.107291
H44   H     H_    0.136581 0.832237 0.825055 0.105247
H45   H     H_    0.727428 0.254077 0.175922 0.106761
H46   H     H_    0.860506 0.830467 0.168390 0.105708
H47   H     H_    0.262765 0.252567 0.820928 0.104622
H48   H     H_    0.050927 0.754342 0.824584 0.106851
H49   H     H_    0.816070 0.330496 0.176792 0.104136
H50   H     H_    0.943029 0.752505 0.169427 0.109788
H51   H     H_    0.747333 0.374180 0.827081 0.129042
H52   H     H_    0.181168 0.332271 0.820863 0.102819
H53   H     H_    0.549721 0.254443 0.823306 0.104943
H54   H     H_    0.317112 0.830662 0.177692 0.103732
H55   H     H_    0.436159 0.248009 0.173679 0.110887
H56   H     H_    0.672412 0.827351 0.815809 0.101508
H57   H     H_    0.042212 0.406046 0.610642 0.116173
H58   H     H_    0.135378 0.575899 0.518491 0.151863
H59   H     H_    0.004603 0.413498 0.432945 0.120537
H60   H     H_    0.122803 0.579143 0.662961 0.145658
H61   H     H_    0.552984 0.905780 0.620902 0.111455
H62   H     H_    0.307458 0.166390 0.823913 0.096022
H63   H     H_    0.622666 0.077832 0.508081 0.144026
H64   H     H_    0.509496 0.910968 0.439557 0.118139
H65   H     H_    0.615792 0.081162 0.656570 0.144543
H66   H     H_    0.084912 0.625116 0.309868 0.178212
H67   H     H_    0.992148 0.670685 0.354102 0.247429
H68   H     H_    0.953058 0.604664 0.370638 0.267818
H69   H     H_    0.908155 0.629612 0.236063 0.262827
H70   H     H_    0.946110 0.375842 0.641056 0.139642
H71   H     H_    0.792597 0.402765 0.488478 0.236094
H72   H     H_    0.865889 0.456567 0.492025 0.250830
H73   H     H_    0.756372 0.878515 0.163526 0.135016
H74   H     H_    0.804796 0.467828 0.552728 0.258131
H75   H     H_    0.048090 0.621554 0.711324 0.147658
H76   H     H_    0.203305 0.631268 0.877916 0.249060
H77   H     H_    0.204463 0.561335 0.837378 0.241116
H78   H     H_    0.182928 0.572657 0.936144 0.263758
H79   H     H_    0.070405 0.370550 0.351979 0.144888
H80   H     H_    0.246007 0.382846 0.485893 0.237909
H81   H     H_    0.185576 0.411050 0.532430 0.241971
H82   H     H_    0.225846 0.456243 0.471196 0.249230
H83   H     H_    0.566085 0.128359 0.311784 0.144664
H84   H     H_    0.678864 0.169560 0.171208 0.132587
H85   H     H_    0.448595 0.163378 0.326481 0.242851
H86   H     H_    0.418320 0.093797 0.340165 0.261230
H87   H     H_    0.382119 0.119247 0.208424 0.260972
H88   H     H_    0.449360 0.876658 0.639819 0.141575
H89   H     H_    0.294584 0.903380 0.488262 0.236352
H90   H     H_    0.370009 0.955619 0.491730 0.252092
H91   H     H_    0.308511 0.969146 0.551085 0.258648
H92   H     H_    0.544862 0.122584 0.710824 0.145748
H93   H     H_    0.701161 0.133491 0.875260 0.248871
H94   H     H_    0.703944 0.064272 0.833212 0.241855
H95   H     H_    0.247053 0.875045 0.826888 0.128311
H96   H     H_    0.684457 0.073765 0.934494 0.263083
H97   H     H_    0.577338 0.873542 0.367789 0.145022
H98   H     H_    0.746422 0.885912 0.493432 0.232839
H99   H     H_    0.697313 0.936647 0.525645 0.245467
H100  H     H_    0.733865 0.955735 0.441255 0.256364
H101  H     H_    0.666771 0.398156 0.570484 0.169720
H102  H     H_    0.775960 0.322270 0.721294 0.238609
H103  H     H_    0.863923 0.373812 0.755144 0.270853
H104  H     H_    0.793272 0.344252 0.622135 0.247345
H105  H     H_    0.301423 0.627599 0.331137 0.149829
H106  H     H_    0.930722 0.371053 0.176646 0.082400
H107  H     H_    0.261282 0.643682 0.458159 0.248295
H108  H     H_    0.357505 0.596062 0.512777 0.259995
H109  H     H_    0.240137 0.570198 0.455656 0.257478
H110  H     H_    0.342764 0.392260 0.419868 0.164914
H111  H     H_    0.238821 0.321391 0.260261 0.236224
H112  H     H_    0.144301 0.364822 0.236239 0.271744
H113  H     H_    0.221555 0.327880 0.361628 0.237067
H114  H     H_    0.655313 0.609473 0.596931 0.170990
H115  H     H_    0.772355 0.662132 0.605925 0.245675
H116  H     H_    0.784235 0.591487 0.577136 0.257039
N1    N     N_R   0.892620 0.603790 0.941800 -0.038569
N2    N     N_R   0.047790 0.602400 0.942090 -0.039975
N3    N     N_R   0.047790 0.397600 0.942090 -0.046516
N4    N     N_R   0.952210 0.602400 0.057910 -0.038793
N5    N     N_R   0.452210 0.897600 0.057910 -0.043995
N6    N     N_R   0.547790 0.102400 0.942090 -0.037873
N7    N     N_R   0.547790 0.897600 0.942090 -0.046349
N8    N     N_R   0.452210 0.102400 0.057910 -0.040377
N9    N     N_R   0.026300 0.529110 0.206760 -0.078921
N10   N     N_R   0.973700 0.470890 0.793240 -0.067050
N11   N     N_R   0.973700 0.529110 0.793240 -0.071689
N12   N     N_R   0.107380 0.396210 0.058200 -0.039427
N13   N     N_R   0.026300 0.470890 0.206760 -0.074331
N14   N     N_R   0.526300 0.029110 0.206760 -0.080051
N15   N     N_R   0.473700 0.970890 0.793240 -0.068721
N16   N     N_R   0.473700 0.029110 0.793240 -0.069101
N17   N     N_R   0.526300 0.970890 0.206760 -0.070833
N18   N     N_R   0.818530 0.472270 0.792960 -0.067971
N19   N     N_R   0.181470 0.527730 0.207040 -0.081278
N20   N     N_R   0.181470 0.472270 0.207040 -0.069467
N21   N     N_R   0.818530 0.527730 0.792960 -0.067090
N22   N     N_R   0.318530 0.972270 0.792960 -0.069603
N23   N     N_R   0.107380 0.603790 0.058200 -0.045765
N24   N     N_R   0.681470 0.027730 0.207040 -0.071020
N25   N     N_R   0.681470 0.972270 0.207040 -0.064074
N26   N     N_R   0.318530 0.027730 0.792960 -0.075513
N27   N     N_2   0.048812 0.601250 0.330305 -0.122223
N28   N     N_2   0.921938 0.414506 0.641304 -0.110685
N29   N     N_2   0.069104 0.594543 0.774806 -0.116779
N30   N     N_2   0.105611 0.406582 0.359429 -0.101427
N31   N     N_2   0.526529 0.100447 0.319945 -0.122212
N32   N     N_2   0.423851 0.914573 0.641360 -0.109503
N33   N     N_2   0.568231 0.095144 0.774363 -0.114827
N34   N     N_R   0.892620 0.396210 0.941800 -0.039871
N35   N     N_2   0.607754 0.908392 0.360806 -0.104581
N36   N     N_2   0.721217 0.400779 0.652284 -0.120809
N37   N     N_2   0.262520 0.599657 0.341224 -0.113884
N38   N     N_2   0.283300 0.398129 0.341479 -0.119468
N39   N     N_2   0.723954 0.601077 0.661275 -0.119914
N40   N     N_2   0.223236 0.900411 0.652939 -0.121617
N41   N     N_2   0.798682 0.100998 0.303405 -0.113811
N42   N     N_2   0.795221 0.901850 0.338631 -0.119634
N43   N     N_2   0.247860 0.101369 0.660570 -0.111261
N44   N     N_R   0.392620 0.103790 0.941800 -0.040071
N45   N     N_R   0.607380 0.896210 0.058200 -0.040840
N46   N     N_R   0.607380 0.103790 0.058200 -0.045619
N47   N     N_R   0.392620 0.896210 0.941800 -0.038781
N48   N     N_R   0.952210 0.397600 0.057910 -0.045269
Ni1   Ni    Ni4+2 0.934150 0.565840 0.869060 0.201973
Ni2   Ni    Ni4+2 0.065850 0.434160 0.130940 0.210241
Ni3   Ni    Ni4+2 0.065850 0.565840 0.130940 0.200209
Ni4   Ni    Ni4+2 0.934150 0.434160 0.869060 0.209813
Ni5   Ni    Ni4+2 0.434150 0.065840 0.869060 0.211666
Ni6   Ni    Ni4+2 0.565850 0.934160 0.130940 0.210875
Ni7   Ni    Ni4+2 0.565850 0.065840 0.130940 0.192862
Ni8   Ni    Ni4+2 0.434150 0.934160 0.869060 0.209614

loop_
_geom_bond_atom_site_label_1
_geom_bond_atom_site_label_2
_ccdc_geom_bond_type
C74   N13   A    
N1    Ni1   S    
N7    Ni8   S    
C9    N32   S    
C28   C47   A    
C56   H65   S    
H17   N43   S    
N8    Ni7   S    
C55   C59   A    
C59   C99   S    
C55   H64   S    
N11   Ni1   S    
C65   N4    A    
C51   H51   S    
C33   H50   S    
C58   C98   S    
C73   C93   A    
C113  H38   S    
C86   C104  A    
C111  H36   S    
C29   C89   A    
C21   C110  S    
H88   N32   S    
C14   N37   S    
C28   H46   S    
N19   N20   A    
C2    C109  S    
C72   C98   A    
C84   H84   S    
H66   N27   S    
C72   N29   S    
C43   C89   S    
C83   C103  A    
C106  C114  S    
N26   Ni5   S    
N9    N13   A    
C33   C42   A    
C86   N42   S    
C108  C115  S    
C14   H108  S    
C8    H85   S    
C10   N33   S    
N48   Ni2   S    
C5    H74   S    
C13   C112  S    
C78   N17   A    
C9    H90   S    
C70   N9    A    
H83   N31   S    
N16   Ni5   S    
C18   H11   S    
C24   H42   S    
C19   N42   S    
C46   C92   S    
C106  C107  S    
N22   N26   A    
C69   H25   S    
H92   N33   S    
C105  H31   S    
C51   N34   A    
N12   Ni2   S    
C49   C57   A    
C54   H63   S    
C77   C100  A    
C80   N37   S    
H8    N41   S    
N10   Ni4   S    
N13   Ni2   S    
C61   H106  S    
N25   Ni6   S    
C26   C45   A    
C51   C91   A    
C116  H28   S    
C40   N23   A    
C27   C44   A    
C10   H94   S    
C62   N44   A    
C95   C96   A    
C29   N12   A    
C3    C111  S    
C80   N19   A    
C84   N46   A    
C25   H43   S    
C67   C94   A    
C32   C41   A    
C82   N21   A    
C26   H44   S    
C69   C92   A    
C67   H23   S    
C52   H60   S    
C12   H103  S    
C77   N33   S    
C70   C97   A    
C11   H100  S    
N44   Ni5   S    
C113  C116  S    
C65   H21   S    
H101  N36   S    
C19   H14   S    
C48   C50   A    
C11   H99   S    
C76   N32   S    
C26   C31   A    
C4    H67   S    
C32   H49   S    
C15   H113  S    
C110  C116  S    
C107  C109  S    
C72   N11   A    
N14   Ni7   S    
C27   H45   S    
N4    Ni3   S    
C87   N43   S    
C64   C89   A    
N9    Ni3   S    
C17   N40   S    
C34   H52   S    
N5    Ni6   S    
C87   N26   A    
C12   H102  S    
C49   H58   S    
C105  C108  S    
C53   C60   A    
N21   Ni1   S    
N10   N11   A    
C74   C97   A    
C54   C56   A    
C54   C59   A    
C53   C55   A    
C19   H15   S    
N3    N12   A    
C71   C98   A    
C115  H27   S    
C22   H39   S    
C95   N47   A    
N46   Ni7   S    
C30   C34   A    
C83   N22   A    
C14   H107  S    
C17   H5    S    
H79   N30   S    
C44   C94   S    
C71   N10   A    
C64   N3    A    
C21   C113  S    
C110  H35   S    
C9    H91   S    
C16   H3    S    
H70   N28   S    
C63   H2    S    
C73   H73   S    
C1    H1    S    
C2    C101  S    
C73   N45   A    
C71   N28   S    
C23   H41   S    
C16   H116  S    
C5    N28   S    
C4    H68   S    
C56   C60   A    
N24   Ni7   S    
C15   H111  S    
C50   H59   S    
C13   C104  S    
C21   C103  S    
C4    H69   S    
C7    H81   S    
C30   H47   S    
C12   N36   S    
C86   N25   A    
C37   H55   S    
C22   C35   A    
N20   Ni2   S    
C25   C38   A    
N6    N46   A    
C6    H76   S    
C2    C115  S    
C105  C114  S    
C10   H93   S    
C66   H22   S    
C3    C112  S    
N2    Ni1   S    
C57   C97   S    
N24   N25   A    
C75   C99   A    
C24   C37   A    
C47   C93   S    
C36   C45   A    
C111  C113  S    
C84   C94   A    
C20   H20   S    
C8    N31   S    
C48   C58   A    
C35   C44   A    
C75   N14   A    
H12   N42   S    
C38   C47   A    
C85   C104  A    
C52   C58   A    
C109  C114  S    
C14   H109  S    
C87   C103  A    
C74   N30   S    
C10   H96   S    
C70   N27   S    
C41   C91   S    
C28   C33   A    
C4    N27   S    
N17   Ni6   S    
C66   N5    A    
C35   H53   S    
C79   N18   A    
C3    C21   S    
C76   N15   A    
C76   C100  A    
C5    H71   S    
C81   N20   A    
N23   Ni3   S    
C15   N38   S    
C75   N31   S    
H75   N29   S    
C6    H78   S    
C16   N39   S    
H105  N37   S    
C65   C88   A    
C66   C96   A    
C48   H57   S    
N34   Ni4   S    
C19   H16   S    
C114  H26   S    
C20   H18   S    
C31   H48   S    
C85   N24   A    
N18   N21   A    
C39   C90   S    
C1    N1    A    
N5    N47   A    
C27   C32   A    
C50   C57   A    
N18   Ni4   S    
C30   C46   A    
C8    H87   S    
C40   H40   S    
C34   C43   A    
N3    Ni4   S    
C49   C52   A    
C81   C102  A    
N15   Ni8   S    
C60   C100  S    
C68   N7    A    
C53   H61   S    
C25   C42   A    
C62   H62   S    
N15   N16   A    
C38   H56   S    
N22   Ni8   S    
C17   H7    S    
N45   Ni6   S    
H97   N35   S    
C67   N6    A    
C36   H54   S    
C68   C93   A    
H4    N40   S    
C15   H112  S    
C112  H37   S    
C77   N16   A    
N34   N48   A    
N47   Ni8   S    
C18   N41   S    
C7    H82   S    
C8    H86   S    
C109  H34   S    
C7    H80   S    
C20   N43   S    
C95   H95   S    
C18   H9    S    
C9    H89   S    
H110  N38   S    
C78   N35   S    
C29   H29   S    
C107  H32   S    
N19   Ni3   S    
C106  C108  S    
C79   N36   S    
C1    C88   A    
C23   C39   A    
N7    N45   A    
C63   C90   A    
N6    Ni5   S    
C81   N38   S    
C61   N48   A    
C82   C101  A    
C85   N41   S    
C107  C115  S    
C6    N29   S    
C20   H19   S    
C83   N40   S    
N1    N4    A    
C110  C112  S    
C7    N30   S    
C13   C116  S    
C68   H24   S    
C2    C105  S    
C11   H98   S    
C82   N39   S    
C108  H33   S    
C22   C41   A    
N8    N44   A    
C17   H6    S    
C42   C88   S    
C64   H13   S    
C3    H30   S    
C13   C111  S    
C23   C36   A    
H114  N39   S    
C102  C106  S    
C80   C102  A    
C78   C99   A    
C31   C39   A    
C24   C43   A    
C11   N35   S    
C79   C101  A    
C5    H72   S    
C40   C90   A    
C37   C46   A    
C62   C92   A    
C45   C96   S    
C16   H115  S    
N2    N23   A    
C12   H104  S    
C6    H77   S    
C18   H10   S    
C61   C91   A    
C69   N8    A    
C63   N2    A    
N14   N17   A    
