data_mof_unit_39122.cif
_audit_creation_date              2012-12-11T16:12:47-0500
_audit_creation_method            fapswitch 2.2
_symmetry_space_group_name_H-M    P1
_symmetry_Int_Tables_number       1
_space_group_crystal_system       triclinic
_cell_length_a                    7.022248
_cell_length_b                    21.120843
_cell_length_c                    23.639553
_cell_angle_alpha                 90.00028
_cell_angle_beta                  89.99961
_cell_angle_gamma                 90.004279
_cell_volume                      3506.11914619

loop_
_atom_site_label
_atom_site_type_symbol
_atom_type_description
_atom_site_fract_x
_atom_site_fract_y
_atom_site_fract_z
_atom_type_partial_charge
O1    O     O_R   0.615270 0.806540 0.192260 -0.535700
O2    O     O_R   0.384730 0.193460 0.807740 -0.535252
O3    O     O_R   0.384730 0.193460 0.692260 -0.535697
O4    O     O_R   0.615270 0.806540 0.307740 -0.535250
O5    O     O_R   0.115270 0.693460 0.307740 -0.535689
O6    O     O_R   0.884730 0.306540 0.692260 -0.535246
O7    O     O_R   0.884730 0.306540 0.807740 -0.535686
O8    O     O_R   0.115270 0.693460 0.192260 -0.535247
O9    O     O_R   0.285500 0.813970 0.307340 -0.535327
O10   O     O_R   0.714500 0.186030 0.692660 -0.533234
O11   O     O_R   0.714500 0.186030 0.807340 -0.535323
O12   O     O_R   0.285500 0.813970 0.192660 -0.533235
O13   O     O_R   0.785500 0.686030 0.192660 -0.535329
O14   O     O_R   0.214500 0.313970 0.807340 -0.533229
O15   O     O_R   0.214500 0.313970 0.692660 -0.535333
O16   O     O_R   0.785500 0.686030 0.307340 -0.533229
C1    C     C_R   0.452505 0.828952 0.326777 0.724077
C2    C     C_R   0.547480 0.171035 0.673242 0.724076
C3    C     C_R   0.547492 0.171048 0.826776 0.724075
C4    C     C_R   0.452523 0.828966 0.173243 0.724090
C5    C     C_R   0.952496 0.671049 0.173221 0.724084
C6    C     C_R   0.047489 0.328965 0.826759 0.724082
C7    C     C_R   0.047503 0.328950 0.673221 0.724085
C8    C     C_R   0.952512 0.671036 0.326759 0.724083
O17   O     O_3   0.448760 0.710460 0.250000 -0.367349
O18   O     O_3   0.551240 0.289540 0.750000 -0.367349
O19   O     O_3   0.948760 0.789540 0.250000 -0.367354
O20   O     O_3   0.051240 0.210460 0.750000 -0.367354
V1    V     V_3+5 0.173900 0.757330 0.250000 1.437704
V2    V     V_3+5 0.826100 0.242670 0.750000 1.437713
V3    V     V_3+5 0.673900 0.742670 0.250000 1.437719
V4    V     V_3+5 0.326100 0.257330 0.750000 1.437717
C9    C     C_3   0.109577 0.532239 0.542523 0.396456
C10   C     C_3   0.890825 0.475387 0.464041 0.356842
C11   C     C_3   0.890416 0.467754 0.042526 0.396452
C12   C     C_3   0.109169 0.524613 0.964043 0.356841
C13   C     C_3   0.609702 0.967773 0.957505 0.396257
C14   C     C_3   0.390620 0.024591 0.035921 0.356672
C15   C     C_3   0.390371 0.032237 0.457488 0.396357
C16   C     C_3   0.609270 0.975399 0.535938 0.356802
C17   C     C_3   0.909088 0.555165 0.524049 0.051895
C18   C     C_3   0.091194 0.453110 0.482005 0.003307
C19   C     C_3   0.090922 0.444834 0.024056 0.051898
C20   C     C_3   0.908783 0.546883 0.982004 0.003255
C21   C     C_3   0.409254 0.944779 0.975962 0.052193
C22   C     C_3   0.590943 0.046932 0.017974 0.003490
C23   C     C_3   0.590838 0.055199 0.475958 0.052076
C24   C     C_3   0.408923 0.953090 0.517979 0.003418
C25   C     C_1   0.951613 0.625921 0.373084 -0.190728
C26   C     C_1   0.048252 0.375525 0.628060 -0.196781
C27   C     C_1   0.048397 0.374078 0.873085 -0.190734
C28   C     C_1   0.951736 0.624474 0.128060 -0.196793
C29   C     C_1   0.451657 0.874085 0.126924 -0.190770
C30   C     C_1   0.548199 0.124467 0.871930 -0.196787
C31   C     C_1   0.548358 0.125918 0.626921 -0.190754
C32   C     C_1   0.451782 0.875532 0.371932 -0.196789
C33   C     C_3   0.164884 0.522468 0.479480 0.016974
C34   C     C_3   0.835671 0.485745 0.526954 0.016982
C35   C     C_3   0.835113 0.477521 0.979481 0.017014
C36   C     C_3   0.164318 0.514258 0.026959 0.017031
C37   C     C_3   0.664848 0.977610 0.020552 0.016843
C38   C     C_3   0.335622 0.014166 0.973003 0.016771
C39   C     C_3   0.335133 0.022430 0.520532 0.016841
C40   C     C_3   0.664355 0.985796 0.473023 0.016847
C41   C     C_3   0.963831 0.544417 0.461035 -0.040091
C42   C     C_3   0.035891 0.462983 0.544790 -0.039207
C43   C     C_3   0.036182 0.455578 0.961040 -0.040111
C44   C     C_3   0.964080 0.537013 0.044791 -0.039243
C45   C     C_3   0.463844 0.955593 0.038977 -0.039948
C46   C     C_3   0.535793 0.036996 0.955187 -0.039048
C47   C     C_3   0.536162 0.044413 0.538971 -0.040010
C48   C     C_3   0.464160 0.962999 0.455193 -0.039113
C49   C     C_1   0.948235 0.588924 0.412479 0.047957
C50   C     C_1   0.051706 0.414891 0.590534 0.041792
C51   C     C_1   0.051785 0.411074 0.912482 0.047962
C52   C     C_1   0.948266 0.585106 0.090535 0.041802
C53   C     C_1   0.448289 0.911088 0.087534 0.047779
C54   C     C_1   0.551613 0.085093 0.909449 0.041761
C55   C     C_1   0.551734 0.088917 0.587528 0.047875
C56   C     C_1   0.448346 0.914904 0.409453 0.041782
C57   C     C_3   0.795624 0.613760 0.542657 -0.367375
C58   C     C_3   0.858904 0.641110 0.599292 -0.599109
H1    H     H_    0.871368 0.603500 0.631848 0.252983
H2    H     H_    0.997567 0.665741 0.594441 0.255941
H3    H     H_    0.752560 0.676413 0.613914 0.216323
H4    H     H_    0.808568 0.651404 0.510088 0.178225
H5    H     H_    0.643760 0.600433 0.545718 0.227559
C59   C     C_3   0.195417 0.393234 0.462449 -0.331392
C60   C     C_3   0.231584 0.391962 0.398828 -0.587438
H6    H     H_    0.096106 0.394663 0.374927 0.262289
H7    H     H_    0.325095 0.431583 0.385931 0.243917
H8    H     H_    0.303817 0.346951 0.387491 0.223085
H9    H     H_    0.333766 0.389937 0.484999 0.188726
H10   H     H_    0.108488 0.351291 0.474162 0.194046
C61   C     C_3   0.204407 0.386241 0.042657 -0.367457
C62   C     C_3   0.141014 0.358846 0.099261 -0.599151
H11   H     H_    0.128563 0.396422 0.131846 0.253010
H12   H     H_    0.002319 0.334241 0.094373 0.255930
H13   H     H_    0.247277 0.323508 0.113864 0.216330
H14   H     H_    0.191575 0.348619 0.010069 0.178238
H15   H     H_    0.356252 0.399580 0.045754 0.227615
C63   C     C_3   0.804498 0.606745 0.962443 -0.331406
C64   C     C_3   0.768394 0.608013 0.898819 -0.587509
H16   H     H_    0.903878 0.605297 0.874931 0.262282
H17   H     H_    0.674871 0.568401 0.885920 0.243935
H18   H     H_    0.696208 0.653026 0.887469 0.223093
H19   H     H_    0.666120 0.610012 0.984980 0.188768
H20   H     H_    0.891350 0.648700 0.974168 0.194035
C65   C     C_3   0.295964 0.886129 0.957380 -0.367494
C66   C     C_3   0.359686 0.858660 0.900841 -0.599312
H21   H     H_    0.372112 0.896186 0.868208 0.253089
H22   H     H_    0.498440 0.834130 0.905811 0.255970
H23   H     H_    0.253608 0.823250 0.886255 0.216249
H24   H     H_    0.308663 0.848559 0.990021 0.178207
H25   H     H_    0.144115 0.899421 0.954189 0.227529
C67   C     C_3   0.694860 0.106880 0.037511 -0.331168
C68   C     C_3   0.731366 0.108145 0.101119 -0.587701
H26   H     H_    0.596057 0.105131 0.125106 0.262350
H27   H     H_    0.825720 0.068695 0.113925 0.244114
H28   H     H_    0.802856 0.153299 0.112451 0.222969
H29   H     H_    0.833068 0.110309 0.014891 0.188616
H30   H     H_    0.607547 0.148758 0.025862 0.194175
C69   C     C_3   0.704234 0.113823 0.457369 -0.367482
C70   C     C_3   0.640702 0.141253 0.400796 -0.599259
H31   H     H_    0.628244 0.103700 0.368188 0.253057
H32   H     H_    0.501998 0.165825 0.405722 0.255960
H33   H     H_    0.746902 0.176617 0.386202 0.216293
H34   H     H_    0.691457 0.151419 0.489984 0.178219
H35   H     H_    0.856079 0.100510 0.454228 0.227552
C71   C     C_3   0.304797 0.893181 0.537513 -0.331300
C72   C     C_3   0.268605 0.891872 0.601134 -0.587466
H36   H     H_    0.404082 0.894591 0.625047 0.262309
H37   H     H_    0.175000 0.931466 0.614046 0.243911
H38   H     H_    0.196446 0.846834 0.612446 0.223020
H39   H     H_    0.166459 0.889860 0.514954 0.188706
H40   H     H_    0.391812 0.851262 0.525790 0.194042
Cl1   Cl    Cl    0.255497 0.564927 0.596718 -0.733747
Cl2   Cl    Cl    0.742828 0.438231 0.412614 -0.715830
Cl3   Cl    Cl    0.744465 0.435072 0.096718 -0.733735
Cl4   Cl    Cl    0.257228 0.561756 0.912625 -0.715875
Cl5   Cl    Cl    0.755744 0.935090 0.903338 -0.733938
Cl6   Cl    Cl    0.242663 0.061791 0.087328 -0.716075
Cl7   Cl    Cl    0.244408 0.064923 0.403305 -0.733835
Cl8   Cl    Cl    0.757250 0.938224 0.587354 -0.715904
C73   C     C_3   0.656351 0.458831 0.556289 -0.324576
C74   C     C_3   0.639623 0.476978 0.618767 -0.623121
H41   H     H_    0.762391 0.460711 0.644062 0.213885
H42   H     H_    0.627500 0.528830 0.623673 0.267036
H43   H     H_    0.509467 0.454903 0.636761 0.234981
H44   H     H_    0.526061 0.475082 0.535221 0.207478
H45   H     H_    0.658904 0.406392 0.552750 0.184233
C75   C     C_3   0.341383 0.547200 0.447256 -0.279337
C76   C     C_3   0.379421 0.617808 0.456620 -0.742140
H46   H     H_    0.277243 0.647483 0.432859 0.221246
H47   H     H_    0.369207 0.630750 0.501828 0.262639
H48   H     H_    0.524345 0.629638 0.441099 0.212053
H49   H     H_    0.469340 0.520421 0.458834 0.214996
H50   H     H_    0.320220 0.539491 0.401249 0.197956
C77   C     C_3   0.343605 0.541198 0.056305 -0.324456
C78   C     C_3   0.360340 0.523026 0.118783 -0.623039
H51   H     H_    0.237593 0.539299 0.144087 0.213852
H52   H     H_    0.372404 0.471173 0.123674 0.267014
H53   H     H_    0.490524 0.545081 0.136779 0.234982
H54   H     H_    0.473981 0.524998 0.035235 0.207430
H55   H     H_    0.340929 0.593644 0.052783 0.184179
C79   C     C_3   0.658615 0.452773 0.947254 -0.279230
C80   C     C_3   0.620621 0.382157 0.956623 -0.742058
H56   H     H_    0.722847 0.352482 0.932876 0.221220
H57   H     H_    0.630801 0.369225 0.001835 0.262625
H58   H     H_    0.475710 0.370313 0.941090 0.212016
H59   H     H_    0.530600 0.479540 0.958820 0.215022
H60   H     H_    0.679786 0.460483 0.901244 0.197910
C81   C     C_3   0.156248 0.040928 0.943612 -0.324696
C82   C     C_3   0.139937 0.022807 0.881118 -0.622741
H61   H     H_    0.262655 0.039207 0.855873 0.213812
H62   H     H_    0.128246 0.970946 0.876184 0.266823
H63   H     H_    0.009691 0.044774 0.863087 0.235133
H64   H     H_    0.026063 0.024497 0.964616 0.207902
H65   H     H_    0.158308 0.093363 0.947185 0.184286
C83   C     C_3   0.841330 0.953015 0.052840 -0.279518
C84   C     C_3   0.879829 0.882438 0.043504 -0.742010
H66   H     H_    0.777798 0.852705 0.067267 0.221268
H67   H     H_    0.869739 0.869470 0.998300 0.262562
H68   H     H_    0.024801 0.870726 0.059040 0.212211
H69   H     H_    0.969108 0.979900 0.041291 0.215204
H70   H     H_    0.819942 0.960721 0.098839 0.198046
C85   C     C_3   0.843703 0.958969 0.443656 -0.324691
C86   C     C_3   0.860209 0.977103 0.381170 -0.622897
H71   H     H_    0.737475 0.960761 0.355902 0.213846
H72   H     H_    0.872087 0.028960 0.376251 0.266913
H73   H     H_    0.990418 0.955091 0.363155 0.235068
H74   H     H_    0.973926 0.975321 0.464690 0.207690
H75   H     H_    0.841422 0.906532 0.447211 0.184266
C87   C     C_3   0.158641 0.047091 0.552787 -0.279400
C88   C     C_3   0.120381 0.117682 0.543438 -0.742098
H76   H     H_    0.222491 0.147386 0.567200 0.221260
H77   H     H_    0.130533 0.130636 0.498233 0.262603
H78   H     H_    0.975437 0.129452 0.558970 0.212134
H79   H     H_    0.030778 0.020256 0.541221 0.215111
H80   H     H_    0.179904 0.039384 0.598789 0.198000

loop_
_geom_bond_atom_site_label_1
_geom_bond_atom_site_label_2
_ccdc_geom_bond_type
O17   V3    S    
C62   H13   S    
C79   H60   S    
C16   C47   S    
O12   V1    S    
C46   C54   S    
C45   C53   S    
C61   C62   S    
C10   C18   S    
C36   C77   S    
C72   H38   S    
C47   C55   S    
C57   C58   S    
C12   C43   S    
C69   C70   S    
C80   H57   S    
C84   H66   S    
O16   V3    S    
O18   V4    S    
O11   C3    A    
C13   Cl5   S    
C86   H73   S    
O8    V1    S    
C11   C44   S    
C11   C35   S    
C27   C51   T    
C17   C34   S    
C15   C23   S    
C68   H27   S    
C30   C54   T    
C21   C65   S    
O19   V1    S    
C81   H65   S    
C20   C35   S    
C42   C50   S    
C33   C75   S    
C21   C38   S    
O1    V3    S    
C41   C49   S    
C67   C68   S    
C38   C46   S    
O3    C2    A    
O2    V4    S    
C82   H61   S    
C35   C43   S    
C66   H21   S    
C34   C42   S    
C87   H80   S    
C71   H39   S    
C86   H72   S    
C9    Cl1   S    
C62   H12   S    
C19   C61   S    
C15   C48   S    
C63   H20   S    
C76   H47   S    
C11   C19   S    
C74   H42   S    
C57   H4    S    
O9    V1    S    
C88   H78   S    
C11   Cl3   S    
O15   C7    A    
C87   C88   S    
C14   C45   S    
C79   H59   S    
O16   C8    A    
O7    V2    S    
C13   C46   S    
C85   H75   S    
C14   Cl6   S    
C24   C71   S    
O3    V4    S    
C24   C48   S    
C18   C33   S    
C9    C42   S    
C73   C74   S    
C80   H58   S    
O5    V1    S    
C84   H67   S    
O17   V1    S    
C75   H50   S    
C34   C73   S    
C14   C22   S    
C67   H29   S    
C22   C37   S    
O19   V3    S    
O4    V3    S    
C78   H53   S    
O15   V4    S    
C18   C42   S    
O11   V2    S    
C68   H28   S    
O14   V4    S    
C80   H56   S    
C20   C63   S    
C61   H14   S    
C7    C26   S    
C17   C41   S    
C28   C52   T    
C81   C82   S    
C38   C81   S    
C21   C45   S    
C10   Cl2   S    
C24   C39   S    
C86   H71   S    
C60   H8    S    
C78   H52   S    
C29   C53   T    
C88   H77   S    
C74   H43   S    
C31   C55   T    
O10   V2    S    
C23   C69   S    
C77   C78   S    
C1    C32   S    
O20   V4    S    
C17   C57   S    
C62   H11   S    
O12   C4    A    
O8    C5    A    
C39   C87   S    
O13   C5    A    
C63   H19   S    
C64   H17   S    
C73   H45   S    
C59   C60   S    
C76   H48   S    
C12   Cl4   S    
C82   H63   S    
C23   C47   S    
C85   H74   S    
C57   H5    S    
C35   C79   S    
C67   H30   S    
C65   H24   S    
C70   H33   S    
O4    C1    A    
C19   C36   S    
C3    C30   S    
O9    C1    A    
O6    V2    S    
C15   Cl7   S    
O18   V2    S    
C58   H2    S    
C16   Cl8   S    
C10   C41   S    
C79   C80   S    
C25   C49   T    
C12   C20   S    
C43   C51   S    
C13   C21   S    
C72   H36   S    
O7    C6    A    
C23   C40   S    
C83   C84   S    
C70   H32   S    
C74   H41   S    
C84   H68   S    
C37   C45   S    
C8    C25   S    
C16   C24   S    
C75   H49   S    
O1    C4    A    
C9    C33   S    
O2    C3    A    
O13   V3    S    
C71   H40   S    
C73   H44   S    
C33   C41   S    
C4    C29   S    
C72   H37   S    
C32   C56   T    
C13   C37   S    
C44   C52   S    
C58   H3    S    
C15   C39   S    
C16   C40   S    
C22   C67   S    
C83   H70   S    
C9    C17   S    
C78   H51   S    
O14   C6    A    
C26   C50   T    
C71   C72   S    
C60   H6    S    
C85   C86   S    
C48   C56   S    
C65   C66   S    
C69   H34   S    
O5    C8    A    
C81   H64   S    
O10   C2    A    
C2    C31   S    
O6    C7    A    
O20   V2    S    
C82   H62   S    
C59   H9    S    
C64   H18   S    
C40   C48   S    
C63   C64   S    
C66   H22   S    
C22   C46   S    
C40   C85   S    
C20   C44   S    
C83   H69   S    
C65   H25   S    
C88   H76   S    
C87   H79   S    
C77   H55   S    
C18   C59   S    
C75   C76   S    
C36   C44   S    
C37   C83   S    
C19   C43   S    
C60   H7    S    
C66   H23   S    
C64   H16   S    
C10   C34   S    
C59   H10   S    
C12   C36   S    
C77   H54   S    
C6    C27   S    
C58   H1    S    
C76   H46   S    
C68   H26   S    
C39   C47   S    
C5    C28   S    
C69   H35   S    
C61   H15   S    
C70   H31   S    
C14   C38   S    
