data_mof_unit_19702.cif
_audit_creation_date              2012-12-10T17:13:34-0500
_audit_creation_method            fapswitch 2.2
_symmetry_space_group_name_H-M    P1
_symmetry_Int_Tables_number       1
_space_group_crystal_system       triclinic
_cell_length_a                    10.734944
_cell_length_b                    12.993993
_cell_length_c                    11.657299
_cell_angle_alpha                 99.986569
_cell_angle_beta                  93.995774
_cell_angle_gamma                 90.436862
_cell_volume                      1597.22231242

loop_
_atom_site_label
_atom_site_type_symbol
_atom_type_description
_atom_site_fract_x
_atom_site_fract_y
_atom_site_fract_z
_atom_type_partial_charge
C1    C     C_R   0.497697 0.299084 0.478477 0.846144
C2    C     C_3   0.878137 0.497488 0.499768 0.019667
C3    C     C_3   0.934601 0.601129 0.572518 -0.463622
C4    C     C_3   0.919023 0.495559 0.373246 -0.409322
C5    C     C_R   0.510114 0.814964 0.535253 -0.147015
C6    C     C_R   0.493882 0.185827 0.466072 -0.036485
C7    C     C_R   0.442054 0.015539 0.350984 -0.186938
C8    C     C_R   0.449948 0.123562 0.360112 -0.182863
C9    C     C_R   0.531742 0.139671 0.562169 -0.195061
C10   C     C_R   0.524649 0.031858 0.553511 0.100803
C11   C     C_R   0.479167 0.969243 0.447357 0.176274
C12   C     C_R   0.259760 0.499808 0.499894 0.779846
C13   C     C_R   0.472223 0.861384 0.439015 -0.341320
C14   C     C_R   0.554145 0.877786 0.642109 0.439085
C15   C     C_R   0.562839 0.986014 0.649510 -0.287842
C16   C     C_R   0.371961 0.411133 0.022154 -0.345915
C17   C     C_R   0.385421 0.418505 0.144293 0.088706
C18   C     C_R   0.556752 0.536923 0.156809 0.027925
C19   C     C_R   0.546835 0.531825 0.034043 0.072941
C20   C     C_R   0.453058 0.468093 0.965913 0.066146
C21   C     C_R   0.443257 0.462991 0.843129 0.019412
C22   C     C_R   0.614113 0.581801 0.855798 0.077704
C23   C     C_R   0.504126 0.701128 0.521761 0.829119
C24   C     C_R   0.627828 0.588836 0.977850 -0.352489
C25   C     C_R   0.740277 0.499173 0.499788 0.849354
C26   C     C_3   0.078016 0.401641 0.548775 -0.448838
C27   C     C_3   0.932322 0.398201 0.547033 0.767471
C28   C     C_3   0.078456 0.600289 0.574292 -0.397491
C29   C     C_3   0.061591 0.491099 0.372670 -0.373438
C30   C     C_3   0.122073 0.498291 0.499260 0.072898
Cu1   Cu    Cu3+1 0.509350 0.507730 0.615930 0.955625
Cu2   Cu    Cu3+1 0.490650 0.492270 0.384070 0.942681
H1    H     H_    0.123934 0.400940 0.636813 0.149120
H2    H     H_    0.886563 0.567003 0.340234 0.171472
H3    H     H_    0.111949 0.669087 0.539088 0.170412
H4    H     H_    0.900125 0.668354 0.532445 0.183523
H5    H     H_    0.437391 0.813570 0.357189 0.174591
H6    H     H_    0.406452 0.968422 0.269195 0.138920
H7    H     H_    0.600591 0.033834 0.730236 0.151660
H8    H     H_    0.419801 0.158404 0.285148 0.151163
H9    H     H_    0.566751 0.187596 0.643877 0.161213
H10   H     H_    0.371958 0.413581 0.789809 0.116858
H11   H     H_    0.112837 0.330035 0.494536 0.176215
H12   H     H_    0.676592 0.626423 0.813434 0.136310
H13   H     H_    0.298584 0.361440 0.972268 0.143268
H14   H     H_    0.701101 0.638559 0.027797 0.136979
H15   H     H_    0.322291 0.374469 0.186716 0.118899
H16   H     H_    0.628086 0.586326 0.210079 0.117748
H17   H     H_    0.119816 0.608753 0.665598 0.168624
H18   H     H_    0.903539 0.616832 0.662371 0.164430
H19   H     H_    0.095890 0.556759 0.332514 0.182056
H20   H     H_    0.087864 0.416858 0.317302 0.185114
H21   H     H_    0.876296 0.428404 0.310267 0.224615
N1    N     N_R   0.523430 0.519360 0.790130 -0.179814
N2    N     N_R   0.476570 0.480640 0.209880 -0.179280
O1    O     O_R   0.506640 0.354460 0.582000 -0.583270
O2    O     O_R   0.490840 0.341410 0.386200 -0.580996
O3    O     O_R   0.325590 0.506510 0.597900 -0.601300
O4    O     O_R   0.309790 0.493450 0.402100 -0.600066
O5    O     O_R   0.509160 0.658590 0.613800 -0.560720
O6    O     O_R   0.493360 0.645540 0.418000 -0.596449
O7    O     O_R   0.690210 0.506550 0.597900 -0.571694
O8    O     O_R   0.674410 0.493490 0.402100 -0.589587
O9    O     O_3   0.602742 0.833352 0.734795 -0.609012
C31   C     C_3   0.522843 0.850549 0.827691 0.052954
H22   H     H_    0.463623 0.779190 0.823169 0.174364
H23   H     H_    0.459295 0.918059 0.825988 0.117165
C32   C     C_3   0.602583 0.870220 0.943523 -0.317548
H24   H     H_    0.672694 0.807952 0.944519 0.219336
H25   H     H_    0.653598 0.946262 0.952313 0.218502
C33   C     C_3   0.522787 0.872423 0.047213 -0.938272
H26   H     H_    0.453216 0.935424 0.049057 0.252379
H27   H     H_    0.583524 0.887571 0.129682 0.264748
H28   H     H_    0.473340 0.796093 0.041620 0.259497
Cl1   Cl    Cl    0.879040 0.282596 0.445843 -0.649334
O10   O     O_3   0.885022 0.380699 0.653988 -0.578748
C34   C     C_3   0.927303 0.449195 0.757803 0.040808
H29   H     H_    0.850058 0.501655 0.785828 0.164837
H30   H     H_    0.009262 0.498535 0.750349 0.122629
C35   C     C_3   0.959858 0.384863 0.853398 -0.309408
H31   H     H_    0.876869 0.337231 0.865521 0.237217
H32   H     H_    0.036605 0.331030 0.826366 0.213700
C36   C     C_3   0.001042 0.454741 0.969368 -0.953478
H33   H     H_    0.085559 0.501594 0.959954 0.256577
H34   H     H_    0.023829 0.405609 0.036724 0.259062
H35   H     H_    0.924919 0.508185 0.999060 0.258850

loop_
_geom_bond_atom_site_label_1
_geom_bond_atom_site_label_2
_ccdc_geom_bond_type
C4    H21   S    
C19   C20   A    
C6    C9    A    
C7    C8    A    
C22   N1    A    
C34   H29   S    
C7    C11   A    
C26   C27   S    
Cu1   O3    S    
C3    C28   S    
C1    O1    A    
Cu2   O6    S    
C10   C15   A    
C21   N1    A    
C18   C19   A    
C25   O8    A    
C12   O4    A    
C22   H12   S    
C36   H33   S    
C28   H3    S    
C16   C17   A    
C31   H23   S    
C2    C27   S    
Cu1   O1    S    
C9    C10   A    
C17   N2    A    
Cu2   N2    S    
C13   H5    S    
C4    C29   S    
C12   O3    A    
Cu1   O7    S    
Cu2   O2    S    
C35   C36   S    
C27   Cl1   S    
C3    H18   S    
C26   H11   S    
C34   H30   S    
C23   O5    A    
C4    H2    S    
C1    C6    S    
O10   C34   S    
C35   H32   S    
C33   H27   S    
C32   H24   S    
C6    C8    A    
Cu1   O5    S    
C2    C4    S    
C29   C30   S    
C1    O2    A    
C28   H17   S    
C26   H1    S    
Cu1   Cu2   S    
C5    C23   S    
C16   C20   A    
C31   C32   S    
C14   O9    S    
C15   H7    S    
C5    C14   A    
C18   N2    A    
C36   H34   S    
C26   C30   S    
C22   C24   A    
C27   O10   S    
C29   H19   S    
C34   C35   S    
C12   C30   S    
C5    C13   A    
C17   H15   S    
Cu2   O8    S    
C35   H31   S    
C18   H16   S    
C16   H13   S    
C33   H28   S    
C9    H9    S    
C24   H14   S    
O9    C31   S    
C28   C30   S    
C2    C3    S    
C33   H26   S    
C11   C13   A    
C3    H4    S    
C32   C33   S    
C7    H6    S    
C19   C24   A    
C2    C25   S    
C25   O7    A    
Cu1   N1    S    
C10   C11   A    
C21   H10   S    
C23   O6    A    
C36   H35   S    
C20   C21   A    
C32   H25   S    
C31   H22   S    
C14   C15   A    
C8    H8    S    
Cu2   O4    S    
C29   H20   S    
