data_mof_unit_46794.cif
_audit_creation_date              2012-12-10T17:52:27-0500
_audit_creation_method            fapswitch 2.2
_symmetry_space_group_name_H-M    P1
_symmetry_Int_Tables_number       1
_space_group_crystal_system       triclinic
_cell_length_a                    19.135702
_cell_length_b                    10.657233
_cell_length_c                    9.875415
_cell_angle_alpha                 89.486716
_cell_angle_beta                  89.998987
_cell_angle_gamma                 91.519198
_cell_volume                      2013.1405256

loop_
_atom_site_label
_atom_site_type_symbol
_atom_type_description
_atom_site_fract_x
_atom_site_fract_y
_atom_site_fract_z
_atom_type_partial_charge
C1    C     C_R   0.503730 0.259176 0.501382 0.871899
C2    C     C_R   0.854680 0.564571 0.500609 0.088470
C3    C     C_R   0.518528 0.102637 0.756464 -0.165516
C4    C     C_R   0.365401 0.501085 0.500039 0.825805
C5    C     C_R   0.499838 0.039254 0.875605 -0.191831
C6    C     C_R   0.457222 0.931774 0.870025 -0.155795
C7    C     C_R   0.438345 0.880299 0.744483 0.191393
C8    C     C_R   0.468259 0.933869 0.624070 0.055529
C9    C     C_R   0.497007 0.055700 0.628933 0.070893
C10   C     C_R   0.502947 0.123957 0.504935 -0.113892
C11   C     C_R   0.495370 0.062826 0.380789 -0.220664
C12   C     C_R   0.290001 0.515383 0.500085 -0.025053
C13   C     C_R   0.484327 0.935579 0.378477 -0.205581
C14   C     C_R   0.475133 0.869731 0.500131 -0.142933
C15   C     C_R   0.408861 0.334415 0.141768 -0.177203
C16   C     C_R   0.490405 0.738174 0.499772 0.883939
C17   C     C_R   0.364581 0.252090 0.071985 -0.210513
C18   C     C_R   0.364642 0.252154 0.931903 -0.178963
C19   C     C_R   0.409023 0.334495 0.860878 -0.160880
C20   C     C_R   0.455174 0.418305 0.928265 0.148115
C21   C     C_R   0.455150 0.418320 0.073095 0.170056
C22   C     C_R   0.542614 0.578582 0.070848 -0.129372
C23   C     C_R   0.930728 0.579571 0.500941 0.289292
C24   C     C_R   0.542577 0.578584 0.927482 -0.134335
C25   C     C_R   0.634646 0.502395 0.499965 0.872305
C26   C     C_R   0.253801 0.521150 0.623124 -0.210306
C27   C     C_R   0.182909 0.544711 0.623639 -0.167566
C28   C     C_R   0.147241 0.561908 0.501034 0.092038
C29   C     C_R   0.183503 0.555460 0.377946 -0.164011
C30   C     C_R   0.254426 0.532114 0.377470 -0.197019
C31   C     C_3   0.381035 0.779247 0.741418 -0.364098
C32   C     C_3   0.312190 0.827372 0.796635 -0.906676
C33   C     C_R   0.071737 0.578094 0.501183 0.287858
C34   C     C_R   0.818233 0.551577 0.623379 -0.161908
C35   C     C_R   0.746619 0.528251 0.623094 -0.195872
C36   C     C_R   0.710483 0.518000 0.500051 -0.036925
C37   C     C_R   0.746783 0.531335 0.377269 -0.194956
C38   C     C_R   0.818421 0.554678 0.377538 -0.161982
H1    H     H_    0.280301 0.508931 0.719105 0.162213
H2    H     H_    0.405714 0.329083 0.753633 0.210432
H3    H     H_    0.156120 0.548428 0.720047 0.150315
H4    H     H_    0.577275 0.642741 0.872710 0.154394
H5    H     H_    0.157170 0.567663 0.281855 0.150425
H6    H     H_    0.281415 0.528648 0.281195 0.160780
H7    H     H_    0.844962 0.558257 0.719799 0.149936
H8    H     H_    0.719879 0.524834 0.280979 0.155606
H9    H     H_    0.845319 0.563742 0.281332 0.149956
H10   H     H_    0.499969 0.112453 0.284797 0.171226
H11   H     H_    0.317040 0.850882 0.905567 0.255667
H12   H     H_    0.551838 0.185467 0.766104 0.173403
H13   H     H_    0.296447 0.912039 0.738961 0.267054
H14   H     H_    0.270519 0.753676 0.786112 0.260256
H15   H     H_    0.370406 0.748078 0.636454 0.205765
H16   H     H_    0.397088 0.696849 0.802540 0.228192
H17   H     H_    0.719608 0.519272 0.719233 0.155688
H18   H     H_    0.515798 0.076816 0.972656 0.151609
H19   H     H_    0.438386 0.889240 0.963597 0.139172
H20   H     H_    0.485938 0.888529 0.281719 0.166577
H21   H     H_    0.577389 0.642661 0.124306 0.146663
H22   H     H_    0.404978 0.329390 0.249057 0.209305
H23   H     H_    0.329839 0.188139 0.127133 0.154816
H24   H     H_    0.330115 0.188003 0.877733 0.155766
N1    N     N_R   0.036013 0.583073 0.382849 -0.179025
N2    N     N_R   0.966710 0.583774 0.382727 -0.178723
N3    N     N_R   0.966524 0.578378 0.619332 -0.178827
N4    N     N_R   0.035824 0.577654 0.619455 -0.179051
N5    N     N_R   0.499340 0.498800 0.142780 -0.119732
N6    N     N_R   0.499320 0.498720 0.857170 -0.129773
O1    O     O_R   0.500000 0.316780 0.614690 -0.644594
O2    O     O_R   0.499990 0.316750 0.385360 -0.635194
O3    O     O_R   0.398140 0.500000 0.614700 -0.653465
O4    O     O_R   0.398130 0.499970 0.385370 -0.637456
O5    O     O_R   0.500010 0.683250 0.614640 -0.622934
O6    O     O_R   0.500000 0.683220 0.385310 -0.615162
O7    O     O_R   0.601870 0.500030 0.614630 -0.616783
O8    O     O_R   0.601860 0.500000 0.385300 -0.614198
Zn1   Zn    Zn3+2 0.500000 0.500020 0.653130 0.914964
Zn2   Zn    Zn3+2 0.500000 0.499980 0.346870 0.930993

loop_
_geom_bond_atom_site_label_1
_geom_bond_atom_site_label_2
_ccdc_geom_bond_type
O2    Zn2   S    
C24   H4    S    
C15   H22   S    
C5    H18   S    
O1    Zn1   S    
C35   C36   A    
C4    O4    A    
C7    C8    A    
C26   C27   A    
C37   C38   A    
C16   O6    A    
C36   C37   A    
O8    Zn2   S    
C18   C19   A    
C5    C6    A    
C26   H1    S    
C34   C35   A    
C27   H3    S    
C32   H14   S    
O4    Zn2   S    
C17   H23   S    
C19   C20   A    
C8    C9    A    
C4    C12   S    
C9    C10   A    
C2    C34   A    
C13   C14   A    
C29   H5    S    
C6    H19   S    
C30   H6    S    
C11   H10   S    
N5    Zn2   S    
C3    H12   S    
C33   N4    A    
C32   H11   S    
C7    C31   S    
C35   H17   S    
C16   O5    A    
C19   H2    S    
C22   H21   S    
C18   H24   S    
C13   H20   S    
C1    O1    A    
C12   C26   A    
C25   O7    A    
C32   H13   S    
C29   C30   A    
C3    C9    A    
C2    C38   A    
C31   C32   S    
C33   N1    A    
C2    C23   S    
C17   C18   A    
C34   H7    S    
C31   H15   S    
O7    Zn1   S    
C38   H9    S    
C23   N2    A    
C28   C33   S    
C14   C16   S    
O3    Zn1   S    
N6    Zn1   S    
C15   C17   A    
C28   C29   A    
C8    C14   A    
C12   C30   A    
C20   N6    A    
C1    C10   S    
C3    C5    A    
C6    C7    A    
C1    O2    A    
C25   O8    A    
C23   N3    A    
C11   C13   A    
C22   C24   A    
C31   H16   S    
C22   N5    A    
C10   C11   A    
C24   N6    A    
C25   C36   S    
N1    N2    A    
C15   C21   A    
C20   C21   A    
N3    N4    A    
O6    Zn2   S    
C27   C28   A    
O5    Zn1   S    
C37   H8    S    
C4    O3    A    
C21   N5    A    
