data_mof_unit_50266.cif
_audit_creation_date              2012-12-11T16:58:24-0500
_audit_creation_method            fapswitch 2.2
_symmetry_space_group_name_H-M    P1
_symmetry_Int_Tables_number       1
_space_group_crystal_system       triclinic
_cell_length_a                    16.891439
_cell_length_b                    7.251339
_cell_length_c                    16.77381
_cell_angle_alpha                 91.163344
_cell_angle_beta                  100.441482
_cell_angle_gamma                 88.44618
_cell_volume                      2019.53665023

loop_
_atom_site_label
_atom_site_type_symbol
_atom_type_description
_atom_site_fract_x
_atom_site_fract_y
_atom_site_fract_z
_atom_type_partial_charge
O1    O     O_R   0.413450 0.494370 0.415710 -0.554489
O2    O     O_R   0.586550 0.994370 0.584290 -0.520494
O3    O     O_R   0.578420 0.819350 0.429360 -0.530846
O4    O     O_R   0.421580 0.319350 0.570640 -0.530879
C1    C     C_R   0.606425 0.652371 0.415802 0.710734
C2    C     C_R   0.394091 0.159251 0.585207 0.683860
O5    O     O_R   0.413570 0.823780 0.406240 -0.539166
O6    O     O_R   0.586430 0.323780 0.593760 -0.529026
O7    O     O_R   0.420530 0.998740 0.561000 -0.527774
O8    O     O_R   0.579470 0.498740 0.439000 -0.542463
C3    C     C_R   0.386034 0.656257 0.383795 0.766291
C4    C     C_R   0.613993 0.155108 0.615985 0.792697
O9    O     O_3   0.502480 0.662320 0.550800 -0.367354
O10   O     O_3   0.497520 0.162320 0.449200 -0.397673
V1    V     V_3+5 0.499540 0.935370 0.490580 1.455354
V2    V     V_3+5 0.500460 0.435370 0.509420 1.459703
C5    C     C_R   0.756756 0.069262 0.675680 -0.085748
C6    C     C_R   0.323230 0.570837 0.240610 -0.069531
C7    C     C_R   0.682327 0.147470 0.684815 -0.223289
C8    C     C_R   0.316553 0.652631 0.315550 -0.281038
C9    C     C_R   0.677126 0.231545 0.760889 0.322044
C10   C     C_R   0.241867 0.740187 0.322772 0.402773
C11   C     C_R   0.744972 0.227406 0.825891 0.358727
C12   C     C_R   0.173390 0.722654 0.259419 0.359332
C13   C     C_R   0.815888 0.125129 0.817100 -0.255248
C14   C     C_R   0.180266 0.622700 0.187028 -0.212310
C15   C     C_R   0.821001 0.057108 0.739762 -0.074807
C16   C     C_R   0.256641 0.554988 0.178839 -0.101398
C17   C     C_3   0.853908 0.881030 0.709352 0.134592
C18   C     C_3   0.284235 0.368137 0.153569 0.196951
C19   C     C_3   0.782882 0.894669 0.637232 0.368982
C20   C     C_3   0.358873 0.387974 0.219832 0.286162
H1    H     H_    0.855470 0.763212 0.751019 0.088832
H2    H     H_    0.296464 0.364749 0.090604 0.142448
H3    H     H_    0.802555 0.924544 0.579129 0.128466
H4    H     H_    0.364448 0.282592 0.268220 0.062196
C21   C     C_R   0.329118 0.166582 0.634839 -0.160611
C22   C     C_R   0.671126 0.630277 0.366421 -0.169511
C23   C     C_R   0.166713 0.104314 0.861422 -0.064138
C24   C     C_R   0.834190 0.639641 0.138654 -0.055857
C25   C     C_R   0.276779 0.933887 0.814169 -0.157200
C26   C     C_R   0.723681 0.822149 0.178577 -0.147939
C27   C     C_R   0.222272 0.954498 0.867561 -0.148644
C28   C     C_R   0.778483 0.788939 0.126343 -0.176855
C29   C     C_R   0.167399 0.234943 0.800800 -0.201386
C30   C     C_R   0.833517 0.522624 0.204293 -0.177000
C31   C     C_R   0.221045 0.212541 0.745577 0.070017
C32   C     C_R   0.779629 0.557946 0.258259 0.065589
C33   C     C_R   0.276189 0.060945 0.752224 0.148405
C34   C     C_R   0.724234 0.708727 0.245332 0.150478
C35   C     C_R   0.329988 0.039357 0.697250 -0.254283
C36   C     C_R   0.670190 0.743259 0.299034 -0.280048
C37   C     C_R   0.270446 0.313637 0.626174 0.360635
C38   C     C_R   0.730113 0.484773 0.381386 0.364494
C39   C     C_R   0.218951 0.336925 0.682541 -0.159315
C40   C     C_R   0.781761 0.447670 0.326147 -0.167990
H5    H     H_    0.374193 0.926864 0.704565 0.140267
H6    H     H_    0.625830 0.854863 0.287074 0.142429
H7    H     H_    0.318548 0.816768 0.820596 0.120043
H8    H     H_    0.681650 0.938298 0.167385 0.123423
H9    H     H_    0.175801 0.451519 0.675773 0.154318
H10   H     H_    0.825249 0.334269 0.337711 0.147995
H11   H     H_    0.223157 0.851657 0.913692 0.129723
H12   H     H_    0.777491 0.881057 0.076104 0.133926
H13   H     H_    0.124162 0.349346 0.794554 0.126450
H14   H     H_    0.876839 0.408740 0.215128 0.120798
O11   O     O_R   0.920630 0.775410 0.061150 -0.545570
O12   O     O_R   0.079370 0.275410 0.938850 -0.531846
O13   O     O_R   0.086500 0.441450 0.093690 -0.521770
O14   O     O_R   0.913500 0.941450 0.906310 -0.555468
C41   C     C_R   0.112451 0.610120 0.117545 0.773806
C42   C     C_R   0.885510 0.110611 0.884499 0.770635
O15   O     O_R   0.921670 0.445960 0.070740 -0.533219
O16   O     O_R   0.078330 0.945960 0.929260 -0.543860
O17   O     O_R   0.913380 0.271130 0.915780 -0.525549
O18   O     O_R   0.086620 0.771130 0.084220 -0.539736
C43   C     C_R   0.896146 0.617483 0.086354 0.680306
C44   C     C_R   0.104222 0.110845 0.913687 0.700487
O19   O     O_3   0.997500 0.603030 0.949220 -0.385158
O20   O     O_3   0.002500 0.103030 0.050780 -0.382075
V3    V     V_3+5 0.000470 0.329940 0.009420 1.449824
V4    V     V_3+5 0.999530 0.829940 0.990580 1.388959
O21   O     O_3   0.605723 0.316410 0.772547 -0.556586
C45   C     C_3   0.557745 0.183476 0.799755 -0.211021
H15   H     H_    0.542504 0.070378 0.754133 0.102903
H16   H     H_    0.500297 0.251216 0.808817 0.161742
H17   H     H_    0.587615 0.125846 0.858946 0.159478
O22   O     O_3   0.232485 0.818860 0.396378 -0.523588
C46   C     C_3   0.242146 0.011206 0.393508 -0.129549
H18   H     H_    0.296192 0.048447 0.368479 0.097912
H19   H     H_    0.249593 0.067908 0.456182 0.140453
H20   H     H_    0.187985 0.079260 0.358033 0.118823
O23   O     O_3   0.738171 0.301136 0.901181 -0.548517
C47   C     C_3   0.742822 0.494856 0.898966 -0.169222
H21   H     H_    0.797714 0.538323 0.876908 0.111631
H22   H     H_    0.746420 0.550815 0.961485 0.140411
H23   H     H_    0.687986 0.556956 0.861555 0.152315
O24   O     O_3   0.098040 0.770466 0.276083 -0.545054
C48   C     C_3   0.070585 0.941841 0.241522 -0.167859
H24   H     H_    0.014605 0.920508 0.196742 0.167668
H25   H     H_    0.114526 0.013678 0.211491 0.133030
H26   H     H_    0.054385 0.034808 0.289692 0.144563
O25   O     O_3   0.927793 0.908325 0.685082 -0.629244
H27   H     H_    0.968929 0.908463 0.735511 0.296835
O26   O     O_3   0.234071 0.224890 0.167756 -0.650003
H28   H     H_    0.223631 0.238513 0.224023 0.265537
O27   O     O_3   0.724905 0.752570 0.625650 -0.559607
C49   C     C_3   0.706339 0.682059 0.697839 -0.200017
H29   H     H_    0.704171 0.788340 0.746029 0.097650
H30   H     H_    0.749698 0.569090 0.720389 0.122904
H31   H     H_    0.645689 0.622035 0.683607 0.203031
O28   O     O_3   0.427963 0.406332 0.184291 -0.552096
C50   C     C_3   0.496408 0.426676 0.245331 -0.166846
H32   H     H_    0.493553 0.561337 0.277437 0.112556
H33   H     H_    0.550533 0.426187 0.216462 0.156860
H34   H     H_    0.504061 0.310698 0.288729 0.134821
O29   O     O_3   0.260834 0.437478 0.563503 -0.619429
H35   H     H_    0.280594 0.379098 0.516755 0.282589
O30   O     O_3   0.740156 0.376793 0.449481 -0.637903
H36   H     H_    0.721407 0.448173 0.493754 0.308243

loop_
_geom_bond_atom_site_label_1
_geom_bond_atom_site_label_2
_ccdc_geom_bond_type
O23   C47   S    
C15   C17   S    
O11   C43   A    
C45   H17   S    
O2    C4    A    
C2    O7    A    
C27   H11   S    
C31   C33   A    
C28   H12   S    
C24   C30   A    
C12   O24   S    
O12   V3    S    
C20   H4    S    
C10   C12   A    
C7    C9    A    
C12   C14   A    
C30   H14   S    
C41   O18   A    
C21   C35   A    
C37   O29   S    
C22   C36   A    
C17   H1    S    
C49   H29   S    
C17   O25   S    
C29   C31   A    
O15   V3    S    
O13   C41   A    
O21   C45   S    
C33   C35   A    
O1    C3    A    
C34   C36   A    
O27   C49   S    
C35   H5    S    
C10   O22   S    
C46   H19   S    
C23   C29   A    
C50   H34   S    
C21   C37   A    
O5    V1    S    
O6    V2    S    
C1    C22   S    
C14   C41   S    
C25   C27   A    
C26   C28   A    
O16   V4    S    
C42   O17   A    
C25   C33   A    
O28   C50   S    
C30   C32   A    
C37   C39   A    
O12   C44   A    
C38   C40   A    
C3    C8    S    
C18   H2    S    
C5    C15   A    
C23   C44   S    
C9    O21   S    
C6    C16   A    
C45   H15   S    
C25   H7    S    
O4    C2    A    
C26   H8    S    
C13   C42   S    
O17   V3    S    
C23   C27   A    
C47   H23   S    
C11   O23   S    
O4    V2    S    
O5    C3    A    
C48   H24   S    
C22   C38   A    
O6    C4    A    
C2    C21   S    
O1    V2    S    
C46   H20   S    
C47   H22   S    
O2    V1    S    
C40   H10   S    
C36   H6    S    
C26   C34   A    
C48   H25   S    
C8    C10   A    
C9    C11   A    
C18   O26   S    
C29   H13   S    
C5    C19   S    
C19   H3    S    
C6    C20   S    
O18   V4    S    
O3    V1    S    
C31   C39   A    
C50   H32   S    
C32   C40   A    
C20   O28   S    
C24   C43   S    
C19   O27   S    
C45   H16   S    
O20   V3    S    
O3    C1    A    
O19   V4    S    
O30   H36   S    
C13   C15   A    
O26   H28   S    
C14   C16   A    
C49   H31   S    
C16   C18   S    
O7    V1    S    
C1    O8    A    
C17   C19   S    
O8    V2    S    
O29   H35   S    
C18   C20   S    
C39   H9    S    
C4    C7    S    
C32   C34   A    
C5    C7    A    
C49   H30   S    
C6    C8    A    
C11   C13   A    
C47   H21   S    
O14   V4    S    
O13   V3    S    
C24   C28   A    
C48   H26   S    
O22   C46   S    
O11   V4    S    
O24   C48   S    
O16   C44   A    
O9    V2    S    
O25   H27   S    
O15   C43   A    
O10   V1    S    
O14   C42   A    
C46   H18   S    
C38   O30   S    
C50   H33   S    
