data_mof_unit_32706.cif
_audit_creation_date              2012-12-11T14:29:30-0500
_audit_creation_method            fapswitch 2.2
_symmetry_space_group_name_H-M    P1
_symmetry_Int_Tables_number       1
_space_group_crystal_system       triclinic
_cell_length_a                    6.938039
_cell_length_b                    14.634382
_cell_length_c                    16.380722
_cell_angle_alpha                 90.338115
_cell_angle_beta                  90.086112
_cell_angle_gamma                 89.914938
_cell_volume                      1663.16615399

loop_
_atom_site_label
_atom_site_type_symbol
_atom_type_description
_atom_site_fract_x
_atom_site_fract_y
_atom_site_fract_z
_atom_type_partial_charge
O1    O     O_R   0.494400 0.416610 0.413880 -0.550474
O2    O     O_R   0.823920 0.406790 0.585520 -0.548810
O3    O     O_R   0.994250 0.583390 0.586120 -0.523717
C1    C     C_R   0.654908 0.383708 0.612182 0.741076
O4    O     O_R   0.824110 0.405730 0.414490 -0.547203
O5    O     O_R   0.994440 0.582310 0.413870 -0.532960
C2    C     C_R   0.654885 0.383725 0.386290 0.725140
O6    O     O_R   0.494210 0.417690 0.586130 -0.542129
O7    O     O_3   0.660810 0.557940 0.500000 -0.359216
V1    V     V_3+5 0.935650 0.489250 0.500000 1.443454
O8    O     O_R   0.324160 0.593210 0.414480 -0.534653
C3    C     C_R   0.155780 0.611297 0.383637 0.814182
O9    O     O_R   0.323970 0.594270 0.585510 -0.543177
C4    C     C_R   0.154667 0.619358 0.611606 0.736836
V2    V     V_3+5 0.435660 0.510750 0.500000 1.447266
O10   O     O_3   0.160630 0.442060 0.500000 -0.385994
H1    H     H_    0.397454 0.935242 0.532665 0.126772
C5    C     C_R   0.017065 0.567675 0.770017 -0.145545
C6    C     C_R   0.946267 0.539345 0.845202 -0.111369
C7    C     C_R   0.930285 0.601205 0.909353 -0.117899
C8    C     C_R   0.986317 0.691685 0.898959 -0.141942
C9    C     C_R   0.057362 0.722843 0.823038 0.072922
C10   C     C_R   0.071423 0.659886 0.756596 0.070733
C11   C     C_R   0.121077 0.814024 0.813935 -0.178410
C12   C     C_R   0.199920 0.842555 0.738454 0.071175
C13   C     C_R   0.202463 0.782201 0.669232 0.031075
C14   C     C_R   0.142102 0.688803 0.679236 -0.186136
C15   C     C_R   0.272529 0.932609 0.730371 -0.140780
C16   C     C_R   0.352606 0.962505 0.658167 -0.130286
C17   C     C_R   0.348017 0.906972 0.589961 -0.165562
C18   C     C_R   0.265398 0.819719 0.592998 -0.069565
H2    H     H_    0.030133 0.515671 0.723252 0.112005
H3    H     H_    0.904986 0.468730 0.853846 0.151455
H4    H     H_    0.876538 0.578719 0.967886 0.119467
H5    H     H_    0.975680 0.736284 0.951624 0.105156
H6    H     H_    0.268470 0.982199 0.779327 0.128285
H7    H     H_    0.409814 0.031145 0.654001 0.121444
C19   C     C_2   0.985400 0.707194 0.280933 -0.115318
C20   C     C_2   0.150763 0.676299 0.314535 -0.232200
H8    H     H_    0.848840 0.682918 0.304727 0.140639
H9    H     H_    0.289130 0.698841 0.291903 0.132742
C21   C     C_2   0.973457 0.773930 0.212342 -0.137728
C22   C     C_2   0.126422 0.814548 0.177219 -0.300914
H10   H     H_    0.829658 0.790673 0.190768 0.136987
H11   H     H_    0.271303 0.799642 0.197872 0.133845
C23   C     C_2   0.770229 0.207007 0.779891 -0.177251
C24   C     C_2   0.615645 0.194148 0.829218 -0.172388
H12   H     H_    0.891470 0.160191 0.783956 0.159939
C25   C     C_2   0.789253 0.281056 0.718353 -0.098617
C26   C     C_2   0.639444 0.310989 0.673579 -0.281582
H13   H     H_    0.932860 0.307332 0.706704 0.145451
H14   H     H_    0.498075 0.280708 0.681463 0.133894
C27   C     C_2   0.778807 0.209164 0.213849 -0.124355
C28   C     C_2   0.613770 0.181761 0.177433 -0.303305
H15   H     H_    0.914820 0.180767 0.192854 0.137831
H16   H     H_    0.476066 0.209435 0.196410 0.127434
C29   C     C_2   0.791289 0.277465 0.281824 -0.134266
C30   C     C_2   0.638161 0.315657 0.319414 -0.305226
H17   H     H_    0.935329 0.296285 0.301727 0.132948
H18   H     H_    0.493009 0.297540 0.301262 0.128781
O11   O     O_R   0.770210 0.079270 0.910680 -0.536191
O12   O     O_R   0.440150 0.091160 0.082270 -0.545377
O13   O     O_R   0.269970 0.914530 0.082860 -0.544297
C31   C     C_R   0.608775 0.113275 0.110486 0.741904
O14   O     O_R   0.440480 0.090100 0.911240 -0.524529
O15   O     O_R   0.270310 0.913460 0.910610 -0.540680
C32   C     C_R   0.609042 0.114780 0.885499 0.691184
O16   O     O_R   0.769870 0.080340 0.082930 -0.539558
O17   O     O_3   0.603660 0.938980 0.996790 -0.374550
V3    V     V_3+5 0.328750 0.007610 0.996740 1.454774
O18   O     O_R   0.940600 0.902510 0.911180 -0.540329
C33   C     C_R   0.109710 0.879917 0.883587 0.686911
O19   O     O_R   0.940270 0.903570 0.082200 -0.545232
C34   C     C_R   0.109631 0.881732 0.110260 0.728902
V4    V     V_3+5 0.828770 0.986010 0.996670 1.436560
O20   O     O_3   0.103730 0.054750 0.996710 -0.362290
C35   C     C_2   0.459150 0.263698 0.836530 0.752131
O21   O     O_2   0.290830 0.239659 0.841350 -0.569868
O22   O     O_R   0.505204 0.356705 0.839564 -0.661097
H19   H     H_    0.386924 0.397139 0.844427 0.289575
C36   C     C_2   0.220811 0.780089 0.512472 0.745225
O23   O     O_2   0.054570 0.759885 0.496032 -0.545964
O24   O     O_R   0.361966 0.775040 0.451722 -0.654222
H20   H     H_    0.496039 0.789999 0.472422 0.267063

loop_
_geom_bond_atom_site_label_1
_geom_bond_atom_site_label_2
_ccdc_geom_bond_type
O18   V4    S    
O19   C34   A    
C6    C7    A    
C1    O6    A    
C36   O23   D    
C20   H9    S    
C27   C28   D    
O11   V4    S    
O16   V4    S    
C23   C25   S    
C13   C14   A    
C31   O16   A    
C15   C16   A    
C19   C21   S    
O5    C3    A    
C19   C20   D    
C29   H17   S    
C30   H18   S    
O14   V3    S    
O12   V3    S    
C5    C6    A    
O12   C31   A    
O8    V2    S    
O15   C33   A    
O14   C32   A    
C26   H14   S    
O1    V2    S    
C10   C14   A    
C4    C14   S    
O7    V1    S    
C2    C30   S    
C7    H4    S    
C22   C34   S    
C35   O22   S    
C13   C18   A    
O9    C4    A    
H1    C17   S    
O19   V4    S    
C21   H10   S    
C24   C32   S    
C36   O24   S    
C23   H12   S    
C27   H15   S    
C28   H16   S    
C5    C10   A    
C11   C12   A    
C6    H3    S    
O4    C2    A    
C27   C29   S    
C25   H13   S    
C12   C13   A    
C35   O21   D    
C1    C26   S    
C12   C15   A    
O2    C1    A    
V4    O20   S    
C16   C17   A    
O11   C32   A    
O24   H20   S    
O13   V3    S    
C17   C18   A    
C22   H11   S    
O3    C4    A    
O6    V2    S    
O9    V2    S    
V3    O20   S    
C9    C11   A    
C5    H2    S    
C21   C22   D    
C24   C35   S    
O2    V1    S    
C11   C33   S    
C23   C24   D    
O1    C2    A    
O5    V1    S    
O8    C3    A    
C8    H5    S    
O13   C34   A    
C18   C36   S    
C3    C20   S    
O7    V2    S    
O4    V1    S    
O3    V1    S    
V1    O10   S    
C19   H8    S    
C29   C30   D    
O15   V3    S    
C28   C31   S    
O17   V4    S    
O17   V3    S    
O22   H19   S    
O18   C33   A    
C7    C8    A    
C15   H6    S    
C25   C26   D    
C16   H7    S    
C9    C10   A    
C8    C9    A    
V2    O10   S    
