data_mof_unit_40053.cif
_audit_creation_date              2012-12-10T17:35:33-0500
_audit_creation_method            fapswitch 2.2
_symmetry_space_group_name_H-M    P1
_symmetry_Int_Tables_number       1
_space_group_crystal_system       triclinic
_cell_length_a                    10.727453
_cell_length_b                    12.307762
_cell_length_c                    13.22861
_cell_angle_alpha                 116.438895
_cell_angle_beta                  77.954886
_cell_angle_gamma                 101.926937
_cell_volume                      1516.51974287

loop_
_atom_site_label
_atom_site_type_symbol
_atom_type_description
_atom_site_fract_x
_atom_site_fract_y
_atom_site_fract_z
_atom_type_partial_charge
C1    C     C_R   0.509038 0.854446 0.286889 0.774934
C2    C     C_3   0.121167 0.998486 0.500854 0.016894
C3    C     C_3   0.079393 0.126326 0.588356 -0.041397
C4    C     C_3   0.036129 0.895603 0.533336 0.025700
C5    C     C_R   0.356145 0.263241 0.023950 -0.160016
C6    C     C_R   0.458653 0.226468 0.833478 -0.045554
C7    C     C_R   0.571770 0.817590 0.085054 -0.186954
C8    C     C_R   0.588052 0.740783 0.969965 -0.151219
C9    C     C_R   0.548983 0.615846 0.932882 -0.169878
C10   C     C_R   0.488785 0.564631 0.010950 0.079718
C11   C     C_R   0.458564 0.645137 0.126699 0.034835
C12   C     C_R   0.739576 0.001242 0.501954 0.771190
C13   C     C_R   0.456613 0.436255 0.977584 0.040632
C14   C     C_R   0.386468 0.390321 0.057576 0.103389
C15   C     C_R   0.346028 0.472151 0.168519 0.126259
C16   C     C_R   0.377626 0.597052 0.200215 -0.209699
C17   C     C_R   0.495080 0.351715 0.867109 -0.235993
C18   C     C_R   0.390890 0.182090 0.912488 -0.213924
C19   C     C_R   0.509581 0.771458 0.164937 -0.088379
C20   C     C_R   0.705119 0.350469 0.331453 -0.270368
C21   C     C_R   0.325587 0.757024 0.643614 0.110013
C22   C     C_R   0.288162 0.659241 0.674285 -0.229552
C23   C     C_R   0.482106 0.144948 0.713028 0.785444
C24   C     C_R   0.353844 0.556999 0.620443 -0.170787
C25   C     C_R   0.458466 0.550953 0.534407 0.012748
C26   C     C_R   0.493342 0.653632 0.505765 0.305283
C27   C     C_R   0.529514 0.447326 0.475599 -0.027004
C28   C     C_R   0.633488 0.449205 0.390187 0.182044
C29   C     C_R   0.665794 0.549582 0.363641 -0.260342
C30   C     C_R   0.597501 0.648970 0.419831 -0.193444
C31   C     C_R   0.502674 0.341060 0.497177 0.029603
C32   C     C_R   0.674012 0.249358 0.356950 0.069594
C33   C     C_R   0.260022 0.998721 0.498776 0.775542
C34   C     C_3   0.952795 0.974222 0.378532 0.002118
C35   C     C_3   0.097400 0.975651 0.380674 -0.404295
C36   C     C_3   0.935100 0.126118 0.585854 -0.427277
C37   C     C_3   0.893816 0.902093 0.539102 -0.390671
C38   C     C_3   0.877531 0.999742 0.500259 0.033733
Cu1   Cu    Cu3+1 0.529690 0.098270 0.475420 0.931907
Cu2   Cu    Cu3+1 0.470310 0.901730 0.524580 0.931699
H1    H     H_    0.944574 0.051417 0.358822 0.164474
H2    H     H_    0.053964 0.909134 0.618274 0.128845
H3    H     H_    0.878199 0.147863 0.671632 0.174297
H4    H     H_    0.361826 0.084935 0.887589 0.150471
H5    H     H_    0.302967 0.224970 0.082045 0.169436
H6    H     H_    0.554099 0.380639 0.804846 0.148357
H7    H     H_    0.609861 0.913425 0.111586 0.153821
H8    H     H_    0.565135 0.562723 0.842152 0.126174
H9    H     H_    0.634487 0.777913 0.909045 0.141045
H10   H     H_    0.334136 0.654833 0.282974 0.227602
H11   H     H_    0.729015 0.172969 0.311932 0.122461
H12   H     H_    0.745345 0.551632 0.298400 0.162916
H13   H     H_    0.784860 0.351587 0.266178 0.153085
H14   H     H_    0.425238 0.331683 0.560456 0.122369
H15   H     H_    0.273928 0.835814 0.685952 0.118776
H16   H     H_    0.320787 0.484168 0.647654 0.125763
H17   H     H_    0.207859 0.662715 0.740155 0.142946
H18   H     H_    0.630863 0.720278 0.392499 0.201914
H19   H     H_    0.132903 0.888794 0.316277 0.198501
H20   H     H_    0.154649 0.049168 0.356775 0.164138
H21   H     H_    0.926222 0.199331 0.561096 0.173833
H22   H     H_    0.136296 0.196224 0.559088 0.179355
H23   H     H_    0.846217 0.925526 0.628238 0.157666
H24   H     H_    0.844858 0.811227 0.485888 0.200980
N1    N     N_R   0.574690 0.246280 0.438200 -0.181406
N2    N     N_R   0.426100 0.754320 0.561190 -0.201914
O1    O     O_R   0.537340 0.972510 0.318130 -0.579612
O2    O     O_R   0.487200 0.806530 0.359650 -0.601230
O3    O     O_R   0.707380 0.082980 0.479220 -0.586731
O4    O     O_R   0.657240 0.917000 0.520740 -0.608062
O5    O     O_R   0.512800 0.193470 0.640350 -0.588571
O6    O     O_R   0.462660 0.027490 0.681870 -0.594687
O7    O     O_R   0.342760 0.083000 0.479260 -0.590220
O8    O     O_R   0.292620 0.917020 0.520780 -0.566369
C39   C     C_3   0.107012 0.164511 0.711423 -0.402412
C40   C     C_3   0.104745 0.301516 0.785050 -0.824594
H25   H     H_    0.179502 0.355242 0.747553 0.240423
H26   H     H_    0.009142 0.327880 0.792740 0.252229
H27   H     H_    0.125343 0.324369 0.871669 0.254223
H28   H     H_    0.035563 0.112704 0.753222 0.205414
H29   H     H_    0.203396 0.143940 0.710147 0.197224
I1    I     I_    0.240204 0.415294 0.296095 -0.409167
C41   C     C_3   0.896887 0.854574 0.283027 -0.390115
C42   C     C_3   0.948590 0.848758 0.164145 -0.845002
H30   H     H_    0.923848 0.927560 0.155992 0.244722
H31   H     H_    0.054469 0.849532 0.146642 0.256273
H32   H     H_    0.904179 0.762984 0.099299 0.250468
H33   H     H_    0.918612 0.772924 0.287988 0.237906
H34   H     H_    0.790752 0.848342 0.292448 0.190065
I2    I     I_    0.074247 0.710176 0.421351 -0.434606

loop_
_geom_bond_atom_site_label_1
_geom_bond_atom_site_label_2
_ccdc_geom_bond_type
C2    C35   S    
C12   O3    A    
C21   N2    A    
C42   H32   S    
C22   H17   S    
C7    C8    A    
C11   C19   A    
C29   C30   A    
Cu2   O4    S    
C40   H26   S    
C28   C29   A    
C42   H31   S    
C15   C16   A    
C1    O2    A    
C35   H19   S    
C34   C35   S    
C42   H30   S    
C8    C9    A    
C40   H27   S    
C3    C39   S    
C9    C10   A    
C41   H33   S    
Cu2   N2    S    
C21   C22   A    
Cu1   N1    S    
C34   H1    S    
C41   H34   S    
C37   H23   S    
C15   I1    S    
C4    I2    S    
C40   H25   S    
C6    C18   A    
C1    C19   S    
C27   C31   A    
C26   N2    A    
C23   O5    A    
C17   H6    S    
Cu1   Cu2   S    
C21   H15   S    
C39   H29   S    
C5    C18   A    
C20   C28   A    
C25   C26   A    
C5    H5    S    
C35   H20   S    
C7    H7    S    
C2    C4    S    
C39   C40   S    
C32   H11   S    
C37   C38   S    
C18   H4    S    
C11   C16   A    
C41   C42   S    
Cu1   O3    S    
C24   C25   A    
C5    C14   A    
C2    C33   S    
C33   O7    A    
C26   C30   A    
C7    C19   A    
C22   C24   A    
C24   H16   S    
C34   C41   S    
C36   H21   S    
C37   H24   S    
C20   C32   A    
C3    H22   S    
C31   N1    A    
C6    C17   A    
C12   O4    A    
Cu2   O6    S    
C34   C38   S    
Cu1   O1    S    
C23   O6    A    
C16   H10   S    
C20   H13   S    
C10   C13   A    
C25   C27   A    
C13   C17   A    
C36   C38   S    
C2    C3    S    
C4    H2    S    
C3    C36   S    
C6    C23   S    
C30   H18   S    
C1    O1    A    
Cu2   O8    S    
Cu1   O7    S    
C31   H14   S    
C12   C38   S    
C10   C11   A    
C33   O8    A    
C39   H28   S    
C4    C37   S    
C9    H8    S    
Cu2   O2    S    
C27   C28   A    
Cu1   O5    S    
C14   C15   A    
C36   H3    S    
C13   C14   A    
C8    H9    S    
C32   N1    A    
C29   H12   S    
