data_mof_unit_56138.cif
_audit_creation_date              2012-12-10T17:20:25-0500
_audit_creation_method            fapswitch 2.2
_symmetry_space_group_name_H-M    P1
_symmetry_Int_Tables_number       1
_space_group_crystal_system       triclinic
_cell_length_a                    11.704206
_cell_length_b                    10.786371
_cell_length_c                    9.612176
_cell_angle_alpha                 90.753332
_cell_angle_beta                  90.1405
_cell_angle_gamma                 93.247459
_cell_volume                      1211.43830155

loop_
_atom_site_label
_atom_site_type_symbol
_atom_type_description
_atom_site_fract_x
_atom_site_fract_y
_atom_site_fract_z
_atom_type_partial_charge
C1    C     C_R   0.495920 0.262379 0.498779 0.885474
C2    C     C_R   0.195656 0.040394 0.634795 -0.206206
C3    C     C_R   0.206484 0.915090 0.659918 -0.230274
C4    C     C_R   0.304361 0.857920 0.617237 -0.181890
C5    C     C_R   0.397001 0.927662 0.556951 0.045554
C6    C     C_R   0.390473 0.057527 0.543109 -0.014345
C7    C     C_R   0.488131 0.127796 0.494547 -0.100065
C8    C     C_R   0.583055 0.069021 0.443910 -0.208366
C9    C     C_R   0.584678 0.941041 0.445315 -0.200433
C10   C     C_R   0.493871 0.870628 0.503761 -0.046445
C11   C     C_R   0.652644 0.666526 0.146436 -0.131849
C12   C     C_R   0.284382 0.503264 0.500026 0.884314
C13   C     C_R   0.726437 0.748575 0.075456 -0.207687
C14   C     C_R   0.725944 0.748831 0.932036 -0.201480
C15   C     C_R   0.651701 0.666974 0.858626 -0.132052
C16   C     C_R   0.574574 0.582111 0.926544 0.203498
C17   C     C_R   0.574784 0.581951 0.076045 0.211606
C18   C     C_R   0.428868 0.421881 0.072499 -0.060546
C19   C     C_R   0.428926 0.421886 0.924686 -0.053605
C20   C     C_R   0.499771 0.737258 0.501030 0.744025
C21   C     C_R   0.715882 0.500825 0.500159 0.789066
C22   C     C_1   0.162712 0.505562 0.500275 -0.170780
C23   C     C_1   0.060219 0.505759 0.500481 -0.005204
C24   C     C_1   0.940317 0.504499 0.500570 -0.005291
C25   C     C_1   0.837726 0.502810 0.500486 -0.181411
C26   C     C_R   0.284282 0.110724 0.570352 0.479691
Cu1   Cu    Cu3+1 0.499990 0.499990 0.640660 0.950814
Cu2   Cu    Cu3+1 0.500010 0.500010 0.359340 0.942635
H1    H     H_    0.656575 0.122754 0.403878 0.141568
H2    H     H_    0.783827 0.812722 0.876921 0.147444
H3    H     H_    0.658721 0.674156 0.748930 0.194178
H4    H     H_    0.370651 0.357762 0.868471 0.148522
H5    H     H_    0.115714 0.081845 0.658384 0.153735
H6    H     H_    0.136403 0.860603 0.706415 0.160420
H7    H     H_    0.305797 0.758859 0.631139 0.159794
H8    H     H_    0.658406 0.896714 0.403855 0.124616
H9    H     H_    0.370566 0.357786 0.126471 0.131240
H10   H     H_    0.660791 0.673578 0.256271 0.189786
H11   H     H_    0.784705 0.812282 0.132499 0.145251
N1    N     N_R   0.501070 0.501210 0.147910 -0.198115
N2    N     N_R   0.501110 0.501290 0.852040 -0.201558
O1    O     O_R   0.499990 0.319640 0.618810 -0.566018
O2    O     O_R   0.500000 0.319660 0.381240 -0.576255
O3    O     O_R   0.337190 0.500000 0.618790 -0.563984
O4    O     O_R   0.337200 0.500030 0.381210 -0.577656
O5    O     O_R   0.500000 0.680340 0.618760 -0.607565
O6    O     O_R   0.500010 0.680360 0.381190 -0.591749
O7    O     O_R   0.662800 0.499970 0.618790 -0.590464
O8    O     O_R   0.662810 0.500000 0.381210 -0.593075
O9    O     O_3   0.260749 0.225331 0.518865 -0.602564
C27   C     C_3   0.215429 0.206161 0.383190 -0.340691
H12   H     H_    0.133100 0.149208 0.384856 0.163365
H13   H     H_    0.277601 0.162450 0.312954 0.161177
H14   H     H_    0.197264 0.296690 0.337740 0.189850

loop_
_geom_bond_atom_site_label_1
_geom_bond_atom_site_label_2
_ccdc_geom_bond_type
Cu1   O7    S    
C9    H8    S    
C23   C24   S    
Cu2   O6    S    
C15   H3    S    
C6    C7    A    
C12   O4    A    
C11   H10   S    
Cu2   O8    S    
Cu1   N2    S    
Cu2   O2    S    
C27   H14   S    
C21   O7    A    
C21   O8    A    
O9    C27   S    
C4    H7    S    
C19   N2    A    
C5    C10   A    
C2    C26   A    
C13   C14   A    
C11   C13   A    
Cu1   O1    S    
C6    C26   A    
C14   H2    S    
C8    H1    S    
Cu1   O3    S    
Cu1   O5    S    
C18   H9    S    
C2    C3    A    
C26   O9    S    
C5    C6    A    
C20   O5    A    
Cu2   O4    S    
C13   H11   S    
C20   O6    A    
C16   C17   A    
C19   H4    S    
C15   C16   A    
C12   C22   S    
C1    O1    A    
C7    C8    A    
C18   N1    A    
C24   C25   T    
C2    H5    S    
C12   O3    A    
C18   C19   A    
C9    C10   A    
Cu1   Cu2   S    
Cu2   N1    S    
C14   C15   A    
C4    C5    A    
C21   C25   S    
C3    H6    S    
C1    C7    S    
C16   N2    A    
C1    O2    A    
C22   C23   T    
C11   C17   A    
C3    C4    A    
C27   H12   S    
C10   C20   S    
C8    C9    A    
C27   H13   S    
C17   N1    A    
