data_mof_unit_28315.cif
_audit_creation_date              2012-12-10T18:42:33-0500
_audit_creation_method            fapswitch 2.2
_symmetry_space_group_name_H-M    P1
_symmetry_Int_Tables_number       1
_space_group_crystal_system       triclinic
_cell_length_a                    8.567048
_cell_length_b                    10.688596
_cell_length_c                    9.905001
_cell_angle_alpha                 90.840844
_cell_angle_beta                  98.668429
_cell_angle_gamma                 91.077864
_cell_volume                      896.338211941

loop_
_atom_site_label
_atom_site_type_symbol
_atom_type_description
_atom_site_fract_x
_atom_site_fract_y
_atom_site_fract_z
_atom_type_partial_charge
C1    C     C_R   0.499048 0.260513 0.498983 0.980163
C2    C     C_R   0.588440 0.068005 0.604750 0.354689
C3    C     C_R   0.488493 0.872467 0.503675 -0.447203
C4    C     C_R   0.494712 0.128237 0.498203 -0.439106
C5    C     C_R   0.621016 0.556603 0.088636 0.480487
C6    C     C_R   0.380408 0.441405 0.911523 0.484233
C7    C     C_R   0.623143 0.553217 0.944703 -0.022792
C8    C     C_R   0.379470 0.443170 0.055809 -0.015974
C9    C     C_3   0.157576 0.160328 0.349523 -0.295615
C10   C     C_3   0.550661 0.897915 0.834728 -0.203008
C11   C     C_3   0.168266 0.819580 0.318098 -0.231369
C12   C     C_R   0.498009 0.739850 0.501047 0.985283
C13   C     C_3   0.838087 0.145971 0.661314 -0.255081
C14   C     C_3   0.729708 0.737704 0.191232 -0.296123
C15   C     C_3   0.280820 0.255749 0.813580 -0.289230
C16   C     C_R   0.201352 0.500246 0.464210 0.911609
C17   C     C_R   0.798682 0.500299 0.535827 0.942486
C18   C     C_2   0.036052 0.498592 0.445092 -0.409757
C19   C     C_2   0.964012 0.501606 0.554993 -0.374842
C20   C     C_R   0.392061 0.061851 0.396747 0.403205
C21   C     C_R   0.571755 0.940214 0.615203 0.366782
C22   C     C_R   0.394877 0.932439 0.395510 0.376277
H1    H     H_    0.974291 0.494041 0.340854 0.225098
H2    H     H_    0.130118 0.736868 0.251476 0.199126
H3    H     H_    0.175312 0.788767 0.425827 0.110534
H4    H     H_    0.917654 0.201695 0.739395 0.193215
H5    H     H_    0.891664 0.052749 0.652034 0.159567
H6    H     H_    0.831004 0.196520 0.563141 0.126522
H7    H     H_    0.605244 0.769321 0.167854 0.182032
H8    H     H_    0.803898 0.789137 0.127080 0.139517
H9    H     H_    0.774093 0.764775 0.298953 0.186955
H10   H     H_    0.237616 0.224840 0.706825 0.172869
H11   H     H_    0.209186 0.203980 0.879550 0.146778
H12   H     H_    0.025867 0.505866 0.659256 0.222594
H13   H     H_    0.406766 0.228003 0.838086 0.180201
H14   H     H_    0.776547 0.693941 0.915721 0.205466
H15   H     H_    0.857242 0.551315 0.937002 0.191436
H16   H     H_    0.252719 0.289528 0.092541 0.221029
H17   H     H_    0.145700 0.420949 0.062166 0.187620
H18   H     H_    0.068168 0.190785 0.264136 0.188560
H19   H     H_    0.103035 0.083694 0.402595 0.118946
H20   H     H_    0.185398 0.241073 0.421119 0.150114
H21   H     H_    0.609230 0.855120 0.929402 0.149866
H22   H     H_    0.433008 0.850805 0.806635 0.150680
H23   H     H_    0.535760 0.998435 0.859546 0.170109
H24   H     H_    0.075838 0.890711 0.296034 0.156094
N1    N     N_R   0.499960 0.499970 0.857200 -0.137942
N2    N     N_R   0.500040 0.500030 0.142800 -0.135360
N3    N     N_3   0.758527 0.599274 0.890887 -0.352887
N4    N     N_3   0.251942 0.385708 0.111482 -0.361689
O1    O     O_R   0.499990 0.316750 0.614620 -0.583902
O2    O     O_3   0.645199 0.881619 0.730637 -0.570320
O3    O     O_3   0.313140 0.865816 0.285019 -0.564915
O4    O     O_3   0.688920 0.134517 0.704283 -0.569424
O5    O     O_3   0.748362 0.607512 0.175370 -0.607397
O6    O     O_3   0.256335 0.385695 0.824831 -0.605258
O7    O     O_R   0.500010 0.683250 0.385380 -0.587156
O8    O     O_R   0.499990 0.316780 0.385290 -0.584256
O9    O     O_R   0.500010 0.683220 0.614710 -0.585778
O10   O     O_R   0.271750 0.499990 0.587840 -0.573751
O11   O     O_R   0.728250 0.500010 0.412160 -0.574401
O12   O     O_R   0.271750 0.500010 0.358510 -0.604642
O13   O     O_R   0.728250 0.499990 0.641490 -0.593306
O14   O     O_3   0.293135 0.121976 0.295764 -0.561611
Zn1   Zn    Zn3+2 0.500000 0.499980 0.653120 1.008408
Zn2   Zn    Zn3+2 0.500000 0.500020 0.346880 1.005545

loop_
_geom_bond_atom_site_label_1
_geom_bond_atom_site_label_2
_ccdc_geom_bond_type
C20   O14   S    
C2    C4    A    
O13   Zn1   S    
C13   H6    S    
H16   N4    S    
C9    O14   S    
H15   N3    S    
O7    Zn2   S    
C9    H19   S    
C11   O3    S    
C14   H9    S    
C1    C4    S    
C10   O2    S    
C15   O6    S    
C2    C21   A    
C8    N2    A    
C14   O5    S    
C15   H10   S    
C1    O8    A    
C17   O13   A    
C1    O1    A    
C9    H20   S    
C16   O12   A    
C14   H8    S    
C16   O10   A    
C12   O7    A    
C15   H13   S    
C17   C19   S    
C5    O5    S    
O10   Zn1   S    
C18   C19   D    
C22   O3    S    
C9    H18   S    
N1    Zn1   S    
C2    O4    S    
C5    N2    A    
C17   O11   A    
C13   H4    S    
C3    C21   A    
C6    N1    A    
O12   Zn2   S    
C14   H7    S    
C10   H22   S    
C18   H1    S    
C4    C20   A    
C8    N4    S    
C11   H2    S    
H17   N4    S    
C7    N3    S    
C16   C18   S    
C13   O4    S    
O1    Zn1   S    
C10   H23   S    
C6    O6    S    
C5    C7    A    
C11   H3    S    
C13   H5    S    
C11   H24   S    
C6    C8    A    
C3    C12   S    
C3    C22   A    
N2    Zn2   S    
C10   H21   S    
C12   O9    A    
O11   Zn2   S    
O8    Zn2   S    
C21   O2    S    
O9    Zn1   S    
H14   N3    S    
C20   C22   A    
C15   H11   S    
C19   H12   S    
C7    N1    A    
