data_mof_unit_58624.cif
_audit_creation_date              2012-12-10T18:33:29-0500
_audit_creation_method            fapswitch 2.2
_symmetry_space_group_name_H-M    P1
_symmetry_Int_Tables_number       1
_space_group_crystal_system       triclinic
_cell_length_a                    8.825607
_cell_length_b                    15.0897
_cell_length_c                    14.071943
_cell_angle_alpha                 90.134364
_cell_angle_beta                  97.958339
_cell_angle_gamma                 93.342445
_cell_volume                      1852.73275467

loop_
_atom_site_label
_atom_site_type_symbol
_atom_type_description
_atom_site_fract_x
_atom_site_fract_y
_atom_site_fract_z
_atom_type_partial_charge
C1    C     C_R   0.498686 0.330621 0.499932 0.821425
C2    C     C_R   0.591253 0.561080 0.899970 -0.328343
C3    C     C_R   0.492327 0.503765 0.053613 0.064541
C4    C     C_R   0.509355 0.495552 0.945994 0.066371
C5    C     C_R   0.204603 0.498348 0.475423 0.811111
C6    C     C_R   0.794810 0.498015 0.524437 0.809394
C7    C     C_2   0.038811 0.494338 0.461299 0.010425
C8    C     C_2   0.959509 0.494373 0.538099 0.017877
C9    C     C_R   0.626449 0.100450 0.541300 -0.177823
C10   C     C_R   0.385026 0.901371 0.526608 -0.175051
C11   C     C_R   0.627307 0.192615 0.542293 0.113388
C12   C     C_R   0.502798 0.669495 0.500564 0.829341
C13   C     C_R   0.382291 0.809194 0.527715 0.115576
C14   C     C_R   0.495960 0.234164 0.500118 -0.069819
C15   C     C_R   0.508572 0.766181 0.502312 -0.072676
C16   C     C_R   0.363338 0.183245 0.458457 0.073066
C17   C     C_R   0.639741 0.816021 0.479711 0.069665
C18   C     C_R   0.369161 0.090183 0.451286 0.259313
C19   C     C_R   0.635097 0.909124 0.471199 0.259841
C20   C     C_R   0.501222 0.049066 0.494169 0.017663
C21   C     C_R   0.506832 0.951481 0.495511 0.018881
C22   C     C_3   0.917740 0.403216 0.326258 -0.625070
C23   C     C_R   0.546048 0.578895 0.112306 0.104494
C24   C     C_3   0.058230 0.572654 0.688000 -0.632695
C25   C     C_3   0.769329 0.245585 0.588124 -0.868942
C26   C     C_3   0.244067 0.757911 0.556396 -0.863690
C27   C     C_3   0.214617 0.226117 0.424224 -0.913885
C28   C     C_3   0.786878 0.772283 0.469260 -0.908825
C29   C     C_3   0.258459 0.014254 0.304048 -0.693644
C30   C     C_3   0.735868 0.981636 0.338037 -0.694305
C31   C     C_3   0.542802 0.672244 0.072429 -0.913986
C32   C     C_3   0.458068 0.327108 0.926794 -0.914114
C33   C     C_3   0.671268 0.641603 0.269780 -0.776247
C34   C     C_R   0.454882 0.420537 0.887190 0.105491
C35   C     C_3   0.329120 0.357686 0.729387 -0.762552
C36   C     C_3   0.330753 0.357994 0.238916 -0.793388
C37   C     C_3   0.670242 0.642141 0.760420 -0.786013
C38   C     C_R   0.569325 0.570280 0.214133 0.330523
C39   C     C_R   0.430884 0.429396 0.785429 0.325463
C40   C     C_R   0.415745 0.435861 0.200213 0.325617
C41   C     C_R   0.585648 0.563808 0.799477 0.319547
C42   C     C_R   0.410814 0.438231 0.099737 -0.327274
Cu1   Cu    Cu3+1 0.500000 0.499990 0.596430 0.921394
Cu2   Cu    Cu3+1 0.500000 0.500010 0.403570 0.926599
H1    H     H_    0.724650 0.068224 0.577431 0.163399
H2    H     H_    0.027421 0.630347 0.641703 0.210323
H3    H     H_    0.180912 0.581843 0.718747 0.243270
H4    H     H_    0.988706 0.571338 0.748053 0.209980
H5    H     H_    0.811851 0.291496 0.534874 0.213756
H6    H     H_    0.742750 0.284559 0.650107 0.245320
H7    H     H_    0.863250 0.202173 0.614605 0.224120
H8    H     H_    0.278242 0.720179 0.622703 0.245177
H9    H     H_    0.154327 0.802502 0.571301 0.217040
H10   H     H_    0.193238 0.711231 0.497881 0.226801
H11   H     H_    0.180834 0.213491 0.346230 0.244823
H12   H     H_    0.290627 0.934671 0.549673 0.161126
H13   H     H_    0.122769 0.198227 0.463881 0.231286
H14   H     H_    0.220609 0.298635 0.437267 0.220863
H15   H     H_    0.880072 0.800644 0.523676 0.222926
H16   H     H_    0.780926 0.699929 0.482071 0.221884
H17   H     H_    0.818577 0.784151 0.396565 0.249912
H18   H     H_    0.135483 0.057052 0.409360 0.259100
H19   H     H_    0.156756 0.971968 0.272306 0.224442
H20   H     H_    0.361673 0.976074 0.301958 0.237615
H21   H     H_    0.266647 0.075207 0.260435 0.221070
H22   H     H_    0.867049 0.940723 0.462375 0.258103
H23   H     H_    0.336550 0.389347 0.057961 0.176880
H24   H     H_    0.836066 0.023050 0.320186 0.223621
H25   H     H_    0.632306 0.019956 0.320302 0.237349
H26   H     H_    0.723748 0.919727 0.294015 0.222411
H27   H     H_    0.470472 0.674640 0.001543 0.244145
H28   H     H_    0.487932 0.716104 0.119388 0.237934
H29   H     H_    0.660676 0.700545 0.068465 0.229763
H30   H     H_    0.529991 0.324527 0.997797 0.243320
H31   H     H_    0.340105 0.298715 0.930311 0.230829
H32   H     H_    0.513611 0.283475 0.879981 0.237822
H33   H     H_    0.727969 0.618197 0.338207 0.273779
H34   H     H_    0.665866 0.609757 0.941819 0.176459
H35   H     H_    0.766911 0.663102 0.229863 0.190454
H36   H     H_    0.605402 0.700301 0.280854 0.231538
H37   H     H_    0.276293 0.378852 0.658840 0.270714
H38   H     H_    0.393965 0.297947 0.721107 0.221031
H39   H     H_    0.230875 0.338347 0.767992 0.189733
H40   H     H_    0.270908 0.378147 0.297806 0.262816
H41   H     H_    0.240564 0.327322 0.183775 0.178650
H42   H     H_    0.411329 0.305923 0.261881 0.238897
H43   H     H_    0.731326 0.623536 0.701079 0.262177
H44   H     H_    0.588983 0.693980 0.737857 0.231626
H45   H     H_    0.016995 0.530552 0.317209 0.261786
H46   H     H_    0.759652 0.673104 0.815854 0.177857
H47   H     H_    0.848674 0.365435 0.374500 0.235355
H48   H     H_    0.019558 0.366129 0.317661 0.199895
H49   H     H_    0.846828 0.408305 0.255084 0.223921
H50   H     H_    0.990748 0.437846 0.673365 0.252973
N1    N     N_R   0.500000 0.500020 0.258690 -0.182076
N2    N     N_R   0.500000 0.499980 0.741310 -0.189052
N3    N     N_2   0.963566 0.491521 0.364283 -0.422281
N4    N     N_2   0.033270 0.489426 0.634845 -0.416867
N5    N     N_2   0.242952 0.037272 0.401862 -0.437451
N6    N     N_2   0.758705 0.960739 0.439020 -0.439673
O1    O     O_R   0.500010 0.371450 0.581430 -0.588415
O2    O     O_R   0.499990 0.628550 0.418570 -0.580742
O3    O     O_R   0.500010 0.371460 0.418560 -0.584508
O4    O     O_R   0.499990 0.628540 0.581440 -0.586302
O5    O     O_R   0.274840 0.499990 0.562640 -0.557496
O6    O     O_R   0.725160 0.500010 0.437360 -0.562811
O7    O     O_R   0.274840 0.500000 0.399770 -0.599484
O8    O     O_R   0.725160 0.500000 0.600230 -0.587575

loop_
_geom_bond_atom_site_label_1
_geom_bond_atom_site_label_2
_ccdc_geom_bond_type
C29   H19   S    
C3    C42   A    
C9    H1    S    
C37   H44   S    
C3    C23   A    
C6    O8    A    
C32   H31   S    
C25   H7    S    
C35   H37   S    
C7    C8    D    
C5    O5    A    
C37   H46   S    
C24   N4    S    
C19   C21   A    
C12   O4    A    
C32   H30   S    
C11   C14   A    
C27   H11   S    
C31   H29   S    
C41   N2    A    
H50   N4    S    
C2    C41   A    
C30   N6    S    
Cu1   O5    S    
H22   N6    S    
C8    N4    S    
Cu1   O4    S    
C25   H6    S    
Cu2   O3    S    
C38   N1    A    
C22   H47   S    
C10   H12   S    
C1    O3    A    
C28   H17   S    
C16   C27   S    
C31   H27   S    
C29   H20   S    
C22   N3    S    
C24   H3    S    
C26   H10   S    
C30   H26   S    
C35   H38   S    
C28   H16   S    
C10   C21   A    
C4    C34   A    
C29   N5    S    
C34   C39   A    
C24   H4    S    
C36   C40   S    
C27   H13   S    
C5    C7    S    
C35   H39   S    
C33   H35   S    
C6    C8    S    
C36   H42   S    
C10   C13   A    
H45   N3    S    
C32   C34   S    
C35   C39   S    
Cu1   Cu2   S    
Cu1   O1    S    
C12   O2    A    
C2    H34   S    
C26   H8    S    
C9    C20   A    
C12   C15   S    
Cu2   O7    S    
Cu1   N2    S    
C6    O6    A    
C9    C11   A    
C29   H21   S    
C31   H28   S    
C13   C15   A    
C42   H23   S    
C22   H49   S    
C14   C16   A    
C13   C26   S    
C18   N5    S    
C40   N1    A    
C3    C4    S    
C26   H9    S    
C1    O1    A    
C30   H25   S    
C5    O7    A    
C28   H15   S    
C15   C17   A    
Cu2   O2    S    
C7    N3    S    
C17   C28   S    
C37   H43   S    
C27   H14   S    
C32   H32   S    
C19   N6    S    
C33   H36   S    
Cu2   O6    S    
C36   H41   S    
C23   C38   A    
C33   C38   S    
C24   H2    S    
Cu2   N1    S    
C33   H33   S    
C36   H40   S    
C2    C4    A    
C40   C42   A    
C17   C19   A    
C18   C20   A    
Cu1   O8    S    
C37   C41   S    
C25   H5    S    
C39   N2    A    
H18   N5    S    
C11   C25   S    
C20   C21   S    
C16   C18   A    
C22   H48   S    
C1    C14   S    
C30   H24   S    
C23   C31   S    
