data_mof_unit_58824.cif
_audit_creation_date              2012-12-10T20:31:00-0500
_audit_creation_method            fapswitch 2.2
_symmetry_space_group_name_H-M    P1
_symmetry_Int_Tables_number       1
_space_group_crystal_system       triclinic
_cell_length_a                    14.968476
_cell_length_b                    10.677464
_cell_length_c                    9.87077
_cell_angle_alpha                 90.015801
_cell_angle_beta                  90.028987
_cell_angle_gamma                 90.013317
_cell_volume                      1577.59909996

loop_
_atom_site_label
_atom_site_type_symbol
_atom_type_description
_atom_site_fract_x
_atom_site_fract_y
_atom_site_fract_z
_atom_type_partial_charge
C1    C     C_R   0.502361 0.260035 0.500062 0.933058
C2    C     C_R   0.907115 0.550738 0.609269 0.125879
C3    C     C_R   0.954642 0.375860 0.289323 -0.150042
C4    C     C_R   0.047441 0.376023 0.290075 -0.240699
C5    C     C_R   0.093572 0.434770 0.395690 0.126399
C6    C     C_R   0.046752 0.493065 0.502529 0.096571
C7    C     C_R   0.093029 0.552286 0.609512 0.123446
C8    C     C_R   0.046281 0.609246 0.715664 -0.214055
C9    C     C_R   0.953456 0.608334 0.715630 -0.180440
C10   C     C_R   0.185977 0.436543 0.396374 -0.247403
C11   C     C_R   0.231226 0.497142 0.501079 -0.056118
C12   C     C_R   0.326820 0.499460 0.500153 0.915279
C13   C     C_R   0.185469 0.554104 0.607767 -0.262467
C14   C     C_R   0.509524 0.063854 0.623213 0.005368
C15   C     C_R   0.515221 0.128565 0.501153 -0.052980
C16   C     C_R   0.537200 0.064784 0.381508 -0.201156
C17   C     C_R   0.537379 0.935231 0.381553 -0.214006
C18   C     C_R   0.515661 0.871430 0.501273 -0.051045
C19   C     C_R   0.509967 0.936176 0.623339 0.025459
C20   C     C_3   0.441622 0.928129 0.733507 -0.507696
C21   C     C_3   0.440954 0.070144 0.733290 0.478928
C22   C     C_R   0.422008 0.511843 0.071008 0.221717
C23   C     C_R   0.502502 0.739972 0.500062 0.872867
C24   C     C_R   0.577923 0.498084 0.071889 -0.118411
C25   C     C_R   0.577928 0.498166 0.928176 -0.140983
C26   C     C_R   0.422020 0.511372 0.928516 0.196654
C27   C     C_3   0.344382 0.424198 0.922681 -0.459268
C28   C     C_3   0.343770 0.425589 0.076321 -0.525112
C29   C     C_R   0.673266 0.498522 0.499966 0.940184
C30   C     C_R   0.814743 0.551135 0.607613 -0.344629
C31   C     C_R   0.769075 0.495120 0.500156 -0.192222
C32   C     C_R   0.814711 0.435796 0.394199 0.548164
C33   C     C_R   0.907427 0.434223 0.394508 -0.005320
C34   C     C_R   0.953739 0.492529 0.502163 -0.022511
H1    H     H_    0.778268 0.596782 0.688780 0.177064
H2    H     H_    0.548738 0.886057 0.287102 0.168984
H3    H     H_    0.377812 0.885301 0.698840 0.226712
H4    H     H_    0.469697 0.887684 0.828155 0.162269
H5    H     H_    0.466278 0.113479 0.828249 0.066953
H6    H     H_    0.640824 0.494743 0.125457 0.204161
H7    H     H_    0.640842 0.494830 0.874657 0.161845
H8    H     H_    0.284310 0.468958 0.877685 0.203725
H9    H     H_    0.362142 0.331503 0.878935 0.245373
H10   H     H_    0.283742 0.472783 0.118244 0.203264
H11   H     H_    0.360185 0.333463 0.122609 0.218785
H12   H     H_    0.920095 0.330540 0.206222 0.200814
H13   H     H_    0.083110 0.331008 0.207861 0.156400
H14   H     H_    0.222728 0.389313 0.316877 0.151933
H15   H     H_    0.221833 0.601160 0.688122 0.147716
H16   H     H_    0.081463 0.654598 0.798198 0.149308
H17   H     H_    0.917933 0.653040 0.798170 0.147570
H18   H     H_    0.548530 0.113936 0.287056 0.177378
N1    N     N_R   0.499390 0.499140 0.142800 -0.114635
N2    N     N_R   0.499390 0.499180 0.857150 -0.111042
O1    O     O_R   0.500010 0.316790 0.614690 -0.609227
O2    O     O_R   0.500000 0.316760 0.385350 -0.623804
O3    O     O_R   0.367850 0.499990 0.614680 -0.615694
O4    O     O_R   0.367840 0.499950 0.385340 -0.627642
O5    O     O_R   0.500000 0.683240 0.614650 -0.618198
O6    O     O_R   0.499990 0.683210 0.385310 -0.629814
O7    O     O_R   0.632160 0.500050 0.614660 -0.647179
O8    O     O_R   0.632150 0.500010 0.385320 -0.580603
Zn1   Zn    Zn3+2 0.500010 0.500020 0.653130 0.958275
Zn2   Zn    Zn3+2 0.499990 0.499980 0.346870 0.970788
F1    F     F_    0.360425 0.118693 0.688190 -0.654795
F2    F     F_    0.769030 0.377548 0.292949 -0.690088

loop_
_geom_bond_atom_site_label_1
_geom_bond_atom_site_label_2
_ccdc_geom_bond_type
C11   C12   S    
O2    Zn2   S    
C24   C25   A    
O3    Zn1   S    
C6    C7    A    
C1    C15   S    
C17   H2    S    
C27   H9    S    
C20   H4    S    
C3    H12   S    
O5    Zn1   S    
C19   C20   S    
C21   H5    S    
C7    C13   A    
C30   C31   A    
O6    Zn2   S    
C12   O4    A    
C32   C33   A    
C2    C34   A    
C17   C18   A    
C1    O1    A    
C5    C10   A    
C29   C31   S    
C22   C28   S    
C4    C5    A    
C25   N2    A    
C23   O5    A    
C20   H3    S    
C11   C13   A    
C27   H8    S    
C26   C27   S    
C23   O6    A    
C30   H1    S    
C13   H15   S    
C12   O3    A    
C26   N2    A    
C14   C21   S    
C32   F2    S    
C24   H6    S    
C1    O2    A    
C33   C34   A    
C22   N1    A    
C10   H14   S    
C5    C6    A    
N1    Zn2   S    
C29   O7    A    
C28   H11   S    
C6    C34   A    
C10   C11   A    
C3    C33   A    
C22   C26   A    
C15   C16   A    
C8    H16   S    
C7    C8    A    
C2    C30   A    
C20   C21   S    
C16   H18   S    
C18   C19   A    
N2    Zn1   S    
C25   H7    S    
C27   C28   S    
O7    Zn1   S    
C14   C15   A    
C16   C17   A    
O8    Zn2   S    
O4    Zn2   S    
C21   F1    S    
C24   N1    A    
C29   O8    A    
C2    C9    A    
C14   C19   A    
C28   H10   S    
C31   C32   A    
C3    C4    A    
C18   C23   S    
O1    Zn1   S    
C8    C9    A    
C4    H13   S    
C9    H17   S    
