data_mof_unit_12837.cif
_audit_creation_date              2012-10-26T19:59:11-0400
_audit_creation_method            fapswitch 2.2
_symmetry_space_group_name_H-M    P1
_symmetry_Int_Tables_number       1
_space_group_crystal_system       triclinic
_cell_length_a                    7.434425
_cell_length_b                    8.693622
_cell_length_c                    15.812985
_cell_angle_alpha                 94.268474
_cell_angle_beta                  75.060239
_cell_angle_gamma                 103.141929
_cell_volume                      961.480912804

loop_
_atom_site_label
_atom_site_type_symbol
_atom_type_description
_atom_site_fract_x
_atom_site_fract_y
_atom_site_fract_z
_atom_type_partial_charge
C1    C     C_R   0.545088 0.800157 0.502589 0.551436
C2    C     C_R   0.616080 0.512460 0.333759 0.544096
C3    C     C_R   0.313341 0.476370 0.761958 -0.004710
C4    C     C_R   0.686617 0.536890 0.239080 -0.006973
C5    C     C_R   0.065104 0.383847 0.890606 -0.076724
C6    C     C_R   0.919722 0.669504 0.115818 -0.073586
C7    C     C_R   0.122225 0.412451 0.801136 -0.159363
C8    C     C_R   0.869023 0.625244 0.203046 -0.161221
C9    C     C_R   0.443991 0.520109 0.813866 -0.124348
C10   C     C_R   0.558725 0.487360 0.186369 -0.111709
C11   C     C_R   0.389105 0.498503 0.905000 0.004906
C12   C     C_R   0.454931 0.199843 0.497387 0.551491
C13   C     C_R   0.601901 0.536780 0.099245 0.010791
C14   C     C_R   0.197412 0.422476 0.942790 0.115834
C15   C     C_R   0.787645 0.628040 0.063567 0.118368
C16   C     C_R   0.521527 0.544474 0.958362 -0.014426
C17   C     C_R   0.465401 0.499501 0.047466 -0.013942
C18   C     C_R   0.273299 0.422392 0.082613 -0.121588
C19   C     C_R   0.706743 0.637405 0.925695 -0.124351
C20   C     C_R   0.140376 0.384178 0.031506 0.242944
C21   C     C_R   0.838984 0.678635 0.976970 0.239852
C22   C     C_2   0.570515 0.968030 0.503829 -0.154731
C23   C     C_2   0.429529 0.031968 0.496114 -0.154825
C24   C     C_R   0.384005 0.488869 0.666370 0.547269
Cu1   Cu    Cu3+1 0.322120 0.483240 0.490330 0.951610
Cu2   Cu    Cu3+1 0.677880 0.516760 0.509670 0.950298
H1    H     H_    0.425001 0.411147 0.216230 0.119777
H2    H     H_    0.293629 0.960634 0.488832 0.134037
H3    H     H_    0.003962 0.615154 0.568875 0.238136
H4    H     H_    0.996035 0.384842 0.431127 0.238355
H5    H     H_    0.936262 0.288230 0.129954 0.325443
H6    H     H_    0.035450 0.791373 0.881130 0.325743
H7    H     H_    0.590499 0.564413 0.780589 0.123533
H8    H     H_    0.970006 0.664582 0.242912 0.130782
H9    H     H_    0.018676 0.378402 0.762193 0.131187
H10   H     H_    0.917125 0.329282 0.918487 0.173606
H11   H     H_    0.061967 0.738923 0.089967 0.173735
H12   H     H_    0.219110 0.393656 0.150682 0.089621
H13   H     H_    0.751450 0.685556 0.861025 0.092371
H14   H     H_    0.706418 0.039363 0.511107 0.134131
N1    N     N_2   0.945180 0.542040 0.524240 -0.258209
N2    N     N_2   0.054820 0.457960 0.475760 -0.257831
O1    O     O_R   0.384450 0.714270 0.493720 -0.503006
O2    O     O_3   0.019632 0.768923 0.943498 -0.710850
O3    O     O_R   0.615550 0.285730 0.506280 -0.502927
O4    O     O_R   0.684880 0.742590 0.510050 -0.496805
O5    O     O_R   0.315120 0.257410 0.489950 -0.496584
O6    O     O_R   0.265540 0.477900 0.617090 -0.504944
O7    O     O_R   0.734460 0.522100 0.382910 -0.505555
O8    O     O_R   0.565970 0.506210 0.633420 -0.504815
O9    O     O_R   0.434030 0.493790 0.366580 -0.502922
O10   O     O_3   0.953985 0.307206 0.066990 -0.712408

loop_
_geom_bond_atom_site_label_1
_geom_bond_atom_site_label_2
_ccdc_geom_bond_type
Cu1   N2    S    
C10   H1    S    
C2    C4    S    
Cu1   O9    S    
C3    C9    A    
C2    O7    A    
C21   O2    S    
N1    N2    D    
Cu1   O5    S    
C18   C20   A    
Cu1   O6    S    
C13   C17   A    
H5    O10   S    
C4    C8    A    
C22   H14   S    
Cu1   O1    S    
C13   C15   A    
C17   C18   A    
C5    C14   A    
C6    H11   S    
C1    C22   S    
C20   O10   S    
Cu1   Cu2   S    
C8    H8    S    
C23   H2    S    
C9    H7    S    
C9    C11   A    
C12   C23   S    
C3    C24   S    
C16   C17   A    
C19   H13   S    
C12   O5    A    
C19   C21   A    
C3    C7    A    
Cu2   O8    S    
C24   O8    A    
C11   C14   A    
C1    O4    A    
C2    O9    A    
Cu2   O4    S    
C4    C10   A    
C24   O6    A    
C5    H10   S    
C14   C20   A    
C15   C21   A    
H6    O2    S    
C11   C16   A    
Cu2   O7    S    
C5    C7    A    
C22   C23   D    
H4    N2    S    
C6    C8    A    
Cu2   O3    S    
H3    N1    S    
C6    C15   A    
C18   H12   S    
C7    H9    S    
C1    O1    A    
Cu2   N1    S    
C12   O3    A    
C10   C13   A    
C16   C19   A    
