data_mof_unit_27489.cif
_audit_creation_date              2012-12-10T18:57:51-0500
_audit_creation_method            fapswitch 2.2
_symmetry_space_group_name_H-M    P1
_symmetry_Int_Tables_number       1
_space_group_crystal_system       triclinic
_cell_length_a                    10.868977
_cell_length_b                    9.957152
_cell_length_c                    8.896684
_cell_angle_alpha                 90.00324
_cell_angle_beta                  92.852824
_cell_angle_gamma                 90.01214
_cell_volume                      961.641939212

loop_
_atom_site_label
_atom_site_type_symbol
_atom_type_description
_atom_site_fract_x
_atom_site_fract_y
_atom_site_fract_z
_atom_type_partial_charge
C1    C     C_R   0.259962 0.500554 0.498729 1.012206
C2    C     C_R   0.062679 0.625189 0.519841 0.288708
C3    C     C_R   0.872953 0.503371 0.501761 -0.410502
C4    C     C_R   0.127061 0.503342 0.497907 -0.396605
C5    C     C_R   0.550098 0.070338 0.620064 0.439787
C6    C     C_R   0.446946 0.928385 0.381722 0.447194
C7    C     C_R   0.449955 0.070305 0.379918 0.452260
C8    C     C_R   0.553047 0.928416 0.618286 0.448150
C9    C     C_R   0.740046 0.500578 0.501195 1.001785
C10   C     C_R   0.499548 0.500003 0.219003 0.945562
C11   C     C_R   0.500454 0.500008 0.780996 0.935525
C12   C     C_1   0.499831 0.500019 0.065483 -0.072301
C13   C     C_1   0.500167 0.500026 0.934517 -0.073633
C14   C     C_R   0.059306 0.383765 0.476762 0.327726
C15   C     C_R   0.937448 0.625342 0.480836 0.306833
C16   C     C_R   0.940605 0.383619 0.521669 0.238931
H1    H     H_    0.163085 0.244581 0.131625 0.414208
H2    H     H_    0.726901 0.799684 0.213923 0.398976
H3    H     H_    0.889836 0.374592 0.835908 0.360709
H4    H     H_    0.273263 0.797734 0.788392 0.398568
H5    H     H_    0.636448 0.217965 0.707292 0.414282
H6    H     H_    0.349722 0.781501 0.303515 0.382976
H7    H     H_    0.363687 0.217860 0.292567 0.404229
H8    H     H_    0.650157 0.781529 0.696592 0.381133
N1    N     N_R   0.500000 0.857200 0.500000 -0.274104
N2    N     N_R   0.500000 0.142800 0.500000 -0.274803
O1    O     O_R   0.316770 0.614620 0.499990 -0.594912
O2    O     O_2   0.988480 0.174681 0.303068 -0.177762
O3    O     O_3   0.171131 0.314526 0.210699 -0.591651
O4    O     O_2   0.811195 0.857544 0.490326 -0.233530
O5    O     O_2   0.974870 0.845511 0.311868 -0.153864
O6    O     O_3   0.772453 0.717384 0.245374 -0.538876
O7    O     O_2   0.814027 0.155189 0.550780 -0.185482
O8    O     O_2   0.010679 0.172180 0.693920 -0.173245
O9    O     O_3   0.829102 0.311640 0.788119 -0.548535
O10   O     O_2   0.189240 0.857393 0.512233 -0.233058
O11   O     O_2   0.025555 0.844289 0.690621 -0.155070
O12   O     O_R   0.683230 0.385380 0.500010 -0.588176
O13   O     O_3   0.227824 0.715607 0.755986 -0.543987
O14   O     O_3   0.604586 0.132479 0.743424 -0.604790
O15   O     O_3   0.384637 0.864900 0.263766 -0.639178
O16   O     O_3   0.395683 0.132428 0.256458 -0.639738
O17   O     O_3   0.615294 0.864964 0.736285 -0.633440
O18   O     O_R   0.683230 0.614620 0.500010 -0.596757
O19   O     O_R   0.316770 0.385380 0.499990 -0.592658
O20   O     O_R   0.500010 0.614640 0.285340 -0.614832
O21   O     O_R   0.499990 0.385360 0.714660 -0.621849
O22   O     O_R   0.499990 0.614640 0.714660 -0.615504
O23   O     O_R   0.500010 0.385360 0.285340 -0.618595
O24   O     O_2   0.185377 0.154897 0.446210 -0.213647
S1    S     S_3+6 0.101608 0.249995 0.359273 0.124893
S2    S     S_3+6 0.874318 0.767702 0.382600 0.140105
S3    S     S_3+6 0.898416 0.249187 0.638440 0.135293
S4    S     S_3+6 0.126002 0.766890 0.619217 0.131205
Zn1   Zn    Zn3+2 0.500000 0.653120 0.500000 1.030027
Zn2   Zn    Zn3+2 0.500000 0.346880 0.500000 1.049816

loop_
_geom_bond_atom_site_label_1
_geom_bond_atom_site_label_2
_ccdc_geom_bond_type
O20   Zn1   S    
C10   O20   A    
O22   Zn1   S    
C2    C4    A    
C7    O16   S    
C6    C7    A    
C2    C15   A    
H6    O15   S    
O9    S3    S    
O23   Zn2   S    
H1    O3    S    
C11   O21   A    
C14   S1    S    
C8    O17   S    
O5    S2    D    
C1    C4    S    
O24   S1    D    
H4    O13   S    
O12   Zn2   S    
O10   S4    D    
H3    O9    S    
C15   S2    S    
C4    C14   A    
C8    N1    A    
C7    N2    A    
O18   Zn1   S    
C1    O19   A    
C11   O22   A    
H7    O16   S    
C10   C12   S    
C3    C9    S    
O11   S4    D    
C9    O12   A    
O1    Zn1   S    
O7    S3    D    
O2    S1    D    
C14   C16   A    
C2    S4    S    
O13   S4    S    
H2    O6    S    
C5    N2    A    
C6    N1    A    
C11   C13   S    
C3    C15   A    
C12   C13   T    
O8    S3    D    
O3    S1    S    
C5    O14   S    
C1    O1    A    
H8    O17   S    
C5    C8    A    
C16   S3    S    
O6    S2    S    
C9    O18   A    
O4    S2    D    
C10   O23   A    
C3    C16   A    
N1    Zn1   S    
O19   Zn2   S    
N2    Zn2   S    
O21   Zn2   S    
C6    O15   S    
H5    O14   S    
