data_mof_unit_30332.cif
_audit_creation_date              2012-12-11T14:43:57-0500
_audit_creation_method            fapswitch 2.2
_symmetry_space_group_name_H-M    P1
_symmetry_Int_Tables_number       1
_space_group_crystal_system       triclinic
_cell_length_a                    19.003897
_cell_length_b                    10.920563
_cell_length_c                    18.877781
_cell_angle_alpha                 89.968783
_cell_angle_beta                  89.85163
_cell_angle_gamma                 89.360115
_cell_volume                      3917.50934896

loop_
_atom_site_label
_atom_site_type_symbol
_atom_type_description
_atom_site_fract_x
_atom_site_fract_y
_atom_site_fract_z
_atom_type_partial_charge
C1    C     C_R   0.730038 0.375494 0.145709 0.623792
C2    C     C_R   0.270796 0.376978 0.854248 0.561713
C3    C     C_R   0.230021 0.875414 0.145700 0.624300
C4    C     C_R   0.770836 0.876823 0.854296 0.559178
C5    C     C_R   0.551003 0.349879 0.914614 0.336818
C6    C     C_R   0.530043 0.397003 0.058438 0.316948
C7    C     C_R   0.051026 0.851982 0.913728 0.339138
C8    C     C_R   0.031660 0.897839 0.057928 0.314505
C9    C     C_R   0.061910 0.969997 0.940225 0.271936
C10   C     C_R   0.052650 0.993032 0.012212 0.250810
C11   C     C_R   0.561629 0.468119 0.940895 0.274631
C12   C     C_R   0.551575 0.491809 0.012716 0.254548
C13   C     C_R   0.685043 0.946216 0.028781 0.395163
C14   C     C_R   0.282082 0.861726 0.955567 0.332781
C15   C     C_R   0.184876 0.445331 0.028833 0.396615
C16   C     C_R   0.786711 0.365194 0.956669 0.351898
C17   C     C_R   0.692043 0.935568 0.955763 0.258553
C18   C     C_R   0.277519 0.829154 0.026935 0.177509
C19   C     C_R   0.191880 0.435093 0.955776 0.256462
C20   C     C_R   0.780461 0.331681 0.027727 0.163907
C21   C     C_R   0.759314 0.909717 0.927830 0.007693
C22   C     C_R   0.251938 0.915935 0.076252 0.024478
C23   C     C_R   0.259240 0.410239 0.927743 0.010374
C24   C     C_R   0.752297 0.416967 0.076522 -0.002589
C25   C     C_R   0.818597 0.901450 0.973179 0.221669
C26   C     C_R   0.235297 0.035379 0.056122 0.253475
C27   C     C_R   0.318579 0.402548 0.973060 0.223514
C28   C     C_R   0.734460 0.535866 0.056191 0.245963
C29   C     C_R   0.810341 0.911413 0.045646 0.166774
C30   C     C_R   0.237829 0.066095 0.984480 0.158201
C31   C     C_R   0.310309 0.411975 0.045527 0.168475
C32   C     C_R   0.737128 0.566633 0.984541 0.157039
C33   C     C_R   0.744322 0.935240 0.073419 -0.004387
C34   C     C_R   0.262950 0.980139 0.934159 -0.008404
C35   C     C_R   0.244261 0.435066 0.073408 -0.005167
C36   C     C_R   0.764293 0.481770 0.934522 -0.012767
C37   C     C_R   0.453817 0.065196 0.445865 0.176246
C38   C     C_R   0.440613 0.058537 0.519056 0.202449
C39   C     C_R   0.953817 0.565196 0.445865 0.176128
C40   C     C_R   0.940614 0.558537 0.519056 0.202414
C41   C     C_R   0.453948 0.160586 0.562589 -0.074044
C42   C     C_R   0.488400 0.168678 0.418019 -0.089474
C43   C     C_R   0.953949 0.660586 0.562589 -0.074048
C44   C     C_R   0.988401 0.668679 0.418020 -0.089463
C45   C     C_R   0.531319 0.157646 0.146902 0.636120
C46   C     C_R   0.466406 0.152897 0.854708 0.650343
C47   C     C_R   0.031709 0.657767 0.146634 0.638054
C48   C     C_R   0.966906 0.653006 0.854438 0.648697
C49   C     C_R   0.480116 0.268577 0.532253 0.380942
C50   C     C_R   0.495948 0.272910 0.460496 0.393338
C51   C     C_R   0.980118 0.768577 0.532254 0.380950
C52   C     C_R   0.995950 0.772910 0.460497 0.393417
C53   C     C_R   0.816299 0.941675 0.457684 0.403619
C54   C     C_R   0.183247 0.962630 0.540852 0.404385
C55   C     C_R   0.316298 0.441677 0.457685 0.403718
C56   C     C_R   0.683248 0.462633 0.540850 0.404386
C57   C     C_R   0.817794 0.944995 0.530375 0.372322
C58   C     C_R   0.177771 0.943052 0.469738 0.382113
C59   C     C_R   0.317793 0.444998 0.530376 0.372326
C60   C     C_R   0.677771 0.443053 0.469737 0.382123
C61   C     C_R   0.760678 0.901075 0.570450 -0.118044
C62   C     C_R   0.222981 0.859592 0.435544 -0.110669
C63   C     C_R   0.260677 0.401077 0.570451 -0.117960
C64   C     C_R   0.722981 0.359593 0.435544 -0.110596
C65   C     C_R   0.701036 0.856993 0.535314 0.381249
C66   C     C_R   0.273390 0.794207 0.475479 0.352459
C67   C     C_R   0.201035 0.356994 0.535314 0.381214
C68   C     C_R   0.773389 0.294207 0.475478 0.352509
C69   C     C_R   0.697981 0.858740 0.461554 0.180986
C70   C     C_R   0.280281 0.815423 0.548202 0.194331
C71   C     C_R   0.197981 0.358742 0.461555 0.180826
C72   C     C_R   0.780282 0.315424 0.548201 0.194292
C73   C     C_R   0.754186 0.911117 0.422584 -0.142234
C74   C     C_R   0.238634 0.908393 0.579970 -0.125095
C75   C     C_R   0.254186 0.411118 0.422585 -0.142092
C76   C     C_R   0.738635 0.408395 0.579969 -0.125216
C77   C     C_R   0.739605 0.973835 0.146221 0.618813
C78   C     C_R   0.271021 0.016291 0.860269 0.596690
C79   C     C_R   0.239590 0.473794 0.146216 0.618622
C80   C     C_R   0.771321 0.516954 0.860243 0.590567
C81   C     C_R   0.712135 0.334687 0.360253 0.573999
C82   C     C_R   0.272069 0.374917 0.645566 0.562636
C83   C     C_R   0.212135 0.834687 0.360253 0.574248
C84   C     C_R   0.772069 0.874916 0.645565 0.562490
C85   C     C_R   0.529255 0.157887 0.351894 0.548221
C86   C     C_R   0.437231 0.153428 0.638741 0.587019
C87   C     C_R   0.029255 0.657887 0.351895 0.546828
C88   C     C_R   0.937232 0.653428 0.638741 0.587113
C89   C     C_R   0.742300 0.967308 0.353121 0.562143
C90   C     C_R   0.256758 0.966785 0.647359 0.564532
C91   C     C_R   0.242300 0.467308 0.353121 0.561986
C92   C     C_R   0.756759 0.466786 0.647358 0.563980
C93   C     C_R   0.490918 0.153109 0.928704 0.095859
C94   C     C_R   0.499790 0.174042 0.076366 0.109988
C95   C     C_R   0.992506 0.653820 0.928060 0.095103
C96   C     C_R   0.001159 0.674888 0.075709 0.109874
C97   C     C_R   0.521570 0.258294 0.958172 -0.091039
C98   C     C_R   0.517887 0.276340 0.032278 -0.092767
C99   C     C_R   0.022393 0.759799 0.957418 -0.089933
C100  C     C_R   0.019572 0.777207 0.031675 -0.097730
C101  C     C_R   0.470595 0.069112 0.046746 0.258347
C102  C     C_R   0.466772 0.056912 0.973209 0.265270
C103  C     C_R   0.970276 0.571740 0.046223 0.267230
C104  C     C_R   0.970716 0.556443 0.972731 0.243728
Cr1   Cr    Cr6+3 0.772000 0.169640 0.250110 1.190353
Cr2   Cr    Cr6+3 0.228000 0.169640 0.749890 1.150677
Cr3   Cr    Cr6+3 0.272000 0.669640 0.250110 1.188063
Cr4   Cr    Cr6+3 0.728000 0.669640 0.749890 1.150030
Cr5   Cr    Cr6+3 0.614960 0.323350 0.249260 1.207944
Cr6   Cr    Cr6+3 0.385040 0.323350 0.750740 1.196477
Cr7   Cr    Cr6+3 0.114960 0.823350 0.249260 1.207976
Cr8   Cr    Cr6+3 0.885040 0.823350 0.750740 1.196362
Cr9   Cr    Cr6+3 0.616670 0.010620 0.250840 1.130369
Cr10  Cr    Cr6+3 0.383330 0.010620 0.749160 1.176092
Cr11  Cr    Cr6+3 0.116670 0.510620 0.250840 1.141677
Cr12  Cr    Cr6+3 0.883330 0.510620 0.749160 1.175686
O1    O     O_R   0.787540 0.042690 0.170470 -0.454522
O2    O     O_R   0.212460 0.042690 0.829530 -0.493628
O3    O     O_R   0.287540 0.542690 0.170470 -0.456392
O4    O     O_R   0.712460 0.542690 0.829530 -0.495197
O5    O     O_R   0.556540 0.252920 0.323970 -0.440070
O6    O     O_R   0.443460 0.252920 0.676030 -0.415261
O7    O     O_R   0.056540 0.752920 0.323970 -0.440461
O8    O     O_R   0.943460 0.752920 0.676030 -0.414849
O9    O     O_R   0.545870 0.051100 0.330840 -0.476116
O10   O     O_R   0.454130 0.051100 0.669160 -0.426186
O11   O     O_R   0.045870 0.551100 0.330840 -0.476565
O12   O     O_R   0.954130 0.551100 0.669160 -0.426225
O13   O     O_R   0.681340 0.959300 0.325510 -0.513186
O14   O     O_R   0.318660 0.959300 0.674490 -0.490267
O15   O     O_R   0.181340 0.459300 0.325510 -0.513519
O16   O     O_R   0.818660 0.459300 0.674490 -0.490372
O17   O     O_3   0.667880 0.167870 0.250070 -0.360278
O18   O     O_3   0.332120 0.167870 0.749930 -0.384441
O19   O     O_3   0.167880 0.667870 0.250070 -0.362651
O20   O     O_3   0.832120 0.667870 0.749930 -0.384372
O21   O     O_R   0.765660 0.292160 0.175050 -0.459696
O22   O     O_R   0.234340 0.292160 0.824950 -0.530595
O23   O     O_R   0.265660 0.792160 0.175050 -0.458755
O24   O     O_R   0.734340 0.792160 0.824950 -0.531404
O25   O     O_R   0.670190 0.408980 0.168550 -0.455571
O26   O     O_R   0.329810 0.408980 0.831450 -0.438349
O27   O     O_R   0.170190 0.908980 0.168550 -0.458977
O28   O     O_R   0.829810 0.908980 0.831450 -0.438875
O29   O     O_R   0.556580 0.251450 0.175160 -0.449118
O30   O     O_R   0.443420 0.251450 0.824840 -0.434489
O31   O     O_R   0.056580 0.751450 0.175160 -0.452919
O32   O     O_R   0.943420 0.751450 0.824840 -0.433701
O33   O     O_R   0.545920 0.049510 0.170320 -0.432278
O34   O     O_R   0.454080 0.049510 0.829680 -0.448597
O35   O     O_R   0.045920 0.549510 0.170320 -0.409678
O36   O     O_R   0.954080 0.549510 0.829680 -0.450295
O37   O     O_R   0.681390 0.957840 0.176710 -0.465462
O38   O     O_R   0.318610 0.957840 0.823290 -0.410747
O39   O     O_R   0.181390 0.457840 0.176710 -0.463721
O40   O     O_R   0.818610 0.457840 0.823290 -0.409580
O41   O     O_R   0.787500 0.044280 0.330990 -0.383827
O42   O     O_R   0.212500 0.044280 0.669010 -0.399834
O43   O     O_R   0.287500 0.544280 0.330990 -0.384259
O44   O     O_R   0.712500 0.544280 0.669010 -0.399884
O45   O     O_R   0.765610 0.293630 0.323860 -0.441055
O46   O     O_R   0.234390 0.293630 0.676140 -0.442688
O47   O     O_R   0.265610 0.793630 0.323860 -0.441060
O48   O     O_R   0.734390 0.793630 0.676140 -0.442382
O49   O     O_R   0.670140 0.410570 0.329080 -0.415100
O50   O     O_R   0.329860 0.410570 0.670920 -0.436156
O51   O     O_R   0.170140 0.910570 0.329080 -0.414149
O52   O     O_R   0.829860 0.910570 0.670920 -0.436244
O53   O     O_3   0.446244 0.978327 0.091145 -0.679092
H1    H     H_    0.471398 0.901494 0.078027 0.372520
O54   O     O_3   0.438502 0.952623 0.943202 -0.623221
H2    H     H_    0.418595 0.897816 0.979390 0.354066
O55   O     O_3   0.941096 0.485810 0.091138 -0.650402
H3    H     H_    0.904242 0.440727 0.065518 0.331759
O56   O     O_3   0.949928 0.446364 0.943754 -0.631656
H4    H     H_    0.965013 0.378770 0.975559 0.386252
F1    F     F_    0.874506 0.978439 0.421822 -0.450502
F2    F     F_    0.135911 0.042893 0.569517 -0.424614
F3    F     F_    0.374506 0.478441 0.421823 -0.450658
F4    F     F_    0.635913 0.542898 0.569515 -0.424673
F5    F     F_    0.876225 0.991764 0.560898 -0.433162
F6    F     F_    0.129718 0.012916 0.434484 -0.447915
F7    F     F_    0.376224 0.491768 0.560898 -0.433164
F8    F     F_    0.629717 0.512916 0.434484 -0.448183
F9    F     F_    0.646041 0.810176 0.572173 -0.473211
F10   F     F_    0.316746 0.711167 0.444065 -0.499291
F11   F     F_    0.146041 0.310177 0.572173 -0.473242
F12   F     F_    0.816745 0.211166 0.444065 -0.499129
O57   O     O_3   0.639373 0.809891 0.429857 -0.503735
H5    H     H_    0.654322 0.773699 0.384023 0.358991
O58   O     O_3   0.328186 0.745072 0.585553 -0.525404
H6    H     H_    0.314872 0.746372 0.636290 0.346226
O59   O     O_3   0.139373 0.309892 0.429857 -0.503572
H7    H     H_    0.154322 0.273700 0.384024 0.359244
O60   O     O_3   0.828186 0.245072 0.585552 -0.525449
H8    H     H_    0.814873 0.246373 0.636289 0.345915
F13   F     F_    0.569832 0.324672 0.846579 -0.606998
F14   F     F_    0.509379 0.430448 0.124581 -0.601598
F15   F     F_    0.069184 0.827397 0.845438 -0.605240
F16   F     F_    0.011031 0.931124 0.124096 -0.600292
O61   O     O_3   0.076731 0.067268 0.896192 -0.616840
H9    H     H_    0.073393 0.040820 0.846140 0.387246
O62   O     O_3   0.061414 0.111767 0.035663 -0.589343
H10   H     H_    0.057351 0.114482 0.087933 0.390124
O63   O     O_3   0.576780 0.565011 0.896717 -0.612809
H11   H     H_    0.573796 0.538151 0.846713 0.386865
O64   O     O_3   0.560145 0.610722 0.035942 -0.591033
H12   H     H_    0.555156 0.614007 0.088121 0.384297
F17   F     F_    0.620446 0.972283 0.055508 -0.600941
F18   F     F_    0.302902 0.776774 0.906947 -0.595787
F19   F     F_    0.120144 0.470112 0.055658 -0.585803
F20   F     F_    0.810818 0.281564 0.908793 -0.589940
O65   O     O_3   0.632492 0.949632 0.914581 -0.597576
H13   H     H_    0.646287 0.958444 0.864283 0.334113
O66   O     O_3   0.294689 0.712136 0.049309 -0.684097
H14   H     H_    0.316088 0.665305 0.009725 0.360434
O67   O     O_3   0.132246 0.448354 0.914647 -0.602643
H15   H     H_    0.145986 0.457800 0.864372 0.334954
O68   O     O_3   0.798878 0.215260 0.050331 -0.680035
H16   H     H_    0.821138 0.168854 0.011049 0.364252
O69   O     O_3   0.884613 0.878664 0.946258 -0.664655
H17   H     H_    0.916810 0.936091 0.969856 0.324430
O70   O     O_3   0.213470 0.117667 0.107784 -0.643097
H18   H     H_    0.199221 0.196430 0.086154 0.386311
O71   O     O_3   0.384719 0.380926 0.946126 -0.663271
H19   H     H_    0.416559 0.439022 0.969664 0.324465
O72   O     O_3   0.711220 0.617428 0.107645 -0.642810
H20   H     H_    0.697277 0.696387 0.086047 0.386825
O73   O     O_3   0.867242 0.898431 0.089701 -0.625292
H21   H     H_    0.892379 0.977211 0.085801 0.372812
O74   O     O_3   0.214742 0.180323 0.965587 -0.713217
H22   H     H_    0.185253 0.173107 0.923138 0.405496
O75   O     O_3   0.367331 0.399877 0.089453 -0.622033
H23   H     H_    0.391619 0.479548 0.086004 0.371490
O76   O     O_3   0.712437 0.679979 0.965609 -0.708789
H24   H     H_    0.684750 0.672548 0.922021 0.406662
O77   O     O_3   0.433062 0.969232 0.403342 -0.604986
H25   H     H_    0.423852 0.001425 0.355098 0.347388
O78   O     O_3   0.414688 0.953282 0.549478 -0.602915
H26   H     H_    0.420782 0.883872 0.516229 0.442378
O79   O     O_3   0.933061 0.469234 0.403342 -0.604599
H27   H     H_    0.923850 0.501428 0.355099 0.347369
O80   O     O_3   0.914688 0.453283 0.549478 -0.602862
H28   H     H_    0.920783 0.383872 0.516229 0.442404
F21   F     F_    0.495354 0.367760 0.572475 -0.448631
F22   F     F_    0.521537 0.378141 0.433333 -0.444346
F23   F     F_    0.995356 0.867759 0.572476 -0.448466
F24   F     F_    0.021539 0.878141 0.433334 -0.444153

loop_
_geom_bond_atom_site_label_1
_geom_bond_atom_site_label_2
_ccdc_geom_bond_type
C60   F8    S    
C71   C75   A    
O62   H10   S    
C80   O4    A    
C58   C62   A    
C101  C102  A    
C56   C76   A    
C48   C95   S    
C55   C59   A    
C86   O10   A    
O53   H1    S    
C14   C18   A    
C85   O9    A    
O78   H26   S    
Cr12  O36   S    
C72   C76   A    
C33   C77   S    
C49   C50   A    
C72   O60   S    
C57   F5    S    
C97   C98   A    
C13   F17   S    
Cr11  O11   S    
Cr11  O15   S    
O65   H13   S    
C15   C19   A    
C41   C86   S    
Cr4   O48   S    
C4    O28   A    
O73   H21   S    
C57   C61   A    
Cr9   O13   S    
C13   C17   A    
C45   O29   A    
C43   C88   S    
C32   C36   A    
Cr1   O17   S    
C1    O25   A    
C78   O2    A    
Cr4   O20   S    
Cr7   O31   S    
C64   C68   A    
C54   C58   A    
Cr10  O10   S    
C95   C99   A    
C71   O59   S    
C91   O15   A    
C94   C98   A    
O80   H28   S    
Cr8   O52   S    
C29   C33   A    
C103  O55   S    
C89   O13   A    
O79   H27   S    
O61   H9    S    
C15   C35   A    
C37   C42   A    
Cr6   O26   S    
Cr4   O4    S    
C59   F7    S    
Cr3   O19   S    
C103  C104  A    
C77   O37   A    
C38   O78   S    
C54   C74   A    
C41   C49   A    
C40   C43   A    
Cr1   O41   S    
O70   H18   S    
C94   C101  A    
Cr8   O32   S    
C29   O73   S    
C79   O3    A    
C86   O6    A    
C15   F19   S    
O76   H24   S    
C25   O69   S    
C19   O67   S    
C23   C27   A    
C44   C87   S    
C10   O62   S    
C34   C78   S    
C45   O33   A    
C84   O48   A    
Cr7   O27   S    
C55   C75   A    
C44   C52   A    
Cr8   O8    S    
Cr9   O17   S    
O77   H25   S    
Cr2   O2    S    
C7    F15   S    
Cr10  O14   S    
Cr1   O1    S    
C55   F3    S    
O58   H6    S    
Cr8   O20   S    
C17   O65   S    
C45   C94   S    
C52   F24   S    
C28   O72   S    
C87   O11   A    
C67   F11   S    
C70   O58   S    
C80   O40   A    
C104  O56   S    
C47   O31   A    
C25   C29   A    
C65   F9    S    
C82   O50   A    
C30   C34   A    
C63   C82   S    
C27   C31   A    
O64   H12   S    
C2    O22   A    
C12   O64   S    
C20   C24   A    
C28   C32   A    
C62   C66   A    
C3    O27   A    
C68   C72   A    
C38   C41   A    
C36   C80   S    
C47   C96   S    
C69   O57   S    
O68   H16   S    
C6    F14   S    
C31   C35   A    
C14   F18   S    
C9    O61   S    
C5    F13   S    
O60   H8    S    
C82   O46   A    
C7    C99   A    
O67   H15   S    
Cr2   O42   S    
C83   O51   A    
C17   C21   A    
C51   C52   A    
C78   O38   A    
C101  O53   S    
C60   C64   A    
C62   C83   S    
C90   O14   A    
C30   O74   S    
C90   O42   A    
C19   C23   A    
O66   H14   S    
C63   C67   A    
C70   C74   A    
C37   C38   A    
C84   O52   A    
Cr9   O33   S    
C4    O24   A    
O69   H17   S    
C31   O75   S    
C83   O47   A    
C93   C97   A    
C37   O77   S    
O72   H20   S    
Cr12  O16   S    
C16   F20   S    
C16   C20   A    
C50   F22   S    
C2    C23   S    
O71   H19   S    
Cr10  O18   S    
C48   O32   A    
C89   O41   A    
C42   C85   S    
C56   F4    S    
C69   C73   A    
O54   H2    S    
C39   C44   A    
Cr5   O49   S    
C42   C50   A    
Cr4   O44   S    
O63   H11   S    
C46   O34   A    
Cr2   O22   S    
C76   C92   S    
C26   C30   A    
Cr5   O29   S    
C48   O36   A    
Cr12  O12   S    
C2    O26   A    
C20   O68   S    
Cr1   O45   S    
C59   C63   A    
C8    F16   S    
C3    O23   A    
Cr10  O34   S    
C6    C12   A    
C6    C98   A    
O74   H22   S    
C1    O21   A    
C95   C104  A    
Cr4   O24   S    
C9    C10   A    
C102  O54   S    
C7    C9    A    
Cr7   O7    S    
C21   C25   A    
C53   C57   A    
C92   O16   A    
C18   C22   A    
C81   O45   A    
C53   C73   A    
C24   C28   A    
Cr9   O37   S    
C61   C84   S    
C53   F1    S    
C93   C102  A    
C14   C34   A    
Cr3   O43   S    
C11   C12   A    
C5    C11   A    
C13   C33   A    
Cr12  O20   S    
C75   C91   S    
C79   O39   A    
C66   C70   A    
C77   O1    A    
Cr3   O3    S    
C99   C100  A    
C92   O44   A    
C58   F6    S    
C85   O5    A    
Cr8   O28   S    
Cr1   O21   S    
C66   F10   S    
Cr11  O39   S    
C18   O66   S    
C73   C89   S    
C88   O12   A    
O56   H4    S    
Cr5   O17   S    
C51   F23   S    
C16   C36   A    
C87   O7    A    
C4    C21   S    
Cr6   O50   S    
Cr5   O5    S    
C8    C100  A    
C46   O30   A    
C46   C93   S    
Cr11  O19   S    
C43   C51   A    
C65   C69   A    
C74   C90   S    
C96   C100  A    
C88   O8    A    
C35   C79   S    
C56   C60   A    
C5    C97   A    
C67   C71   A    
Cr2   O46   S    
C61   C65   A    
Cr3   O23   S    
O57   H5    S    
Cr7   O19   S    
C49   F21   S    
C64   C81   S    
Cr12  O40   S    
C40   O80   S    
Cr6   O18   S    
C47   O35   A    
Cr7   O51   S    
O55   H3    S    
C91   O43   A    
C39   C40   A    
C54   F2    S    
Cr2   O18   S    
Cr9   O9    S    
C68   F12   S    
C1    C24   S    
C8    C10   A    
O59   H7    S    
C22   C26   A    
C96   C103  A    
Cr11  O35   S    
C26   O70   S    
C81   O49   A    
C3    C22   S    
Cr5   O25   S    
Cr3   O47   S    
C11   O63   S    
Cr6   O30   S    
Cr10  O38   S    
Cr6   O6    S    
C27   O71   S    
O75   H23   S    
C39   O79   S    
C32   O76   S    
