data_mof_unit_44447.cif
_audit_creation_date              2012-12-10T17:20:25-0500
_audit_creation_method            fapswitch 2.2
_symmetry_space_group_name_H-M    P1
_symmetry_Int_Tables_number       1
_space_group_crystal_system       triclinic
_cell_length_a                    11.669161
_cell_length_b                    10.810246
_cell_length_c                    9.653379
_cell_angle_alpha                 90.094475
_cell_angle_beta                  89.951354
_cell_angle_gamma                 89.767611
_cell_volume                      1217.72786627

loop_
_atom_site_label
_atom_site_type_symbol
_atom_type_description
_atom_site_fract_x
_atom_site_fract_y
_atom_site_fract_z
_atom_type_partial_charge
C1    C     C_R   0.500888 0.262757 0.499562 0.946407
C2    C     C_R   0.819560 0.064243 0.554617 -0.274123
C3    C     C_R   0.817986 0.937560 0.575866 0.113489
C4    C     C_R   0.715579 0.872445 0.562541 0.566793
C5    C     C_R   0.611777 0.934498 0.528483 -0.198994
C6    C     C_R   0.612259 0.065215 0.517599 -0.107349
C7    C     C_R   0.506759 0.128647 0.497351 -0.175730
C8    C     C_R   0.404725 0.063166 0.475720 0.042075
C9    C     C_R   0.406408 0.934965 0.475367 0.586006
C10   C     C_R   0.507967 0.870761 0.502430 -0.191712
C11   C     C_R   0.709415 0.532044 0.119018 0.112174
C12   C     C_R   0.284326 0.500671 0.500048 0.831695
C13   C     C_R   0.807267 0.479516 0.058193 0.501745
C14   C     C_R   0.795493 0.403334 0.941970 -0.006257
C15   C     C_R   0.689425 0.398478 0.874246 0.544556
C16   C     C_R   0.595311 0.465156 0.928340 0.011720
C17   C     C_R   0.600685 0.495811 0.070669 -0.110071
C18   C     C_R   0.402379 0.522693 0.072672 0.735394
C19   C     C_R   0.404370 0.530175 0.925462 -0.091870
C20   C     C_R   0.502325 0.737025 0.500436 0.968385
C21   C     C_R   0.715673 0.501252 0.499937 1.021642
C22   C     C_1   0.162532 0.500970 0.500063 -0.037272
C23   C     C_1   0.059924 0.501006 0.499868 0.100338
C24   C     C_1   0.940082 0.501108 0.499709 0.096352
C25   C     C_1   0.837504 0.501288 0.499806 0.002093
C26   C     C_R   0.718632 0.127742 0.525258 0.652767
Cu1   Cu    Cu3+1 0.499990 0.499990 0.640660 1.076612
Cu2   Cu    Cu3+1 0.500010 0.500010 0.359340 1.091926
H1    H     H_    0.326664 0.555001 0.871241 0.182456
H2    H     H_    0.899704 0.114127 0.560573 0.218892
N1    N     N_R   0.501070 0.501210 0.147910 -0.220288
N2    N     N_R   0.501110 0.501290 0.852040 -0.199679
O1    O     O_R   0.499990 0.319640 0.618810 -0.507283
O2    O     O_R   0.500000 0.319660 0.381240 -0.572252
O3    O     O_R   0.337190 0.500000 0.618790 -0.611629
O4    O     O_R   0.337200 0.500030 0.381210 -0.493391
O5    O     O_R   0.500000 0.680340 0.618760 -0.551956
O6    O     O_R   0.500010 0.680360 0.381190 -0.554663
O7    O     O_R   0.662800 0.499970 0.618790 -0.511549
O8    O     O_R   0.662810 0.500000 0.381210 -0.586726
I1    I     I_    0.244449 0.153695 0.443209 -0.189836
I2    I     I_    0.939414 0.309720 0.858337 -0.131112
F1    F     F_    0.676208 0.316558 0.769787 -0.602458
F2    F     F_    0.727834 0.249333 0.497379 -0.679244
I3    I     I_    0.972785 0.844944 0.624214 -0.124086
F3    F     F_    0.719160 0.749501 0.586138 -0.692202
F4    F     F_    0.307711 0.871910 0.451749 -0.621389
F5    F     F_    0.301600 0.546596 0.136639 -0.605988
I4    I     I_    0.731501 0.713596 0.201262 -0.173715
F6    F     F_    0.913015 0.507349 0.107298 -0.580693

loop_
_geom_bond_atom_site_label_1
_geom_bond_atom_site_label_2
_ccdc_geom_bond_type
C8    C9    A    
C23   C24   S    
C24   C25   T    
C6    C7    A    
C11   I4    S    
C16   N2    A    
C20   O6    A    
C9    C10   A    
C21   O7    A    
Cu2   O6    S    
C14   I2    S    
C2    C3    A    
C26   F2    S    
C7    C8    A    
C2    C26   A    
C4    F3    S    
C13   C14   A    
Cu1   O1    S    
C12   O3    A    
C20   O5    A    
C11   C13   A    
C6    C26   A    
C21   O8    A    
Cu1   O5    S    
C19   N2    A    
C15   F1    S    
C1    O2    A    
C9    F4    S    
Cu2   O2    S    
C5    C6    A    
C17   N1    A    
C12   O4    A    
C2    H2    S    
Cu2   O8    S    
C1    O1    A    
C13   F6    S    
C19   H1    S    
C12   C22   S    
C5    C10   A    
C8    I1    S    
Cu2   O4    S    
C18   C19   A    
C10   C20   S    
Cu1   Cu2   S    
C21   C25   S    
C22   C23   T    
C11   C17   A    
C1    C7    S    
C18   N1    A    
Cu1   O3    S    
Cu1   N2    S    
C14   C15   A    
C3    I3    S    
Cu2   N1    S    
C3    C4    A    
C15   C16   A    
C16   C17   A    
Cu1   O7    S    
C4    C5    A    
C18   F5    S    
