data_mof_unit_7414.cif
_audit_creation_date              2012-12-11T15:08:49-0500
_audit_creation_method            fapswitch 2.2
_symmetry_space_group_name_H-M    P1
_symmetry_Int_Tables_number       1
_space_group_crystal_system       triclinic
_cell_length_a                    19.490332
_cell_length_b                    11.448628
_cell_length_c                    18.691028
_cell_angle_alpha                 89.806488
_cell_angle_beta                  90.23457
_cell_angle_gamma                 89.555374
_cell_volume                      4170.48562583

loop_
_atom_site_label
_atom_site_type_symbol
_atom_type_description
_atom_site_fract_x
_atom_site_fract_y
_atom_site_fract_z
_atom_type_partial_charge
C1    C     C_R   0.271211 0.043491 0.853621 0.526324
C2    C     C_3   0.690210 0.509016 0.960264 0.163765
C3    C     C_R   0.226375 0.541119 0.354915 0.533911
C4    C     C_R   0.467457 0.822233 0.645175 0.538845
C5    C     C_R   0.532863 0.822333 0.354984 0.532930
C6    C     C_R   0.967457 0.322233 0.645174 0.538845
C7    C     C_R   0.032863 0.322333 0.354984 0.532930
C8    C     C_R   0.261694 0.643584 0.642932 0.537405
C9    C     C_R   0.738760 0.642502 0.356533 0.536467
C10   C     C_R   0.761694 0.143584 0.642932 0.537406
C11   C     C_R   0.238760 0.142502 0.356533 0.536466
C12   C     C_3   0.432122 0.849257 0.046023 -0.125921
C13   C     C_3   0.811964 0.002427 0.040858 0.160044
C14   C     C_3   0.457793 0.932818 0.986931 -0.140530
C15   C     C_3   0.932123 0.349251 0.046023 -0.125915
C16   C     C_3   0.957792 0.432816 0.986932 -0.140535
C17   C     C_3   0.441965 0.746120 0.994095 -0.116206
C18   C     C_3   0.531335 0.916181 0.013907 -0.145908
C19   C     C_3   0.941969 0.246117 0.994094 -0.116191
C20   C     C_3   0.031334 0.416184 0.013908 -0.145909
C21   C     C_3   0.467755 0.829336 0.936377 0.044560
C22   C     C_3   0.505590 0.831122 0.071031 0.060201
C23   C     C_3   0.967756 0.329337 0.936377 0.044562
C24   C     C_3   0.190217 0.009007 0.960266 0.163762
C25   C     C_3   0.005590 0.331121 0.071031 0.060197
C26   C     C_3   0.717285 0.899078 0.670851 -0.015305
C27   C     C_3   0.788192 0.857953 0.697390 -0.279264
C28   C     C_3   0.786544 0.830515 0.776817 -0.445477
C29   C     C_3   0.288949 0.899999 0.331260 -0.019104
C30   C     C_3   0.220536 0.858238 0.300117 -0.271998
C31   C     C_3   0.225872 0.841333 0.219629 -0.448393
C32   C     C_3   0.217284 0.399078 0.670850 -0.015306
C33   C     C_3   0.288190 0.357952 0.697391 -0.279264
C34   C     C_3   0.286541 0.330515 0.776818 -0.445478
C35   C     C_3   0.315476 0.517541 0.957534 -0.194779
C36   C     C_3   0.788949 0.399999 0.331260 -0.019103
C37   C     C_3   0.720536 0.358239 0.300117 -0.271998
C38   C     C_3   0.725871 0.341332 0.219629 -0.448393
C39   C     C_3   0.426533 0.462537 0.073098 -0.010935
C40   C     C_3   0.432212 0.396314 0.144045 -0.249625
C41   C     C_3   0.492889 0.311051 0.143611 -0.483226
C42   C     C_3   0.575642 0.457037 0.936807 -0.010084
C43   C     C_3   0.566584 0.388565 0.867461 -0.248088
C44   C     C_3   0.510441 0.296962 0.874829 -0.486915
C45   C     C_3   0.926534 0.962550 0.073105 -0.010936
C46   C     C_3   0.689194 0.526278 0.043292 -0.198046
C47   C     C_3   0.932209 0.896328 0.144052 -0.249625
C48   C     C_3   0.992884 0.811060 0.143622 -0.483224
C49   C     C_3   0.075654 0.956999 0.936811 -0.010066
C50   C     C_3   0.066578 0.888567 0.867453 -0.248086
C51   C     C_3   0.010458 0.796923 0.874828 -0.486900
C52   C     C_3   0.815477 0.017543 0.957535 -0.194778
C53   C     C_3   0.189200 0.026271 0.043294 -0.198048
C54   C     C_3   0.180397 0.532604 0.026347 -0.264275
C55   C     C_3   0.816096 0.559872 0.972905 -0.278143
C56   C     C_3   0.680398 0.032606 0.026348 -0.264273
C57   C     C_R   0.728195 0.041791 0.145469 0.541887
C58   C     C_3   0.316099 0.059881 0.972904 -0.278143
C59   C     C_3   0.256557 0.697470 0.055628 -0.251556
C60   C     C_3   0.731473 0.708743 0.933600 -0.222230
C61   C     C_3   0.756556 0.197473 0.055628 -0.251548
C62   C     C_3   0.231468 0.208740 0.933600 -0.222232
C63   C     C_3   0.245753 0.567717 0.069373 0.087244
C64   C     C_3   0.750774 0.580093 0.927509 0.083195
C65   C     C_3   0.745753 0.067720 0.069374 0.087245
C66   C     C_3   0.250776 0.080093 0.927509 0.083192
C67   C     C_3   0.256839 0.600589 0.930249 0.041833
C68   C     C_R   0.771211 0.543491 0.853621 0.526324
C69   C     C_3   0.733978 0.633553 0.063318 0.033518
C70   C     C_3   0.756840 0.100591 0.930250 0.041832
C71   C     C_3   0.233979 0.133553 0.063318 0.033517
C72   C     C_3   0.189622 0.536477 0.944995 -0.283280
C73   C     C_3   0.809019 0.601635 0.048885 -0.251292
C74   C     C_3   0.689622 0.036481 0.944996 -0.283279
C75   C     C_3   0.309021 0.101645 0.048884 -0.251293
C76   C     C_3   0.255925 0.715881 0.974232 -0.226819
C77   C     C_3   0.710613 0.732515 0.012044 -0.235141
C78   C     C_3   0.755928 0.215884 0.974233 -0.226814
C79   C     C_R   0.228194 0.541790 0.145468 0.541888
C80   C     C_3   0.210609 0.232511 0.012044 -0.235141
C81   C     C_3   0.498753 0.699437 0.460044 -0.239332
C82   C     C_3   0.502352 0.699316 0.540527 -0.239825
C83   C     C_3   0.998753 0.199436 0.460044 -0.239332
C84   C     C_3   0.002352 0.199316 0.540527 -0.239825
C85   C     C_R   0.444588 0.818504 0.861636 0.545835
C86   C     C_R   0.531898 0.821724 0.144842 0.538642
C87   C     C_R   0.944588 0.318505 0.861636 0.545834
C88   C     C_R   0.031898 0.321724 0.144842 0.538642
C89   C     C_3   0.568776 0.885109 0.475499 -0.220487
C90   C     C_3   0.541492 0.814185 0.961162 -0.103996
C91   C     C_3   0.431375 0.885060 0.524430 -0.219007
C92   C     C_3   0.068776 0.385109 0.475498 -0.220486
C93   C     C_3   0.931375 0.385060 0.524430 -0.219008
C94   C     C_3   0.448708 0.898210 0.444306 -0.249203
C95   C     C_3   0.551847 0.897430 0.555756 -0.249232
C96   C     C_3   0.948708 0.398210 0.444306 -0.249204
C97   C     C_3   0.051847 0.397430 0.555756 -0.249232
C98   C     C_3   0.512024 0.826201 0.431162 0.045685
C99   C     C_3   0.488616 0.826125 0.569079 0.044433
C100  C     C_3   0.012024 0.326201 0.431162 0.045685
C101  C     C_3   0.516324 0.728676 0.019283 -0.084870
C102  C     C_3   0.988616 0.326125 0.569079 0.044433
C103  C     C_3   0.182468 0.652005 0.459758 -0.261539
C104  C     C_3   0.817649 0.651189 0.539559 -0.261412
C105  C     C_3   0.682468 0.152005 0.459758 -0.261539
C106  C     C_3   0.317649 0.151190 0.539559 -0.261411
C107  C     C_3   0.180509 0.646693 0.539937 -0.239193
C108  C     C_3   0.820142 0.644192 0.459550 -0.240474
C109  C     C_3   0.680509 0.146693 0.539937 -0.239193
C110  C     C_3   0.320142 0.144193 0.459550 -0.240474
C111  C     C_3   0.243490 0.454636 0.475384 -0.177740
C112  C     C_3   0.041494 0.314191 0.961161 -0.103997
C113  C     C_3   0.756447 0.454843 0.525785 -0.173680
C114  C     C_3   0.743490 0.954636 0.475384 -0.177741
C115  C     C_3   0.256447 0.954843 0.525785 -0.173679
C116  C     C_3   0.309591 0.623417 0.444411 -0.275146
C117  C     C_3   0.690867 0.626270 0.554819 -0.277999
C118  C     C_3   0.809591 0.123416 0.444411 -0.275146
C119  C     C_3   0.190867 0.126271 0.554819 -0.278000
C120  C     C_3   0.240490 0.569012 0.430952 0.030872
C121  C     C_3   0.759652 0.569852 0.569042 0.032450
C122  C     C_3   0.740490 0.069012 0.430952 0.030872
C123  C     C_3   0.016329 0.228678 0.019282 -0.084871
C124  C     C_3   0.259652 0.069852 0.569042 0.032450
C125  C     C_3   0.251779 0.603517 0.568837 0.082287
C126  C     C_3   0.749073 0.602227 0.430710 0.079838
C127  C     C_3   0.751780 0.103517 0.568837 0.082287
C128  C     C_3   0.249073 0.102227 0.430710 0.079837
C129  C     C_3   0.257827 0.471696 0.556875 0.151559
C130  C     C_3   0.743318 0.470645 0.443792 0.149963
C131  C     C_3   0.757827 0.971696 0.556875 0.151559
C132  C     C_3   0.243318 0.970645 0.443792 0.149963
C133  C     C_R   0.261714 0.637600 0.853540 0.525367
C134  C     C_3   0.311963 0.502422 0.040856 0.160045
C135  C     C_R   0.728065 0.674025 0.139277 0.538497
C136  C     C_R   0.761715 0.137601 0.853540 0.525366
C137  C     C_R   0.228065 0.174025 0.139277 0.538497
C138  C     C_3   0.310026 0.658178 0.523776 -0.276496
C139  C     C_3   0.690627 0.658789 0.474941 -0.274067
C140  C     C_3   0.810026 0.158179 0.523776 -0.276496
C141  C     C_3   0.190627 0.158788 0.474942 -0.274067
C142  C     C_R   0.273442 0.041854 0.645352 0.532861
C143  C     C_R   0.726375 0.041119 0.354915 0.533911
C144  C     C_R   0.773442 0.541854 0.645352 0.532861
Cr1   Cr    Cr6+3 0.229620 0.836040 0.749110 0.976248
Cr2   Cr    Cr6+3 0.613980 0.676590 0.250790 0.971032
Cr3   Cr    Cr6+3 0.886020 0.176590 0.749210 0.972507
Cr4   Cr    Cr6+3 0.113980 0.176590 0.250790 0.971031
Cr5   Cr    Cr6+3 0.770380 0.836040 0.250890 0.972665
Cr6   Cr    Cr6+3 0.729620 0.336040 0.749110 0.976252
Cr7   Cr    Cr6+3 0.270380 0.336040 0.250890 0.972670
Cr8   Cr    Cr6+3 0.387630 0.990680 0.750730 0.975670
Cr9   Cr    Cr6+3 0.612370 0.990680 0.249270 0.977311
Cr10  Cr    Cr6+3 0.887630 0.490680 0.750730 0.975670
Cr11  Cr    Cr6+3 0.112370 0.490680 0.249270 0.977312
Cr12  Cr    Cr6+3 0.386020 0.676590 0.749210 0.972509
H1    H     H_    0.401871 0.684226 0.985587 0.159321
H2    H     H_    0.689276 0.731999 0.896117 0.137641
H3    H     H_    0.218145 0.894857 0.548421 0.099155
H4    H     H_    0.311074 0.441159 0.568209 0.097529
H5    H     H_    0.690389 0.440958 0.431516 0.098532
H6    H     H_    0.811074 0.941159 0.568208 0.097529
H7    H     H_    0.190389 0.940958 0.431516 0.098532
H8    H     H_    0.309071 0.409637 0.054531 0.121910
H9    H     H_    0.701083 0.419643 0.947599 0.113157
H10   H     H_    0.809075 0.909642 0.054534 0.121910
H11   H     H_    0.201098 0.919637 0.947603 0.113157
H12   H     H_    0.366766 0.540261 0.937644 0.132807
H13   H     H_    0.805144 0.227942 0.079672 0.158165
H14   H     H_    0.635839 0.537777 0.062441 0.137217
H15   H     H_    0.866766 0.040257 0.937643 0.132808
H16   H     H_    0.135844 0.037764 0.062442 0.137220
H17   H     H_    0.309027 0.431759 0.932625 0.054533
H18   H     H_    0.710002 0.447068 0.070015 0.066726
H19   H     H_    0.809024 0.931760 0.932628 0.054533
H20   H     H_    0.210013 0.947065 0.070017 0.066725
H21   H     H_    0.660613 0.947556 0.044162 0.112725
H22   H     H_    0.328791 0.965586 0.972420 0.107361
H23   H     H_    0.160610 0.447557 0.044163 0.112728
H24   H     H_    0.189269 0.231989 0.896118 0.137643
H25   H     H_    0.828786 0.465577 0.972419 0.107360
H26   H     H_    0.690670 0.946990 0.922414 0.106149
H27   H     H_    0.326741 0.032686 0.086746 0.126742
H28   H     H_    0.190671 0.446985 0.922414 0.106149
H29   H     H_    0.826734 0.532670 0.086747 0.126736
H30   H     H_    0.679506 0.833852 0.689812 0.138623
H31   H     H_    0.700182 0.980510 0.697118 0.162150
H32   H     H_    0.803268 0.778764 0.668808 0.184605
H33   H     H_    0.828573 0.922887 0.687886 0.171132
H34   H     H_    0.767701 0.907019 0.807246 0.142150
H35   H     H_    0.296622 0.777166 0.957452 0.097873
H36   H     H_    0.838827 0.806818 0.796026 0.160627
H37   H     H_    0.751520 0.756302 0.786004 0.155261
H38   H     H_    0.328666 0.836524 0.313382 0.135430
H39   H     H_    0.306383 0.982863 0.307315 0.163210
H40   H     H_    0.207314 0.774466 0.324753 0.185236
H41   H     H_    0.178027 0.919702 0.311005 0.172050
H42   H     H_    0.244393 0.922315 0.193648 0.162271
H43   H     H_    0.174676 0.819348 0.197404 0.155852
H44   H     H_    0.262419 0.769153 0.207852 0.148521
H45   H     H_    0.179504 0.333853 0.689812 0.138622
H46   H     H_    0.654690 0.742711 0.016363 0.135182
H47   H     H_    0.200181 0.480511 0.697117 0.162149
H48   H     H_    0.303266 0.278764 0.668808 0.184605
H49   H     H_    0.328572 0.422886 0.687887 0.171132
H50   H     H_    0.267699 0.407019 0.807246 0.142149
H51   H     H_    0.338824 0.306818 0.796026 0.160627
H52   H     H_    0.251517 0.256302 0.786004 0.155259
H53   H     H_    0.828666 0.336524 0.313381 0.135430
H54   H     H_    0.806383 0.482863 0.307315 0.163210
H55   H     H_    0.707313 0.274467 0.324753 0.185235
H56   H     H_    0.678027 0.419702 0.311005 0.172050
H57   H     H_    0.796627 0.277165 0.957454 0.097877
H58   H     H_    0.744391 0.422315 0.193647 0.162271
H59   H     H_    0.674675 0.319347 0.197405 0.155852
H60   H     H_    0.762419 0.269153 0.207853 0.148520
H61   H     H_    0.474722 0.510329 0.065903 0.147418
H62   H     H_    0.423037 0.400296 0.027401 0.090060
H63   H     H_    0.438929 0.459588 0.188464 0.177093
H64   H     H_    0.384563 0.346848 0.153543 0.199339
H65   H     H_    0.486418 0.245562 0.100393 0.139598
H66   H     H_    0.495871 0.264394 0.195722 0.148411
H67   H     H_    0.541671 0.358732 0.135225 0.136064
H68   H     H_    0.154686 0.242701 0.016365 0.135182
H69   H     H_    0.526307 0.502132 0.947957 0.147004
H70   H     H_    0.585564 0.395930 0.982411 0.090853
H71   H     H_    0.552871 0.449778 0.823282 0.176096
H72   H     H_    0.615449 0.344368 0.853782 0.202578
H73   H     H_    0.523881 0.233468 0.917862 0.136116
H74   H     H_    0.504956 0.248716 0.823715 0.151136
H75   H     H_    0.460522 0.339461 0.887555 0.133695
H76   H     H_    0.974724 0.010344 0.065915 0.147427
H77   H     H_    0.923043 0.900309 0.027407 0.090056
H78   H     H_    0.938925 0.959601 0.188471 0.177090
H79   H     H_    0.204604 0.751621 0.962669 0.124263
H80   H     H_    0.884558 0.846864 0.153548 0.199344
H81   H     H_    0.986412 0.745568 0.100406 0.139600
H82   H     H_    0.995865 0.764409 0.195734 0.148407
H83   H     H_    0.041668 0.858738 0.135233 0.136064
H84   H     H_    0.026320 0.002078 0.947988 0.146963
H85   H     H_    0.085594 0.895867 0.982399 0.090859
H86   H     H_    0.052830 0.949801 0.823296 0.176079
H87   H     H_    0.115446 0.844410 0.853736 0.202609
H88   H     H_    0.023937 0.733400 0.917832 0.136130
H89   H     H_    0.004953 0.748719 0.823701 0.151129
H90   H     H_    0.731424 0.813489 0.028359 0.080861
H91   H     H_    0.960538 0.839381 0.887599 0.133683
H92   H     H_    0.704609 0.251628 0.962668 0.124253
H93   H     H_    0.554514 0.000587 0.023580 0.108819
H94   H     H_    0.231417 0.313487 0.028358 0.080860
H95   H     H_    0.640697 0.099645 0.039202 0.137072
H96   H     H_    0.357963 0.112908 0.949814 0.145227
H97   H     H_    0.140697 0.599646 0.039200 0.137068
H98   H     H_    0.857961 0.612898 0.949816 0.145225
H99   H     H_    0.144917 0.582361 0.920046 0.138275
H100  H     H_    0.842471 0.679265 0.056606 0.137046
H101  H     H_    0.644917 0.082368 0.920048 0.138278
H102  H     H_    0.342470 0.179282 0.056602 0.137042
H103  H     H_    0.533981 0.630393 0.441080 0.136044
H104  H     H_    0.901878 0.184220 0.985582 0.159322
H105  H     H_    0.467208 0.630865 0.559545 0.136299
H106  H     H_    0.033981 0.130393 0.441080 0.136043
H107  H     H_    0.967208 0.130865 0.559545 0.136299
H108  H     H_    0.447412 0.670823 0.442051 0.117226
H109  H     H_    0.553630 0.669915 0.558734 0.117227
H110  H     H_    0.947412 0.170822 0.442051 0.117226
H111  H     H_    0.053630 0.169915 0.558734 0.117227
H112  H     H_    0.609708 0.824332 0.471529 0.122312
H113  H     H_    0.390907 0.823782 0.528042 0.124033
H114  H     H_    0.109708 0.324332 0.471529 0.122313
H115  H     H_    0.054511 0.500591 0.023583 0.108818
H116  H     H_    0.890907 0.323782 0.528042 0.124033
H117  H     H_    0.593546 0.863001 0.589878 0.170266
H118  H     H_    0.407725 0.864379 0.409909 0.170200
H119  H     H_    0.093546 0.363000 0.589878 0.170266
H120  H     H_    0.907725 0.364379 0.409909 0.170200
H121  H     H_    0.388516 0.863631 0.082676 0.093378
H122  H     H_    0.446768 0.023400 0.971565 0.110395
H123  H     H_    0.888517 0.363622 0.082675 0.093382
H124  H     H_    0.946766 0.523399 0.971567 0.110396
H125  H     H_    0.458406 0.991019 0.430197 0.116395
H126  H     H_    0.214488 0.749347 0.080138 0.093489
H127  H     H_    0.542014 0.990341 0.569797 0.118194
H128  H     H_    0.958406 0.491019 0.430197 0.116395
H129  H     H_    0.042014 0.490341 0.569797 0.118194
H130  H     H_    0.417296 0.970218 0.547110 0.130768
H131  H     H_    0.581951 0.970647 0.452682 0.130050
H132  H     H_    0.917296 0.470218 0.547110 0.130768
H133  H     H_    0.081951 0.470647 0.452682 0.130050
H134  H     H_    0.129942 0.634396 0.440364 0.132725
H135  H     H_    0.870134 0.634534 0.559839 0.132596
H136  H     H_    0.629942 0.134396 0.440365 0.132725
H137  H     H_    0.776587 0.760655 0.918967 0.098735
H138  H     H_    0.370134 0.134534 0.559839 0.132596
H139  H     H_    0.193203 0.742568 0.442898 0.141780
H140  H     H_    0.806025 0.742397 0.554368 0.139919
H141  H     H_    0.693203 0.242568 0.442898 0.141780
H142  H     H_    0.306025 0.242397 0.554369 0.139918
H143  H     H_    0.163628 0.734027 0.558224 0.127683
H144  H     H_    0.837275 0.730806 0.440529 0.129004
H145  H     H_    0.663628 0.234027 0.558224 0.127684
H146  H     H_    0.337274 0.230806 0.440529 0.129004
H147  H     H_    0.140091 0.586393 0.557981 0.153687
H148  H     H_    0.714486 0.249349 0.080137 0.093489
H149  H     H_    0.860514 0.582668 0.442445 0.152648
H150  H     H_    0.640091 0.086393 0.557981 0.153687
H151  H     H_    0.360514 0.082668 0.442445 0.152648
H152  H     H_    0.692968 0.923181 0.468614 0.134076
H153  H     H_    0.306490 0.921091 0.534636 0.131746
H154  H     H_    0.192968 0.423181 0.468613 0.134076
H155  H     H_    0.806489 0.421091 0.534636 0.131746
H156  H     H_    0.351467 0.559270 0.433550 0.108203
H157  H     H_    0.649046 0.563554 0.566656 0.108309
H158  H     H_    0.851467 0.059270 0.433550 0.108203
H159  H     H_    0.276579 0.260659 0.918965 0.098734
H160  H     H_    0.149046 0.063554 0.566656 0.108309
H161  H     H_    0.318384 0.698604 0.408894 0.173654
H162  H     H_    0.682345 0.702949 0.589100 0.173849
H163  H     H_    0.818384 0.198604 0.408894 0.173654
H164  H     H_    0.182344 0.202949 0.589100 0.173849
H165  H     H_    0.584414 0.802933 0.923286 0.129649
H166  H     H_    0.543388 0.647113 0.033365 0.121104
H167  H     H_    0.084417 0.302946 0.923285 0.129632
H168  H     H_    0.043394 0.147115 0.033361 0.121106
H169  H     H_    0.298119 0.748911 0.524776 0.143476
H170  H     H_    0.305146 0.727937 0.079670 0.158166
H171  H     H_    0.702388 0.749318 0.471997 0.137347
H172  H     H_    0.798119 0.248912 0.524776 0.143476
H173  H     H_    0.202388 0.249318 0.471997 0.137347
H174  H     H_    0.360430 0.638374 0.547460 0.120887
H175  H     H_    0.640370 0.639017 0.451509 0.123419
H176  H     H_    0.860430 0.138374 0.547460 0.120887
H177  H     H_    0.140370 0.139017 0.451509 0.123419
H178  H     H_    0.281043 0.392457 0.452749 0.098776
H179  H     H_    0.718145 0.394857 0.548421 0.099155
H180  H     H_    0.781043 0.892457 0.452749 0.098776
O1    O     O_R   0.214130 0.708570 0.829890 -0.547015
O2    O     O_R   0.542830 0.717300 0.331620 -0.534431
O3    O     O_R   0.957170 0.217300 0.668380 -0.533206
O4    O     O_R   0.042830 0.217300 0.331620 -0.534431
O5    O     O_R   0.320870 0.624890 0.673130 -0.533274
O6    O     O_R   0.679130 0.624890 0.326870 -0.528350
O7    O     O_R   0.820870 0.124890 0.673130 -0.533274
O8    O     O_R   0.179130 0.124890 0.326870 -0.528350
O9    O     O_3   0.334430 0.834430 0.749680 -0.281276
O10   O     O_3   0.665570 0.834430 0.250320 -0.280112
O11   O     O_3   0.834430 0.334430 0.749680 -0.281275
O12   O     O_R   0.785870 0.708570 0.170110 -0.550651
O13   O     O_3   0.165570 0.334430 0.250320 -0.280113
O14   O     O_R   0.236050 0.959150 0.825270 -0.501427
O15   O     O_R   0.763950 0.959150 0.174730 -0.509716
O16   O     O_R   0.736050 0.459150 0.825270 -0.501425
O17   O     O_R   0.263950 0.459150 0.174730 -0.509708
O18   O     O_R   0.332100 0.076650 0.832310 -0.549110
O19   O     O_R   0.667900 0.076650 0.167690 -0.540128
O20   O     O_R   0.832100 0.576650 0.832310 -0.549110
O21   O     O_R   0.167900 0.576650 0.167690 -0.540129
O22   O     O_R   0.446500 0.918620 0.826240 -0.503883
O23   O     O_R   0.714130 0.208570 0.829890 -0.547022
O24   O     O_R   0.553500 0.918620 0.173760 -0.510340
O25   O     O_R   0.946500 0.418620 0.826240 -0.503883
O26   O     O_R   0.053500 0.418620 0.173760 -0.510339
O27   O     O_R   0.457310 0.715830 0.831280 -0.513410
O28   O     O_R   0.542690 0.715830 0.168720 -0.526432
O29   O     O_R   0.957310 0.215830 0.831280 -0.513411
O30   O     O_R   0.042690 0.215830 0.168720 -0.526434
O31   O     O_R   0.321000 0.623520 0.824130 -0.524429
O32   O     O_R   0.679000 0.623520 0.175870 -0.517888
O33   O     O_R   0.821000 0.123520 0.824130 -0.524427
O34   O     O_R   0.285870 0.208570 0.170110 -0.550651
O35   O     O_R   0.179000 0.123520 0.175870 -0.517888
O36   O     O_R   0.213990 0.710040 0.667000 -0.542410
O37   O     O_R   0.786010 0.710040 0.333000 -0.542151
O38   O     O_R   0.713990 0.210040 0.667000 -0.542408
O39   O     O_R   0.286010 0.210040 0.333000 -0.542151
O40   O     O_R   0.235920 0.960520 0.674260 -0.511661
O41   O     O_R   0.764080 0.960520 0.325740 -0.511381
O42   O     O_R   0.735920 0.460520 0.674260 -0.511660
O43   O     O_R   0.264080 0.460520 0.325740 -0.511380
O44   O     O_R   0.331960 0.078120 0.669410 -0.546027
O45   O     O_R   0.446360 0.919990 0.675230 -0.508243
O46   O     O_R   0.668040 0.078120 0.330590 -0.546234
O47   O     O_R   0.831960 0.578120 0.669410 -0.546027
O48   O     O_R   0.168040 0.578120 0.330590 -0.546234
O49   O     O_3   0.709414 0.904518 0.595305 -0.641227
O50   O     O_3   0.292312 0.901067 0.407208 -0.642792
O51   O     O_3   0.209413 0.404518 0.595305 -0.641228
O52   O     O_3   0.792312 0.401067 0.407207 -0.642792
O53   O     O_3   0.371866 0.545445 0.075100 -0.583365
O54   O     O_3   0.626740 0.543705 0.928488 -0.573579
O55   O     O_3   0.871866 0.045456 0.075101 -0.583368
O56   O     O_R   0.553640 0.919990 0.324770 -0.511887
O57   O     O_3   0.126744 0.043681 0.928491 -0.573573
O58   O     O_R   0.946360 0.419990 0.675230 -0.508243
O59   O     O_R   0.053640 0.419990 0.324770 -0.511887
O60   O     O_R   0.457170 0.717300 0.668380 -0.533204

loop_
_geom_bond_atom_site_label_1
_geom_bond_atom_site_label_2
_ccdc_geom_bond_type
C130  O52   S    
C39   H62   S    
C51   H88   S    
C87   O25   A    
C77   H46   S    
C48   H81   S    
C71   C137  S    
C23   C112  S    
C96   H128  S    
C26   O49   S    
C110  H151  S    
C14   C21   S    
C95   C99   S    
C54   C63   S    
C138  H169  S    
C28   H36   S    
C114  C131  S    
Cr12  O5    S    
C37   H55   S    
Cr1   O14   S    
C109  C127  S    
C103  C120  S    
Cr1   O36   S    
C2    C64   S    
Cr5   O12   S    
C70   C74   S    
C46   H18   S    
Cr3   O7    S    
C14   H122  S    
C69   C135  S    
C40   H64   S    
C70   C136  S    
C117  C139  S    
C38   H58   S    
C118  C140  S    
C137  O34   A    
C35   C134  S    
C31   H44   S    
C21   C90   S    
C45   C47   S    
C81   H103  S    
C59   H170  S    
C72   H28   S    
C144  O42   A    
C79   O21   A    
C32   O51   S    
C17   C21   S    
C84   H111  S    
C97   H129  S    
Cr10  O58   S    
C19   C23   S    
Cr6   O11   S    
C37   C38   S    
C9    O37   A    
C75   H102  S    
C16   C20   S    
C11   O39   A    
C82   H105  S    
C106  H138  S    
C97   H119  S    
C52   H19   S    
C107  H147  S    
Cr3   O3    S    
Cr10  O25   S    
C59   H126  S    
Cr6   O42   S    
C95   H127  S    
C83   C100  S    
Cr3   O29   S    
C119  C141  S    
C61   H13   S    
C72   H99   S    
C53   C71   S    
C48   H83   S    
Cr1   O9    S    
C8    O5    A    
Cr5   O15   S    
Cr11  O26   S    
C45   H77   S    
C1    O14   A    
Cr12  O60   S    
C93   H132  S    
C49   H85   S    
Cr9   O46   S    
C34   H51   S    
C59   C63   S    
Cr1   O40   S    
C60   C64   S    
C89   H112  S    
C88   O30   A    
C32   H47   S    
C132  H7    S    
C16   H124  S    
C29   H39   S    
C91   C94   S    
C13   H10   S    
Cr4   O30   S    
C33   C34   S    
C82   H109  S    
Cr4   O4    S    
C127  C131  S    
C10   O7    A    
C46   H14   S    
C117  H162  S    
C106  C124  S    
Cr6   O38   S    
Cr9   O56   S    
C126  C130  S    
C119  H160  S    
C103  C107  S    
C108  C126  S    
Cr6   O16   S    
C31   H42   S    
C110  C128  S    
Cr4   O35   S    
C10   O38   A    
C9    O6    A    
C84   C102  S    
C69   C77   S    
C11   O8    A    
C139  H175  S    
C54   H23   S    
C19   C123  S    
C113  H155  S    
C135  O12   A    
C64   C68   S    
C62   C80   S    
C36   C37   S    
Cr2   O2    S    
C111  H178  S    
C86   O28   A    
Cr2   O28   S    
C15   C25   S    
C56   H95   S    
C12   C22   S    
C32   H45   S    
C67   C72   S    
C39   O53   S    
C132  O50   S    
C53   H16   S    
C111  H154  S    
C60   H137  S    
C78   H92   S    
C87   O29   A    
C134  O53   S    
C17   H1    S    
C41   H66   S    
C6    C102  S    
C80   H94   S    
C121  C144  S    
Cr9   O10   S    
C122  C143  S    
C113  H179  S    
C92   C97   S    
C28   H37   S    
C115  C132  S    
C42   H70   S    
Cr7   O39   S    
C139  H171  S    
C126  C139  S    
C113  C130  S    
C62   C66   S    
C35   H17   S    
C24   H11   S    
C135  O32   A    
C107  C125  S    
C50   H87   S    
C39   C40   S    
C131  H6    S    
C85   O27   A    
C116  C120  S    
C44   H73   S    
C29   C30   S    
C125  C129  S    
C73   H100  S    
C92   H114  S    
C83   C84   S    
C35   C67   S    
C35   H12   S    
C140  H172  S    
C58   H22   S    
C41   H67   S    
C25   C123  S    
C20   H115  S    
C2    O54   S    
C16   C23   S    
C96   H120  S    
C142  O44   A    
C127  C140  S    
C43   H72   S    
C105  C109  S    
Cr7   O43   S    
C18   C22   S    
C39   H61   S    
Cr6   O23   S    
Cr7   O13   S    
C125  C138  S    
C48   H82   S    
C103  H139  S    
C74   H26   S    
C117  C121  S    
C133  O1    A    
C89   C98   S    
C15   H123  S    
C7    O4    A    
C107  H143  S    
C26   H30   S    
C96   C100  S    
C3    O43   A    
C105  C122  S    
C140  H176  S    
C61   C65   S    
C13   C65   S    
C55   C73   S    
C113  C121  S    
C49   C50   S    
C4    C99   S    
C91   C99   S    
C12   H121  S    
C129  H4    S    
C6    O58   A    
Cr9   O24   S    
C20   C25   S    
C4    O60   A    
C88   O26   A    
C82   C99   S    
C29   O50   S    
C38   H59   S    
C31   H43   S    
C15   C19   S    
C26   C27   S    
C22   C101  S    
Cr4   O8    S    
C44   H75   S    
C114  H180  S    
Cr10  O47   S    
C30   C31   S    
C144  O47   A    
Cr8   O18   S    
C74   H101  S    
Cr3   O11   S    
C81   C98   S    
C94   C98   S    
C18   H93   S    
C119  H164  S    
C77   H90   S    
C25   C88   S    
C79   O17   A    
C20   C112  S    
C111  C129  S    
C30   H40   S    
C62   H159  S    
C12   C17   S    
Cr4   O13   S    
C69   C73   S    
C45   H76   S    
C128  C141  S    
C97   C102  S    
C24   C66   S    
C36   H53   S    
C42   O54   S    
C104  H135  S    
C118  H158  S    
C7    O59   A    
Cr2   O6    S    
C78   H57   S    
Cr2   O32   S    
C109  H145  S    
C21   C85   S    
C123  H168  S    
C56   C74   S    
C7    C100  S    
C8    O36   A    
Cr12  O27   S    
C18   C90   S    
C63   C134  S    
C112  C123  S    
C57   O15   A    
C19   H104  S    
C117  H157  S    
C34   H52   S    
C24   C53   S    
C131  O49   S    
Cr9   O19   S    
C2    C46   S    
C115  H3    S    
C129  O51   S    
C89   C95   S    
C5    O56   A    
C37   H56   S    
C80   H68   S    
C13   C52   S    
C56   C65   S    
C73   H29   S    
C86   O24   A    
C50   C51   S    
C115  H153  S    
C90   H165  S    
C4    O45   A    
C94   H125  S    
C108  H149  S    
C36   O52   S    
C40   H63   S    
C141  H177  S    
C42   C43   S    
Cr2   O10   S    
C104  C108  S    
C47   H80   S    
C115  C124  S    
C133  O31   A    
C51   H89   S    
Cr10  O11   S    
Cr11  O21   S    
C83   H110  S    
C57   C65   S    
C28   H34   S    
C93   C102  S    
C94   H118  S    
C104  H140  S    
C118  H163  S    
C33   H48   S    
Cr1   O1    S    
C95   H117  S    
C32   C33   S    
Cr5   O41   S    
C136  O33   A    
C118  C122  S    
C134  H8    S    
C142  O40   A    
C27   H32   S    
C22   C86   S    
C45   O55   S    
C8    C125  S    
C101  H166  S    
C3    O48   A    
C91   H130  S    
C41   H65   S    
C15   C16   S    
C68   O20   A    
C70   C78   S    
C14   C18   S    
C58   H96   S    
C43   C44   S    
C75   H27   S    
C81   C82   S    
C63   C79   S    
C119  C124  S    
C34   H50   S    
Cr7   O34   S    
C138  H174  S    
Cr12  O9    S    
C61   H148  S    
C67   C133  S    
C60   H2    S    
Cr8   O22   S    
C62   H24   S    
C136  O23   A    
C29   H38   S    
C44   H74   S    
C46   C69   S    
C17   C101  S    
C6    O3    A    
C58   C66   S    
Cr11  O59   S    
Cr10  O20   S    
C92   H133  S    
C84   H107  S    
C24   O57   S    
C47   H78   S    
Cr8   O9    S    
C23   C87   S    
C5    O2    A    
C124  C142  S    
C105  H141  S    
C49   H84   S    
C128  C132  S    
C52   H15   S    
C71   C80   S    
C43   H71   S    
C58   C75   S    
C116  C138  S    
C56   H21   S    
C108  H144  S    
C60   C77   S    
Cr3   O33   S    
Cr8   O44   S    
C103  H134  S    
Cr5   O37   S    
C104  C121  S    
C109  H150  S    
C85   O22   A    
C111  C120  S    
C143  O46   A    
C1    O18   A    
C90   C101  S    
C49   O57   S    
C106  H142  S    
C26   H31   S    
C47   C48   S    
C2    H9    S    
C61   C78   S    
C55   C64   S    
C1    C66   S    
C55   H25   S    
C68   O16   A    
C116  H156  S    
C130  H5    S    
C40   C41   S    
C12   C14   S    
C93   C96   S    
Cr5   O10   S    
C110  H146  S    
Cr12  O31   S    
C54   H97   S    
C10   C127  S    
C57   O19   A    
C92   C100  S    
C106  C110  S    
C42   H69   S    
C38   H60   S    
C91   H113  S    
C116  H161  S    
C112  H167  S    
C89   H131  S    
C27   H33   S    
Cr11  O48   S    
C9    C126  S    
C55   H98   S    
C11   C128  S    
C105  H136  S    
C76   H35   S    
C50   H86   S    
C51   H91   S    
C71   C75   S    
C13   O55   S    
C93   H116  S    
C59   C76   S    
Cr7   O17   S    
C141  H173  S    
C76   H79   S    
C114  H152  S    
Cr8   O45   S    
Cr11  O13   S    
C52   C70   S    
C3    C120  S    
C114  C122  S    
C33   H49   S    
C30   H41   S    
C54   C72   S    
C5    C98   S    
C81   H108  S    
C27   C28   S    
C83   H106  S    
C67   C76   S    
C143  O41   A    
C53   H20   S    
C36   H54   S    
C137  O35   A    
