data_mof_unit_25970.cif
_audit_creation_date              2012-10-26T20:06:15-0400
_audit_creation_method            fapswitch 2.2
_symmetry_space_group_name_H-M    P1
_symmetry_Int_Tables_number       1
_space_group_crystal_system       triclinic
_cell_length_a                    9.546217
_cell_length_b                    10.909303
_cell_length_c                    13.466396
_cell_angle_alpha                 91.513029
_cell_angle_beta                  72.826639
_cell_angle_gamma                 90.027533
_cell_volume                      1339.39260409

loop_
_atom_site_label
_atom_site_type_symbol
_atom_type_description
_atom_site_fract_x
_atom_site_fract_y
_atom_site_fract_z
_atom_type_partial_charge
C1    C     C_R   0.502272 0.737487 0.495822 0.546851
C2    C     C_R   0.374579 0.487619 0.813813 -0.003082
C3    C     C_R   0.639816 0.935223 0.478317 -0.036083
C4    C     C_R   0.421294 0.501523 0.700172 0.528740
C5    C     C_R   0.635868 0.062272 0.493464 -0.038167
C6    C     C_R   0.504368 0.127806 0.501172 -0.007989
C7    C     C_R   0.376074 0.063332 0.504903 -0.133466
C8    C     C_R   0.376440 0.936373 0.503051 -0.140587
C9    C     C_R   0.507122 0.871160 0.490772 -0.010897
C10   C     C_R   0.900988 0.584019 0.559805 0.370159
C11   C     C_R   0.050559 0.583096 0.559738 -0.008220
C12   C     C_R   0.448927 0.469507 0.972543 0.032025
C13   C     C_R   0.096084 0.416723 0.439154 0.356897
C14   C     C_R   0.948878 0.419067 0.439048 0.088464
C15   C     C_R   0.500152 0.262091 0.501648 0.544428
C16   C     C_R   0.578898 0.502342 0.299916 0.537061
C17   C     C_R   0.795741 0.578773 0.023241 0.226773
C18   C     C_R   0.625988 0.511898 0.185798 -0.063823
C19   C     C_R   0.249616 0.418179 0.858147 -0.123427
C20   C     C_R   0.228908 0.366940 0.954537 -0.109035
C21   C     C_R   0.332201 0.383990 0.008569 0.001493
C22   C     C_1   0.882337 0.573768 0.176717 0.300630
C23   C     C_R   0.467499 0.521926 0.874076 0.018851
C24   C     C_1   0.765931 0.120214 0.507660 0.230848
C25   C     C_1   0.325700 0.297672 0.089379 0.188506
C26   C     C_1   0.782180 0.873943 0.445503 0.266303
C27   C     C_R   0.551930 0.501904 0.027107 -0.005763
C28   C     C_R   0.682910 0.564013 0.975339 0.027155
C29   C     C_R   0.691748 0.620764 0.881955 -0.123132
C30   C     C_R   0.580489 0.606397 0.836302 -0.098629
C31   C     C_R   0.522035 0.485907 0.133904 -0.141581
C32   C     C_R   0.766987 0.552502 0.128672 0.013495
Cu1   Cu    Cu3+1 0.359340 0.499980 0.500000 0.967663
Cu2   Cu    Cu3+1 0.640660 0.500020 0.500000 1.042008
H1    H     H_    0.273940 0.110954 0.511776 0.177691
H2    H     H_    0.856860 0.726567 0.653375 0.285081
H3    H     H_    0.284206 0.343137 0.366539 0.382386
H4    H     H_    0.955350 0.597030 0.895899 0.316277
H5    H     H_    0.273925 0.889329 0.510874 0.153582
H6    H     H_    0.088521 0.649084 0.607234 0.105950
H7    H     H_    0.911809 0.354905 0.389678 0.157347
H8    H     H_    0.779807 0.682841 0.846793 0.127574
H9    H     H_    0.412835 0.462481 0.179639 0.168943
H10   H     H_    0.175163 0.393076 0.814018 0.136617
H11   H     H_    0.138208 0.304545 0.982726 0.132420
H12   H     H_    0.584055 0.661100 0.769986 0.180538
N1    N     N_R   0.147940 0.499970 0.499970 -0.263615
N2    N     N_R   0.852060 0.500060 0.499990 -0.230038
N3    N     N_1   0.974950 0.590794 0.214720 -0.256449
N4    N     N_1   0.870111 0.163721 0.520278 -0.281959
N5    N     N_1   0.320393 0.227684 0.153484 -0.248221
N6    N     N_1   0.895949 0.826210 0.418689 -0.245519
O1    O     O_R   0.381250 0.680340 0.500010 -0.514203
O2    O     O_3   0.180763 0.325540 0.377655 -0.687969
O3    O     O_3   0.933368 0.621375 0.970325 -0.694043
O4    O     O_R   0.618820 0.680370 0.500010 -0.441706
O5    O     O_R   0.323240 0.499950 0.650980 -0.513098
O6    O     O_R   0.560810 0.499980 0.650980 -0.464496
O7    O     O_R   0.381180 0.319630 0.499990 -0.512954
O8    O     O_R   0.618750 0.319660 0.499990 -0.506539
O9    O     O_R   0.439190 0.500020 0.349020 -0.522823
O10   O     O_R   0.676760 0.500050 0.349020 -0.506197
O11   O     O_3   0.804051 0.670381 0.617985 -0.679043

loop_
_geom_bond_atom_site_label_1
_geom_bond_atom_site_label_2
_ccdc_geom_bond_type
C4    O5    A    
C2    C4    S    
C25   N5    T    
Cu2   O4    S    
C29   C30   A    
C3    C9    A    
C8    H5    S    
C26   N6    T    
C29   H8    S    
H2    O11   S    
C15   O8    A    
C22   C32   S    
C11   N1    A    
C10   O11   S    
C16   O10   A    
C13   N1    A    
C19   C20   A    
Cu1   Cu2   S    
C2    C19   A    
C1    C9    S    
C7    C8    A    
Cu1   O7    S    
C13   C14   A    
C19   H10   S    
Cu2   O8    S    
C12   C23   A    
C21   C25   S    
C6    C7    A    
C5    C24   S    
C31   H9    S    
C22   N3    T    
H3    O2    S    
C16   O9    A    
C16   C18   S    
C28   C29   A    
C1    O4    A    
Cu1   O5    S    
Cu1   O1    S    
C10   N2    A    
C14   H7    S    
C24   N4    T    
C5    C6    A    
Cu1   N1    S    
C15   O7    A    
C18   C32   A    
C17   O3    S    
C12   C27   A    
C27   C31   A    
C11   H6    S    
C23   C30   A    
Cu2   O10   S    
Cu2   N2    S    
C20   C21   A    
Cu1   O9    S    
C13   O2    S    
C10   C11   A    
C4    O6    A    
C2    C23   A    
Cu2   O6    S    
C17   C32   A    
C1    O1    A    
C14   N2    A    
C18   C31   A    
C3    C5    A    
C6    C15   S    
C17   C28   A    
C7    H1    S    
C12   C21   A    
C30   H12   S    
C3    C26   S    
H4    O3    S    
C20   H11   S    
C8    C9    A    
C27   C28   A    
