data_mof_unit_15534.cif
_audit_creation_date              2012-12-10T18:03:34-0500
_audit_creation_method            fapswitch 2.2
_symmetry_space_group_name_H-M    P1
_symmetry_Int_Tables_number       1
_space_group_crystal_system       triclinic
_cell_length_a                    10.869313
_cell_length_b                    9.683752
_cell_length_c                    19.393713
_cell_angle_alpha                 93.406467
_cell_angle_beta                  94.975034
_cell_angle_gamma                 92.893685
_cell_volume                      2026.83658176

loop_
_atom_site_label
_atom_site_type_symbol
_atom_type_description
_atom_site_fract_x
_atom_site_fract_y
_atom_site_fract_z
_atom_type_partial_charge
C1    C     C_R   0.874678 0.514008 0.496917 -0.156981
C2    C     C_R   0.130855 0.491266 0.517459 -0.116374
C3    C     C_R   0.606949 0.591167 0.972562 -0.075767
C4    C     C_R   0.521478 0.349130 0.025937 -0.081518
C5    C     C_R   0.642110 0.568943 0.042493 -0.088807
C6    C     C_R   0.553418 0.345113 0.956718 -0.081075
C7    C     C_R   0.576070 0.460278 0.071857 -0.053016
C8    C     C_R   0.571407 0.473297 0.927171 -0.015507
C9    C     C_R   0.263631 0.496918 0.506006 0.857916
C10   C     C_R   0.738330 0.504279 0.498797 0.858458
C11   C     C_R   0.509456 0.496024 0.367920 0.904286
C12   C     C_R   0.494663 0.503555 0.632087 0.905258
C13   C     C_R   0.052074 0.374457 0.493452 -0.142964
C14   C     C_R   0.951035 0.628030 0.528875 -0.125234
C15   C     C_R   0.930357 0.397958 0.469202 -0.066155
C16   C     C_R   0.079050 0.613908 0.541179 -0.083583
C17   C     C_R   0.419640 0.413976 0.742266 -0.119657
C18   C     C_R   0.556116 0.605898 0.256612 -0.144621
C19   C     C_R   0.540913 0.353785 0.255224 -0.134804
C20   C     C_R   0.565486 0.611595 0.749763 -0.229160
C21   C     C_R   0.438379 0.412181 0.815179 0.379980
C22   C     C_R   0.542922 0.595222 0.183634 0.378624
C23   C     C_R   0.570368 0.348718 0.185963 0.378497
C24   C     C_R   0.617541 0.572208 0.814097 0.410129
C25   C     C_R   0.544062 0.483826 0.850926 0.027676
C26   C     C_R   0.561330 0.467525 0.147997 0.020343
C27   C     C_R   0.413575 0.063207 0.457726 0.038314
C28   C     C_R   0.575877 0.937490 0.548225 0.051252
C29   C     C_R   0.582067 0.085074 0.543910 0.055514
C30   C     C_R   0.419390 0.915167 0.454968 0.039584
C31   C     C_R   0.489893 0.511660 0.708406 -0.224356
C32   C     C_R   0.534653 0.484833 0.292771 -0.285332
Cu1   Cu    Cu3+1 0.500000 0.640660 0.500000 1.080645
Cu2   Cu    Cu3+1 0.500000 0.359340 0.500000 1.077324
N1    N     N_R   0.500000 0.852070 0.500000 -0.231743
N2    N     N_R   0.500000 0.147930 0.500000 -0.232493
O1    O     O_R   0.319640 0.618740 0.500000 -0.577429
O2    O     O_R   0.680360 0.381260 0.500000 -0.579318
O3    O     O_R   0.680360 0.618740 0.500000 -0.510599
O4    O     O_R   0.319640 0.381260 0.500000 -0.542629
O5    O     O_R   0.500020 0.618830 0.400190 -0.571582
O6    O     O_R   0.499980 0.381170 0.599810 -0.564050
O7    O     O_R   0.499980 0.618830 0.599810 -0.535044
O8    O     O_R   0.500020 0.381170 0.400190 -0.520123
C33   C     C_2   0.307758 0.120264 0.415686 0.855403
O9    O     O_2   0.321388 0.222447 0.383310 -0.568333
O10   O     O_R   0.191243 0.050769 0.409669 -0.727061
H1    H     H_    0.129929 0.092606 0.375582 0.370045
C34   C     C_2   0.649195 0.882550 0.608817 0.860097
O11   O     O_2   0.687780 0.767504 0.606063 -0.583209
O12   O     O_R   0.677933 0.965314 0.670188 -0.758398
H2    H     H_    0.742309 0.925155 0.703088 0.340481
C35   C     C_2   0.682940 0.169817 0.585091 0.939761
O13   O     O_2   0.665638 0.227145 0.640982 -0.565715
O14   O     O_R   0.801499 0.172539 0.562885 -0.743412
H3    H     H_    0.863800 0.229756 0.596292 0.317763
C36   C     C_2   0.337746 0.830210 0.401639 0.934816
O15   O     O_2   0.236180 0.784721 0.414927 -0.523038
O16   O     O_R   0.371341 0.815157 0.333961 -0.800234
H4    H     H_    0.306611 0.759033 0.301652 0.316843
C37   C     C_2   0.081271 0.230373 0.510502 0.933697
O17   O     O_2   0.173223 0.208821 0.548203 -0.561180
O18   O     O_R   0.997217 0.119134 0.488822 -0.657193
H5    H     H_    0.025525 0.027933 0.505465 0.393001
C38   C     C_2   0.904458 0.767407 0.541738 0.946337
O19   O     O_2   0.848100 0.822902 0.494553 -0.496490
O20   O     O_R   0.933497 0.839730 0.606239 -0.776629
H6    H     H_    0.906731 0.938455 0.606892 0.347244
C39   C     C_2   0.877751 0.333277 0.400595 0.965168
O21   O     O_2   0.915908 0.225958 0.376320 -0.557309
O22   O     O_R   0.793461 0.405183 0.359986 -0.758195
H7    H     H_    0.779477 0.363643 0.310679 0.319157
C40   C     C_2   0.158994 0.722894 0.583253 0.958574
O23   O     O_2   0.214952 0.693907 0.637428 -0.551569
O24   O     O_R   0.173063 0.856140 0.560026 -0.724402
H8    H     H_    0.231788 0.919557 0.592596 0.352999
C41   C     C_2   0.316709 0.327535 0.704421 0.925475
O25   O     O_2   0.248837 0.377773 0.660262 -0.597147
O26   O     O_R   0.294070 0.190757 0.721281 -0.694969
H9    H     H_    0.219791 0.143212 0.692570 0.345815
C42   C     C_2   0.614947 0.736868 0.291814 1.019545
O27   O     O_2   0.686516 0.732760 0.343842 -0.526858
O28   O     O_R   0.598153 0.863481 0.262311 -0.716079
H10   H     H_    0.651807 0.941910 0.288014 0.356659
C43   C     C_2   0.519738 0.218299 0.284616 0.986627
O29   O     O_2   0.591011 0.181003 0.331261 -0.586290
O30   O     O_R   0.421846 0.129296 0.254803 -0.720067
H11   H     H_    0.416667 0.038479 0.277809 0.363569
C44   C     C_2   0.539379 0.760093 0.745804 0.945551
O31   O     O_2   0.457895 0.795598 0.704114 -0.526987
O32   O     O_R   0.598997 0.858696 0.794631 -0.735300
H12   H     H_    0.563973 0.953074 0.790381 0.363029
O33   O     O_3   0.352856 0.343468 0.851807 -0.580250
C45   C     C_3   0.248752 0.424727 0.858067 0.072589
H13   H     H_    0.166284 0.365971 0.830944 0.175792
H14   H     H_    0.255946 0.527465 0.834715 0.144473
C46   C     C_3   0.228131 0.449618 0.934685 -0.334678
H15   H     H_    0.213413 0.348379 0.957616 0.245717
H16   H     H_    0.311285 0.505680 0.962546 0.222968
C47   C     C_3   0.115915 0.534849 0.944406 -0.868603
H17   H     H_    0.127873 0.637000 0.921896 0.266873
H18   H     H_    0.105144 0.552232 0.000618 0.262371
H19   H     H_    0.030758 0.478686 0.919211 0.260594
O34   O     O_3   0.525977 0.712804 0.147554 -0.581802
C48   C     C_3   0.397770 0.721597 0.130513 0.041002
H20   H     H_    0.345809 0.715096 0.177482 0.155305
H21   H     H_    0.362526 0.636389 0.091540 0.148070
C49   C     C_3   0.374202 0.860369 0.099656 -0.248739
H22   H     H_    0.412816 0.946248 0.137093 0.283570
H23   H     H_    0.421424 0.867295 0.051351 0.253510
C50   C     C_3   0.235945 0.876635 0.083150 -0.854576
H24   H     H_    0.196096 0.793344 0.044666 0.259184
H25   H     H_    0.220852 0.978069 0.061039 0.284059
H26   H     H_    0.187103 0.872185 0.131047 0.253887
O35   O     O_3   0.597549 0.223879 0.153586 -0.594837
C51   C     C_3   0.726170 0.208938 0.164162 -0.010378
H27   H     H_    0.752540 0.190824 0.219464 0.169556
H28   H     H_    0.779543 0.302500 0.149376 0.165666
C52   C     C_3   0.760050 0.083790 0.119405 -0.234659
H29   H     H_    0.706974 0.989424 0.132852 0.272404
H30   H     H_    0.735107 0.100744 0.063895 0.260275
C53   C     C_3   0.898265 0.061363 0.130211 -0.860569
H31   H     H_    0.953078 0.154844 0.117388 0.249289
H32   H     H_    0.921134 0.972397 0.095841 0.296053
H33   H     H_    0.924343 0.038806 0.184891 0.266907
O36   O     O_3   0.728575 0.632593 0.846097 -0.578363
C54   C     C_3   0.821353 0.641987 0.799076 0.122211
H34   H     H_    0.903556 0.699007 0.827408 0.184331
H35   H     H_    0.793381 0.704459 0.754667 0.158366
C55   C     C_3   0.860125 0.498598 0.773157 -0.416577
H36   H     H_    0.887717 0.437782 0.818166 0.239475
H37   H     H_    0.781243 0.440828 0.742034 0.253772
C56   C     C_3   0.967589 0.511684 0.727787 -0.821586
H38   H     H_    0.940185 0.569053 0.681468 0.274099
H39   H     H_    0.993781 0.406894 0.710090 0.264980
H40   H     H_    0.049178 0.567133 0.757509 0.261895
C57   C     C_2   0.575635 0.732510 0.953302 0.958269
O37   O     O_2   0.637679 0.834733 0.978458 -0.507411
O38   O     O_R   0.468978 0.748777 0.909402 -0.791180
H41   H     H_    0.452981 0.849517 0.902716 0.378298
C58   C     C_2   0.414066 0.259357 0.043769 0.926328
O39   O     O_2   0.380015 0.153843 0.008130 -0.570347
O40   O     O_R   0.344857 0.301473 0.098038 -0.779291
H42   H     H_    0.272991 0.233681 0.104019 0.336559
C59   C     C_2   0.753686 0.645166 0.080247 0.926763
O41   O     O_2   0.817792 0.724436 0.049829 -0.571884
O42   O     O_R   0.792631 0.617450 0.148423 -0.787525
H43   H     H_    0.870588 0.674019 0.167346 0.335937
C60   C     C_2   0.588121 0.215170 0.919873 0.942748
O43   O     O_2   0.574837 0.103583 0.945201 -0.540949
O44   O     O_R   0.648597 0.222787 0.859276 -0.767578
H44   H     H_    0.683476 0.132063 0.844147 0.352163

loop_
_geom_bond_atom_site_label_1
_geom_bond_atom_site_label_2
_ccdc_geom_bond_type
O30   H11   S    
O36   C54   S    
C40   O23   D    
C48   H20   S    
C19   C23   A    
C50   H24   S    
Cu2   O6    S    
O14   H3    S    
C46   H15   S    
C35   O13   D    
C51   H27   S    
C48   H21   S    
C29   N2    A    
Cu1   O3    S    
C7    C26   S    
C21   O33   S    
C30   N1    A    
O28   H10   S    
Cu2   O4    S    
C28   C29   A    
C42   O27   D    
C12   O7    A    
C39   O21   D    
C58   O40   S    
C43   O29   D    
C36   O16   S    
O40   H42   S    
C30   C36   S    
C18   C42   S    
C22   O34   S    
C49   H22   S    
C37   O18   S    
C23   C26   A    
C39   O22   S    
C2    C13   A    
C12   O6    A    
O42   H43   S    
C42   O28   S    
C6    C60   S    
C20   C24   A    
C28   N1    A    
C49   H23   S    
C38   O20   S    
C56   H40   S    
O44   H44   S    
C1    C15   A    
C44   O32   S    
C2    C16   A    
C27   C33   S    
C33   O10   S    
O16   H4    S    
Cu2   O2    S    
C27   C30   A    
C24   O36   S    
C8    C25   S    
C40   O24   S    
C45   H13   S    
C4    C7    A    
C19   C32   A    
C9    O1    A    
O34   C48   S    
C46   H16   S    
C59   O41   D    
C35   O14   S    
C15   C39   S    
C48   C49   S    
C5    C59   S    
C59   O42   S    
C43   O30   S    
O20   H6    S    
Cu1   O7    S    
Cu2   O8    S    
C24   C25   A    
C4    C6    A    
C3    C8    A    
O32   H12   S    
C5    C7    A    
C6    C8    A    
C45   C46   S    
C34   O12   S    
C41   O25   D    
C47   H19   S    
Cu1   O1    S    
O12   H2    S    
C10   O3    A    
C55   H37   S    
O24   H8    S    
C54   H35   S    
C57   O38   S    
C28   C34   S    
O10   H1    S    
O38   H41   S    
C47   H18   S    
Cu1   Cu2   S    
C41   O26   S    
C11   O8    A    
C50   H25   S    
O33   C45   S    
C45   H14   S    
C52   H30   S    
C3    C57   S    
C11   C32   S    
C34   O11   D    
C13   C15   A    
C12   C31   S    
C56   H38   S    
C17   C31   A    
C14   C16   A    
O26   H9    S    
C55   C56   S    
C18   C32   A    
C53   H32   S    
C54   H34   S    
C3    C5    A    
C4    C58   S    
C46   C47   S    
C57   O37   D    
C52   C53   S    
C21   C25   A    
C18   C22   A    
C1    C10   S    
C19   C43   S    
C16   C40   S    
C52   H29   S    
C49   C50   S    
C27   N2    A    
C20   C44   S    
C51   C52   S    
C10   O2    A    
Cu1   O5    S    
C53   H33   S    
C60   O44   S    
C55   H36   S    
C53   H31   S    
C54   C55   S    
O22   H7    S    
C58   O39   D    
C17   C41   S    
C36   O15   D    
C29   C35   S    
C47   H17   S    
Cu1   N1    S    
C14   C38   S    
C51   H28   S    
C11   O5    A    
C50   H26   S    
Cu2   N2    S    
C9    O4    A    
C37   O17   D    
C17   C21   A    
C23   O35   S    
O18   H5    S    
C33   O9    D    
C13   C37   S    
C38   O19   D    
C22   C26   A    
C56   H39   S    
C1    C14   A    
C44   O31   D    
C60   O43   D    
C2    C9    S    
O35   C51   S    
C20   C31   A    
