data_mof_unit_8497.cif
_audit_creation_date              2012-12-11T14:52:21-0500
_audit_creation_method            fapswitch 2.2
_symmetry_space_group_name_H-M    P1
_symmetry_Int_Tables_number       1
_space_group_crystal_system       triclinic
_cell_length_a                    8.252367
_cell_length_b                    15.170013
_cell_length_c                    26.990221
_cell_angle_alpha                 97.441839
_cell_angle_beta                  93.241259
_cell_angle_gamma                 80.29251
_cell_volume                      3300.3498882

loop_
_atom_site_label
_atom_site_type_symbol
_atom_type_description
_atom_site_fract_x
_atom_site_fract_y
_atom_site_fract_z
_atom_type_partial_charge
Ba1   Ba    Ba6+2 0.860900 0.457020 0.523210 1.826680
Ba2   Ba    Ba6+2 0.328940 0.542910 0.476780 1.780718
C1    C     C_3   0.802183 0.152163 0.696998 0.892540
C2    C     C_R   0.852859 0.564659 0.170924 0.584695
C3    C     C_2   0.753404 0.549242 0.273019 -0.090513
C4    C     C_3   0.242005 0.240531 0.654368 0.491387
C5    C     C_3   0.730496 0.586487 0.327364 -0.112717
C6    C     C_1   0.990492 0.491584 0.344603 0.028196
C7    C     C_2   0.036093 0.494447 0.298015 -0.076883
C8    C     C_2   0.908400 0.518087 0.257046 0.187461
C9    C     C_R   0.023018 0.497032 0.100736 -0.079897
C10   C     C_R   0.130495 0.449647 0.134071 -0.037301
C11   C     C_R   0.280102 0.400486 0.116238 -0.039097
C12   C     C_3   0.716485 0.227820 0.667776 0.425869
C13   C     C_R   0.879341 0.551653 0.119001 -0.025679
C14   C     C_2   0.848231 0.534811 0.361652 -0.285479
C15   C     C_2   0.350104 0.481867 0.640330 -0.272206
C16   C     C_3   0.276439 0.196259 0.702229 0.620742
C17   C     C_R   0.260101 0.451262 0.982523 0.025658
C18   C     C_R   0.973817 0.516636 0.962796 0.018738
C19   C     C_R   0.135960 0.482045 0.947233 0.064209
C20   C     C_R   0.423437 0.426941 0.966441 -0.087893
C21   C     C_R   0.461992 0.431387 0.917153 -0.061004
C22   C     C_R   0.338478 0.456444 0.881270 -0.036051
C23   C     C_3   0.518440 0.689665 0.629305 0.833804
C24   C     C_R   0.174507 0.478977 0.896006 -0.073002
C25   C     C_R   0.049109 0.498899 0.859656 -0.037164
C26   C     C_R   0.088589 0.490835 0.808674 0.693122
C27   C     C_R   0.376005 0.461139 0.831204 0.634560
C28   C     C_3   0.189181 0.246803 0.399695 1.174121
C29   C     C_2   0.412121 0.413309 0.720665 -0.154780
C30   C     C_3   0.446531 0.406366 0.665712 -0.112306
C31   C     C_1   0.215845 0.529897 0.660017 0.024584
C32   C     C_2   0.199045 0.544330 0.709780 0.369684
C33   C     C_2   0.290375 0.475648 0.741989 0.146894
C34   C     C_3   0.559773 0.716341 0.684131 -0.190984
C35   C     C_R   0.217090 0.447456 0.032678 0.019245
C36   C     C_R   0.060330 0.491065 0.049217 0.057872
C37   C     C_R   0.941049 0.529636 0.014818 0.021019
C38   C     C_R   0.324626 0.401406 0.067043 -0.093049
C39   C     C_R   0.766915 0.594635 0.085166 -0.044350
C40   C     C_3   0.095802 0.168970 0.379794 0.387555
C41   C     C_R   0.850283 0.536920 0.925612 -0.100506
C42   C     C_R   0.886714 0.526036 0.875042 0.001375
C43   C     C_R   0.794554 0.581704 0.033991 -0.102861
C44   C     C_R   0.747359 0.765251 0.474180 -0.276511
C45   C     C_3   0.960767 0.752929 0.342604 0.346700
C46   C     C_R   0.840001 0.825283 0.459539 -0.050556
C47   C     C_R   0.783937 0.918338 0.468256 -0.030859
C48   C     C_R   0.629806 0.953102 0.490517 0.018100
C49   C     C_R   0.543676 0.889324 0.506810 -0.108724
C50   C     C_R   0.606047 0.797357 0.500628 0.036657
C51   C     C_R   0.419560 0.086851 0.527685 -0.138380
C52   C     C_3   0.969943 0.729763 0.578681 0.372526
C53   C     C_R   0.353428 0.178622 0.534033 0.060470
C54   C     C_R   0.578687 0.211124 0.490296 0.045773
C55   C     C_R   0.636113 0.118689 0.478933 0.597228
C56   C     C_3   0.968457 0.773127 0.289178 -0.293799
C57   C     C_R   0.563467 0.053674 0.499696 -0.046395
C58   C     C_R   0.438828 0.240601 0.517975 -0.284417
C59   C     C_3   0.930125 0.831432 0.592262 -0.300351
C60   C     C_3   0.700857 0.345788 0.374802 0.352454
C61   C     C_3   0.694640 0.325727 0.318045 0.548663
C62   C     C_3   0.483468 0.759354 0.319069 0.215257
C63   C     C_3   0.378863 0.839954 0.298404 0.302482
C64   C     C_R   0.085252 0.451496 0.184300 0.613815
F1    F     F_    0.954660 0.116767 0.678272 -0.676134
F2    F     F_    0.808216 0.250504 0.302794 -0.669653
F3    F     F_    0.356081 0.678716 0.624171 -0.723913
F4    F     F_    0.752602 0.094726 0.444164 -0.651631
F5    F     F_    0.348138 0.107102 0.691240 -0.642560
F6    F     F_    0.356283 0.216180 0.399589 -0.678079
F7    F     F_    0.144382 0.280980 0.447775 -0.730842
H1    H     H_    0.708929 0.201815 0.627361 -0.081392
H2    H     H_    0.609371 0.406772 0.385624 -0.018880
H3    H     H_    0.723054 0.383714 0.301087 -0.081306
H4    H     H_    0.569607 0.313489 0.304711 0.078492
H5    H     H_    0.591535 0.245703 0.682215 -0.174025
H6    H     H_    0.726993 0.097200 0.692186 -0.009718
H7    H     H_    0.598729 0.625011 0.617057 -0.012299
H8    H     H_    0.475547 0.778152 0.698731 0.169130
H9    H     H_    0.547983 0.660909 0.706175 0.111452
H10   H     H_    0.687633 0.730417 0.688150 0.097117
H11   H     H_    0.360317 0.231708 0.727852 -0.042819
H12   H     H_    0.103598 0.156509 0.338424 0.083303
H13   H     H_    0.997304 0.679291 0.342888 0.003966
H14   H     H_    0.832006 0.774561 0.354577 -0.022782
H15   H     H_    0.089548 0.742240 0.273823 0.106675
H16   H     H_    0.871498 0.743910 0.265570 0.130779
H17   H     H_    0.948937 0.847052 0.287900 0.182220
H18   H     H_    0.581488 0.732027 0.292004 0.046004
H19   H     H_    0.538477 0.782811 0.356056 0.000310
H20   H     H_    0.287461 0.873755 0.326080 0.111911
H21   H     H_    0.180980 0.311386 0.663841 -0.104989
H22   H     H_    0.313098 0.817119 0.263323 0.045627
H23   H     H_    0.964137 0.188671 0.388263 0.064452
H24   H     H_    0.165268 0.487684 0.290853 0.156212
H25   H     H_    0.365833 0.362789 0.140746 0.134247
H26   H     H_    0.479166 0.362042 0.741791 0.163969
H27   H     H_    0.589550 0.413502 0.907013 0.119396
H28   H     H_    0.525150 0.407809 0.991891 0.074310
H29   H     H_    0.441884 0.362537 0.056196 0.084032
H30   H     H_    0.647647 0.558058 0.247456 0.135506
H31   H     H_    0.654671 0.637280 0.098082 0.135041
H32   H     H_    0.722793 0.558488 0.934544 0.079687
H33   H     H_    0.361637 0.238917 0.637178 -0.244929
H34   H     H_    0.859723 0.703190 0.562550 -0.094508
H35   H     H_    0.787192 0.541561 0.848026 0.171371
H36   H     H_    0.702538 0.616967 0.010412 0.086503
H37   H     H_    0.831665 0.552325 0.401519 0.068390
H38   H     H_    0.397068 0.497974 0.606350 0.099000
H39   H     H_    0.351816 0.043694 0.543763 0.113165
H40   H     H_    0.868364 0.960660 0.460081 0.203853
H41   H     H_    0.431602 0.908483 0.526714 0.098186
H42   H     H_    0.390266 0.311834 0.524128 0.091525
H43   H     H_    0.161217 0.199946 0.721913 0.128142
H44   H     H_    0.794156 0.693739 0.469755 0.047589
H45   H     H_    0.067383 0.714593 0.550932 0.079008
H46   H     H_    0.398735 0.971656 0.404247 0.349840
H47   H     H_    0.648869 0.243553 0.820729 0.371442
H48   H     H_    0.681533 0.919300 0.228858 0.376263
H49   H     H_    0.899784 0.730356 0.764372 0.368457
H50   H     H_    0.823544 0.848679 0.617050 0.132578
H51   H     H_    0.900487 0.865551 0.558423 0.024815
H52   H     H_    0.038019 0.856897 0.611974 0.181320
H53   H     H_    0.825161 0.358462 0.387582 -0.104369
N1    N     N_R   0.948437 0.510515 0.203487 -0.423192
N2    N     N_R   0.251447 0.476115 0.794696 -0.414223
O1    O     O_2   0.905540 0.548000 0.618290 -0.475507
O2    O     O_2   0.181451 0.821064 0.466300 -0.459392
O3    O     O_3   0.069246 0.798817 0.373848 -0.534923
O4    O     O_3   0.137550 0.547930 0.558110 -0.495248
O5    O     O_3   0.574690 0.391440 0.474610 -0.510144
O6    O     O_2   0.341330 0.720570 0.525000 -0.428101
O7    O     O_3   0.543094 0.758722 0.602190 -0.662212
O8    O     O_2   0.437791 0.519194 0.325585 -0.505111
O9    O     O_3   0.385929 0.693587 0.324268 -0.595480
O10   O     O_2   0.167529 0.399534 0.210429 -0.572414
O11   O     O_2   0.519990 0.453238 0.820471 -0.572375
O12   O     O_3   0.665192 0.271253 0.395164 -0.525621
O13   O     O_2   0.747131 0.626490 0.186961 -0.592537
O14   O     O_2   0.977543 0.496469 0.776762 -0.513814
O15   O     O_3   0.688580 0.383890 0.587540 -0.509228
O16   O     O_2   0.740765 0.479014 0.674886 -0.420335
O17   O     O_3   0.022152 0.692211 0.622477 -0.519073
O18   O     O_3   0.799850 0.302573 0.674602 -0.552097
O19   O     O_2   0.848360 0.279400 0.474970 -0.413912
O20   O     O_3   0.104690 0.337720 0.562900 -0.478451
O21   O     O_2   0.009919 0.180078 0.532544 -0.395232
O22   O     O_2   0.133079 0.068123 0.456557 -0.289195
O23   O     O_3   0.137469 0.193880 0.622201 -0.537475
O24   O     O_2   0.080400 0.994048 0.373059 -0.259029
O25   O     O_3   0.372411 0.033587 0.394836 -0.428126
O26   O     O_2   0.923427 0.115090 0.787941 -0.213900
O27   O     O_2   0.900763 0.271994 0.771479 -0.295866
O28   O     O_3   0.632621 0.212277 0.786699 -0.538928
O29   O     O_2   0.396165 0.005377 0.275810 -0.194343
O30   O     O_2   0.624071 0.935194 0.327470 -0.264437
O31   O     O_3   0.608101 0.875495 0.232767 -0.512307
O32   O     O_2   0.209301 0.666389 0.791380 -0.292290
O33   O     O_2   0.180252 0.724339 0.710621 -0.241447
O34   O     O_2   0.284150 0.451970 0.381680 -0.450880
O35   O     O_3   0.927380 0.671718 0.743332 -0.498487
O36   O     O_3   0.052160 0.451990 0.441880 -0.460584
O37   O     O_3   0.501140 0.616030 0.412450 -0.466110
O38   O     O_3   0.151988 0.310169 0.365321 -0.665667
O39   O     O_3   0.615020 0.608480 0.525380 -0.496285
O40   O     O_3   0.085020 0.662210 0.437090 -0.508192
P1    P     P_3+3 0.070480 0.574800 0.610950 1.133578
P2    P     P_3+3 0.668430 0.292880 0.460530 1.166687
P3    P     P_3+3 0.151453 0.220876 0.561821 1.127284
P4    P     P_3+3 0.119230 0.425130 0.389040 1.081639
P5    P     P_3+3 0.044659 0.778771 0.435108 1.023586
P6    P     P_3+3 0.669585 0.393961 0.652253 1.043925
P7    P     P_3+3 0.528243 0.722360 0.538104 1.003901
P8    P     P_3+3 0.514302 0.602578 0.347256 0.955701
S1    S     S_3+6 0.169248 0.063468 0.402492 -0.002231
S2    S     S_3+6 0.820696 0.189065 0.762612 -0.009982
S3    S     S_3+6 0.504268 0.918270 0.284614 -0.031992
S4    S     S_3+6 0.132835 0.655075 0.739534 -0.027526

loop_
_geom_bond_atom_site_label_1
_geom_bond_atom_site_label_2
_ccdc_geom_bond_type
C47   H40   S    
C19   C24   A    
C3    H30   S    
O38   P4    S    
C23   H7    S    
C51   C53   A    
C32   S4    S    
O30   S3    D    
Ba1   O4    S    
C1    H6    S    
Ba2   O34   S    
O8    P8    D    
C51   C57   A    
C14   H37   S    
C54   C55   A    
O37   P8    S    
C24   C25   A    
Ba2   O6    S    
C20   H28   S    
C52   H34   S    
C59   H51   S    
C40   H23   S    
C48   C57   S    
C12   H1    S    
O1    P1    D    
C17   C19   A    
C1    S2    S    
C22   C24   A    
C32   C33   S    
C35   C38   A    
Ba1   O1    S    
C41   H32   S    
C36   C37   A    
C43   H36   S    
C55   C57   A    
C61   H3    S    
Ba1   O39   S    
C34   H10   S    
C44   C50   A    
Ba1   P2    S    
H47   O28   S    
O20   P3    S    
O23   P3    S    
C64   N1    Am   
Ba1   Ba2   S    
O29   S3    D    
C11   H25   S    
C22   C27   A    
O32   S4    D    
C11   C38   A    
C17   C35   A    
C9    C13   A    
C25   C42   A    
Ba1   O36   S    
C34   H9    S    
C6    C7    D    
C4    H21   S    
Ba2   O4    S    
C21   C22   A    
C29   H26   S    
C55   F4    S    
C7    C8    S    
O19   P2    D    
C37   C43   A    
C63   H20   S    
C21   H27   S    
C31   P1    S    
H46   O25   S    
C53   C58   A    
C15   C31   D    
C27   O11   D    
C15   H38   S    
C53   P3    S    
C48   C49   A    
O17   P1    S    
C62   O9    S    
C42   H35   S    
O2    P5    D    
O40   P5    S    
C4    C16   S    
O25   S1    S    
Ba1   O5    S    
C49   H41   S    
O6    P7    D    
C49   C50   A    
Ba2   O5    S    
C45   H13   S    
C17   C20   A    
C28   O38   S    
O9    P8    S    
C16   H43   S    
C2    O13   D    
C60   H53   S    
C28   F7    S    
C63   S3    S    
C30   P6    S    
O3    P5    S    
H49   O35   S    
C54   C58   A    
C44   H44   S    
C45   O3    S    
O7    P7    S    
C9    C36   A    
O5    P2    S    
C35   C36   A    
Ba1   O15   S    
C16   H11   S    
C29   C30   S    
C64   O10   D    
C34   H8    S    
C5    P8    S    
C60   C61   S    
C31   C32   D    
C4    H33   S    
O34   P4    D    
C40   H12   S    
C18   C19   A    
O33   S4    D    
C56   H17   S    
C50   P7    S    
C13   C39   A    
C1    C12   S    
O22   S1    D    
C4    O23   S    
C51   H39   S    
C5    C14   S    
O28   S2    S    
C52   O17   S    
C41   C42   A    
C29   C33   D    
C60   H2    S    
Ba1   O19   S    
C23   F3    S    
O4    P1    S    
C62   H19   S    
Ba2   O36   S    
C8    N1    S    
C52   H45   S    
Ba2   O40   S    
C25   C26   A    
C18   C41   A    
C3    C5    S    
C46   P5    S    
C61   H4    S    
C16   F5    S    
C18   C37   A    
C61   F2    S    
C46   C47   A    
C7    H24   S    
C2    N1    Am   
C54   P2    S    
O21   P3    D    
C20   C21   A    
C1    F1    S    
O31   S3    S    
C58   H42   S    
C56   H15   S    
C28   F6    S    
C9    C10   A    
O27   S2    D    
O12   P2    S    
C52   C59   S    
C12   O18   S    
O15   P6    S    
C39   H31   S    
C59   H50   S    
C62   C63   S    
C2    C13   A    
O26   S2    D    
O24   S1    D    
C3    C8    D    
C45   C56   S    
C10   C64   A    
O18   P6    S    
Ba1   P1    S    
O39   P7    S    
C12   H5    S    
C33   N2    S    
C23   O7    S    
C56   H16   S    
O36   P4    S    
C23   C34   S    
C38   H29   S    
C44   C46   A    
C6    P4    S    
C63   H22   S    
C26   O14   D    
C10   C11   A    
C6    C14   D    
C47   C48   A    
H48   O31   S    
C27   N2    Am   
O16   P6    D    
O35   S4    S    
C15   C30   S    
C39   C43   A    
Ba2   O37   S    
C28   C40   S    
Ba1   O20   S    
C59   H52   S    
C40   S1    S    
C62   H18   S    
C60   O12   S    
Ba2   O39   S    
C26   N2    Am   
Ba2   P4    S    
C45   H14   S    
