data_mof_unit_15026.cif
_audit_creation_date              2012-12-11T17:43:55-0500
_audit_creation_method            fapswitch 2.2
_symmetry_space_group_name_H-M    P1
_symmetry_Int_Tables_number       1
_space_group_crystal_system       triclinic
_cell_length_a                    20.217983
_cell_length_b                    22.802196
_cell_length_c                    6.939928
_cell_angle_alpha                 89.999905
_cell_angle_beta                  87.217808
_cell_angle_gamma                 89.999893
_cell_volume                      3195.63558955

loop_
_atom_site_label
_atom_site_type_symbol
_atom_type_description
_atom_site_fract_x
_atom_site_fract_y
_atom_site_fract_z
_atom_type_partial_charge
O1    O     O_R   0.751270 0.447300 0.600030 -0.503403
O2    O     O_R   0.248730 0.947300 0.399970 -0.503406
O3    O     O_R   0.613530 0.440160 0.952150 -0.535924
O4    O     O_R   0.386470 0.940160 0.047850 -0.535923
O5    O     O_R   0.613050 0.552700 0.122560 -0.549248
O6    O     O_R   0.386950 0.052700 0.877440 -0.549248
C1    C     C_R   0.591828 0.425235 0.786598 0.769854
C2    C     C_R   0.408172 0.925235 0.213402 0.769859
O7    O     O_R   0.750780 0.440350 0.929820 -0.519405
O8    O     O_R   0.249220 0.940350 0.070180 -0.519405
O9    O     O_R   0.751280 0.552900 0.100070 -0.552374
O10   O     O_R   0.248720 0.052900 0.899930 -0.552374
C3    C     C_R   0.773526 0.425902 0.758116 0.875761
C4    C     C_R   0.226474 0.925902 0.241884 0.875774
O11   O     O_R   0.613040 0.447100 0.622520 -0.527850
O12   O     O_R   0.386960 0.947100 0.377480 -0.527853
O13   O     O_3   0.682160 0.536920 0.777780 -0.396297
O14   O     O_3   0.317840 0.036920 0.222220 -0.396296
V1    V     V_3+5 0.682160 0.493150 0.052630 1.569467
V2    V     V_3+5 0.317840 0.993150 0.947370 1.569460
O15   O     O_R   0.750790 0.559840 0.429870 -0.537597
O16   O     O_R   0.249210 0.059840 0.570130 -0.537594
C5    C     C_R   0.774027 0.573710 0.258111 0.773665
C6    C     C_R   0.225973 0.073709 0.741889 0.773661
O17   O     O_R   0.613540 0.559650 0.452200 -0.549076
O18   O     O_R   0.386460 0.059650 0.547800 -0.549075
C7    C     C_R   0.591484 0.574179 0.286537 0.655303
C8    C     C_R   0.408515 0.074179 0.713463 0.655303
V3    V     V_3+5 0.682160 0.506850 0.552630 1.551313
V4    V     V_3+5 0.317840 0.006850 0.447370 1.551309
O19   O     O_3   0.682150 0.463080 0.277610 -0.333484
O20   O     O_3   0.317850 0.963080 0.722390 -0.333489
C9    C     C_R   0.576317 0.857347 0.137790 -0.138964
C10   C     C_R   0.423686 0.357345 0.862256 -0.138966
H1    H     H_    0.534164 0.942165 0.096740 0.126610
H2    H     H_    0.465840 0.442162 0.903306 0.126608
H3    H     H_    0.668542 0.775550 0.151810 0.139663
H4    H     H_    0.331461 0.275547 0.848261 0.139664
H5    H     H_    0.625521 0.872294 0.092294 0.139394
H6    H     H_    0.374483 0.372291 0.907775 0.139393
C11   C     C_R   0.461329 0.880800 0.211720 -0.093304
C12   C     C_R   0.538671 0.380800 0.788283 -0.093302
C13   C     C_R   0.471845 0.593614 0.299041 -0.177052
C14   C     C_R   0.528155 0.093616 0.700924 -0.177053
C15   C     C_R   0.417561 0.630195 0.280681 -0.109265
C16   C     C_R   0.582439 0.130196 0.719269 -0.109263
C17   C     C_R   0.426243 0.690393 0.256000 -0.062184
C18   C     C_R   0.573757 0.190394 0.743962 -0.062184
C19   C     C_R   0.489672 0.716317 0.258243 0.083819
C20   C     C_R   0.510327 0.216318 0.741749 0.083820
C21   C     C_R   0.545602 0.677769 0.260225 0.061458
C22   C     C_R   0.454397 0.177769 0.739784 0.061459
C23   C     C_R   0.499811 0.778533 0.239597 0.002795
C24   C     C_R   0.500189 0.278533 0.760406 0.002799
C25   C     C_R   0.564937 0.798540 0.187511 0.091511
C26   C     C_R   0.435065 0.298538 0.812521 0.091512
C27   C     C_R   0.618690 0.759891 0.185591 -0.158047
C28   C     C_R   0.381312 0.259889 0.814457 -0.158046
C29   C     C_R   0.609526 0.700912 0.228581 -0.182556
C30   C     C_R   0.390475 0.200911 0.771456 -0.182558
C31   C     C_R   0.449104 0.822158 0.270292 0.312644
C32   C     C_R   0.550894 0.322159 0.729696 0.312638
C33   C     C_R   0.524470 0.897352 0.141880 -0.234682
C34   C     C_R   0.475532 0.397350 0.858153 -0.234672
C35   C     C_R   0.536066 0.616364 0.284969 -0.078239
C36   C     C_R   0.463934 0.116364 0.715027 -0.078239
H7    H     H_    0.463864 0.546859 0.316070 0.114572
H8    H     H_    0.536136 0.046861 0.683884 0.114574
H9    H     H_    0.382945 0.715124 0.222559 0.198079
H10   H     H_    0.617056 0.215125 0.777388 0.198075
H11   H     H_    0.368316 0.611547 0.280553 0.149756
H12   H     H_    0.631684 0.111550 0.719373 0.149758
H13   H     H_    0.652907 0.673041 0.227765 0.102969
H14   H     H_    0.347094 0.173039 0.772285 0.102972
C37   C     C_R   0.171167 0.882584 0.255374 -0.250867
C38   C     C_R   0.828835 0.382585 0.744627 -0.250868
C39   C     C_R   0.170936 0.833675 0.129509 0.322372
C40   C     C_R   0.829068 0.333677 0.870499 0.322377
C41   C     C_R   0.115519 0.796014 0.126413 0.182351
C42   C     C_R   0.884487 0.296020 0.873604 0.182349
C43   C     C_R   0.059990 0.805675 0.257223 0.252721
C44   C     C_R   0.940015 0.305680 0.742789 0.252732
C45   C     C_R   0.061498 0.853642 0.382707 -0.242017
C46   C     C_R   0.938506 0.353645 0.617300 -0.242025
C47   C     C_R   0.115809 0.891628 0.383774 0.309031
C48   C     C_R   0.884193 0.391630 0.616229 0.309051
C49   C     C_R   0.898528 0.691080 0.384030 0.396725
C50   C     C_R   0.101474 0.191083 0.615976 0.396728
C51   C     C_R   0.842322 0.654879 0.391401 -0.238831
C52   C     C_R   0.157680 0.154882 0.608607 -0.238831
C53   C     C_R   0.945523 0.687123 0.225899 0.279308
C54   C     C_R   0.054475 0.187122 0.774097 0.279305
N1    N     N_2   0.999848 0.772345 0.260779 -0.190803
N2    N     N_2   0.000156 0.272347 0.739233 -0.190827
N3    N     N_2   0.006192 0.719432 0.217820 -0.226258
N4    N     N_2   0.993807 0.219433 0.782174 -0.226257
C55   C     C_R   0.831100 0.614736 0.242928 -0.171077
C56   C     C_R   0.168899 0.114735 0.757071 -0.171077
H15   H     H_    0.807644 0.657692 0.515083 0.173819
H16   H     H_    0.192361 0.157698 0.484934 0.173817
H17   H     H_    0.019055 0.862010 0.480238 0.214957
H18   H     H_    0.980949 0.362014 0.519768 0.214948
C57   C     C_R   0.877307 0.611277 0.085934 -0.184970
C58   C     C_R   0.122687 0.111272 0.914054 -0.184948
C59   C     C_R   0.934487 0.646063 0.079168 0.370814
C60   C     C_R   0.065508 0.146058 0.920817 0.370785
H19   H     H_    0.870365 0.579824 0.971626 0.185569
H20   H     H_    0.129627 0.079815 0.028353 0.185569
Cl1   Cl    Cl    0.909960 0.737360 0.583019 -0.593250
Cl2   Cl    Cl    0.090046 0.237368 0.416998 -0.593303
Cl3   Cl    Cl    0.110077 0.952203 0.541694 -0.602406
Cl4   Cl    Cl    0.889923 0.452203 0.458301 -0.602416
N5    N     N_2   0.115831 0.751633 0.982232 -0.464768
H21   H     H_    0.108251 0.709311 0.029848 0.317895
C61   C     C_3   0.082228 0.767281 0.810332 -0.287963
H22   H     H_    0.089618 0.732218 0.700418 0.230194
H23   H     H_    0.102932 0.808746 0.748898 0.197238
H24   H     H_    0.028329 0.772794 0.844145 0.232586
N6    N     N_2   0.884181 0.251647 0.017813 -0.464770
H25   H     H_    0.891739 0.209321 0.970218 0.317900
C62   C     C_3   0.917817 0.267294 0.189661 -0.287935
H26   H     H_    0.910390 0.232258 0.299655 0.230174
H27   H     H_    0.897170 0.308791 0.251026 0.197191
H28   H     H_    0.971720 0.272749 0.155794 0.232644
Cl5   Cl    Cl    0.992733 0.636195 0.885423 -0.559978
Cl6   Cl    Cl    0.007257 0.136185 0.114547 -0.559983
Cl7   Cl    Cl    0.240882 0.817319 0.975271 -0.524321
Cl8   Cl    Cl    0.759121 0.317319 0.024737 -0.524292
Cl9   Cl    Cl    0.375093 0.808994 0.411173 -0.607742
Cl10  Cl    Cl    0.624898 0.308997 0.588782 -0.607739

loop_
_geom_bond_atom_site_label_1
_geom_bond_atom_site_label_2
_ccdc_geom_bond_type
C9    C25   A    
C19   C23   A    
C10   C26   A    
C44   N2    S    
C49   C53   A    
C15   H11   S    
C46   H18   S    
C53   C59   A    
C14   C36   A    
C11   C31   A    
O4    C2    A    
V1    O19   S    
C58   C60   A    
C17   C19   A    
O9    V1    S    
C9    H5    S    
C51   H15   S    
C6    C56   S    
C38   C40   A    
O16   C6    A    
C46   C48   A    
O3    C1    A    
C40   C42   A    
C27   C29   A    
C28   C30   A    
C61   H22   S    
C54   N4    S    
O13   V3    S    
C21   C35   A    
C1    C12   S    
C30   H14   S    
C52   H16   S    
O7    C3    A    
C17   H9    S    
C62   H28   S    
C22   C30   A    
O5    C7    A    
C23   C31   A    
O7    V1    S    
O6    C8    A    
C50   C54   A    
O8    V2    S    
C19   C21   A    
C20   C22   A    
O3    V1    S    
O14   V4    S    
C45   H17   S    
C12   C32   A    
C16   H12   S    
C39   Cl7   S    
C31   Cl9   S    
C50   Cl2   S    
C2    O12   A    
C15   C17   A    
C42   N6    S    
C40   Cl8   S    
N1    N3    D    
H4    C28   S    
V3    O19   S    
C10   C34   A    
C43   C45   A    
C14   C16   A    
O11   V3    S    
C16   C18   A    
C23   C25   A    
O15   C5    A    
O17   V3    S    
C24   C26   A    
C9    C33   A    
C2    C11   S    
C42   C44   A    
O8    C4    A    
C41   C43   A    
C1    O11   A    
C24   C32   A    
C61   H23   S    
O15   V3    S    
C51   C55   A    
C8    C36   S    
C7    C35   S    
C43   N1    S    
C3    C38   S    
C13   C35   A    
C61   H24   S    
O10   V2    S    
O1    V3    S    
C39   C41   A    
C57   C59   A    
C20   C24   A    
N2    N4    D    
C18   C20   A    
C37   C39   A    
C62   H26   S    
C55   C57   A    
N6    C62   S    
C49   Cl1   S    
C54   C60   A    
C45   C47   A    
C50   C52   A    
O18   V4    S    
C44   C46   A    
C25   C27   A    
C10   H6    S    
C14   H8    S    
O1    C3    A    
C11   C33   A    
C12   C34   A    
C58   H20   S    
C22   C36   A    
C37   C47   A    
N5    H21   S    
V2    O20   S    
C60   Cl6   S    
O16   V4    S    
C5    C55   S    
C18   H10   S    
C47   Cl3   S    
C57   H19   S    
N6    H25   S    
O5    V1    S    
O17   C7    A    
O6    V2    S    
O10   C6    A    
O18   C8    A    
C32   Cl10  S    
C59   Cl5   S    
O2    V4    S    
C4    C37   S    
C41   N5    S    
C13   C15   A    
V4    O20   S    
C56   C58   A    
O9    C5    A    
O13   V1    S    
C26   C28   A    
O14   V2    S    
C29   H13   S    
O2    C4    A    
C62   H27   S    
C53   N3    S    
O4    V2    S    
C48   Cl4   S    
C21   C29   A    
C13   H7    S    
C38   C48   A    
C49   C51   A    
H1    C33   S    
H2    C34   S    
O12   V4    S    
C52   C56   A    
H3    C27   S    
N5    C61   S    
