data_mof_unit_53728.cif
_audit_creation_date              2013-03-05T16:10:48-0500
_audit_creation_method            fapswitch 2.2
_symmetry_space_group_name_H-M    P1
_symmetry_Int_Tables_number       1
_space_group_crystal_system       triclinic
_cell_length_a                    22.38629
_cell_length_b                    7.096045
_cell_length_c                    19.415333
_cell_angle_alpha                 89.998412
_cell_angle_beta                  99.596676
_cell_angle_gamma                 89.998696
_cell_volume                      3041.04439258

loop_
_atom_site_label
_atom_site_type_symbol
_atom_site_description
_atom_site_fract_x
_atom_site_fract_y
_atom_site_fract_z
_atom_type_partial_charge
O1    O     O_R   0.443980 0.494320 0.557430 -0.585531
O2    O     O_R   0.556020 0.994320 0.442570 -0.585529
O3    O     O_R   0.441210 0.822520 0.414610 -0.589000
O4    O     O_R   0.558790 0.322520 0.585390 -0.588991
C1    C     C_R   0.426643 0.655368 0.388804 0.951956
C2    C     C_R   0.573357 0.155359 0.611196 0.951956
O5    O     O_R   0.436920 0.823940 0.555180 -0.572332
O6    O     O_R   0.563080 0.323940 0.444820 -0.572332
O7    O     O_R   0.551700 0.995760 0.584140 -0.586862
O8    O     O_R   0.448300 0.495760 0.415860 -0.586853
C3    C     C_R   0.421622 0.655462 0.574875 0.950958
C4    C     C_R   0.578378 0.155462 0.425125 0.950956
O9    O     O_3   0.537660 0.661290 0.509340 -0.274628
O10   O     O_3   0.462340 0.161290 0.490660 -0.274631
V1    V     V_3+5 0.493010 0.935560 0.498270 1.205476
V2    V     V_3+5 0.506990 0.435560 0.501730 1.205477
H1    H     H_    0.681711 0.848436 0.261480 0.184707
H2    H     H_    0.318290 0.348429 0.738521 0.184712
C5    C     C_R   0.754622 0.949898 0.212364 -0.095455
C6    C     C_R   0.245378 0.449892 0.787637 -0.095438
H3    H     H_    0.757418 0.819820 0.183855 0.141636
H4    H     H_    0.242582 0.319810 0.816146 0.141636
C7    C     C_R   0.793879 0.099464 0.205006 0.102497
C8    C     C_R   0.206121 0.599462 0.794994 0.102502
C9    C     C_R   0.789356 0.266166 0.242658 -0.277490
C10   C     C_R   0.210644 0.766169 0.757342 -0.277494
H5    H     H_    0.819507 0.382155 0.236492 0.176547
H6    H     H_    0.180494 0.882161 0.763508 0.176545
C11   C     C_R   0.745855 0.286013 0.287378 0.352403
C12   C     C_R   0.254145 0.786016 0.712623 0.352415
C13   C     C_R   0.706426 0.132813 0.294676 -0.045051
C14   C     C_R   0.293574 0.632814 0.705325 -0.045051
C15   C     C_R   0.711408 0.966528 0.256693 -0.102439
C16   C     C_R   0.288593 0.466523 0.743308 -0.102444
C17   C     C_1   0.838680 0.083079 0.158737 0.041389
C18   C     C_1   0.161320 0.583077 0.841264 0.041395
C19   C     C_1   0.661534 0.140204 0.341324 0.148545
C20   C     C_1   0.338466 0.640205 0.658677 0.148545
C21   C     C_1   0.623848 0.146803 0.379792 -0.220328
C22   C     C_1   0.376152 0.646804 0.620208 -0.220335
C23   C     C_1   0.876345 0.071882 0.120393 -0.273622
C24   C     C_1   0.123656 0.571881 0.879608 -0.273624
C25   C     C_R   0.631363 0.162855 0.804988 0.354326
C26   C     C_R   0.368614 0.663457 0.195019 0.354322
H7    H     H_    0.544566 0.186882 0.738545 0.162285
H8    H     H_    0.455410 0.687482 0.261461 0.162283
H9    H     H_    0.717938 0.174419 0.920233 0.182558
H10   H     H_    0.282023 0.675251 0.079793 0.182558
C27   C     C_R   0.615555 0.147646 0.678252 -0.149158
C28   C     C_R   0.384443 0.647702 0.321747 -0.149176
C29   C     C_R   0.910523 0.042536 0.758979 0.034145
C30   C     C_R   0.089493 0.542183 0.241014 0.034162
C31   C     C_R   0.872881 0.041547 0.694165 -0.123225
C32   C     C_R   0.127141 0.541051 0.305823 -0.123237
C33   C     C_R   0.810571 0.066156 0.688847 -0.194770
C34   C     C_R   0.189445 0.565791 0.311144 -0.194782
C35   C     C_R   0.783361 0.093866 0.748774 0.119082
C36   C     C_R   0.216642 0.593793 0.251224 0.119090
C37   C     C_R   0.822082 0.096567 0.815370 0.094643
C38   C     C_R   0.177913 0.596668 0.184634 0.094655
C39   C     C_R   0.719051 0.117931 0.744682 0.078760
C40   C     C_R   0.280948 0.617988 0.255317 0.078762
C41   C     C_R   0.694805 0.141362 0.807602 -0.014359
C42   C     C_R   0.305179 0.641770 0.192404 -0.014353
C43   C     C_R   0.734379 0.148241 0.871831 -0.126868
C44   C     C_R   0.265596 0.648816 0.128185 -0.126907
C45   C     C_R   0.796430 0.125264 0.875686 -0.213795
C46   C     C_R   0.203551 0.625677 0.124327 -0.213839
C47   C     C_R   0.677917 0.120962 0.680245 -0.228353
C48   C     C_R   0.322089 0.620827 0.319749 -0.228363
C49   C     C_R   0.592899 0.169031 0.740357 -0.248658
C50   C     C_R   0.407084 0.669458 0.259648 -0.248613
C51   C     C_R   0.885832 0.070169 0.820350 -0.232634
C52   C     C_R   0.114169 0.570116 0.179651 -0.232654
H11   H     H_    0.692713 0.105718 0.630529 0.110688
H12   H     H_    0.307304 0.605316 0.369460 0.110702
H13   H     H_    0.785029 0.061557 0.636753 0.132418
H14   H     H_    0.214993 0.561063 0.363232 0.132420
H15   H     H_    0.891894 0.020286 0.646925 0.139785
H16   H     H_    0.108138 0.519565 0.353058 0.139786
H17   H     H_    0.824307 0.130968 0.926887 0.112593
H18   H     H_    0.175667 0.631523 0.073133 0.112656
O11   O     O_R   0.051730 0.724670 0.084120 -0.585841
O12   O     O_R   0.948270 0.224670 0.915880 -0.585831
O13   O     O_R   0.063080 0.393540 0.944820 -0.585380
O14   O     O_R   0.936920 0.893540 0.055180 -0.585389
C53   C     C_R   0.078157 0.562114 0.924861 0.961982
C54   C     C_R   0.921843 0.062114 0.075139 0.961976
O15   O     O_R   0.058800 0.395030 0.085390 -0.585937
O16   O     O_R   0.941200 0.895030 0.914610 -0.585940
O17   O     O_R   0.943980 0.223310 0.057440 -0.584730
O18   O     O_R   0.056020 0.723310 0.942560 -0.584748
C55   C     C_R   0.072909 0.563469 0.111292 0.930211
C56   C     C_R   0.927091 0.063478 0.888708 0.930220
O19   O     O_3   0.962360 0.556290 0.990650 -0.276200
O20   O     O_3   0.037640 0.056290 0.009350 -0.276210
V3    V     V_3+5 0.006980 0.281990 0.001730 1.182713
V4    V     V_3+5 0.993020 0.781990 0.998270 1.182694
N1    N     N_R   0.742910 0.461092 0.324484 0.229746
O21   O     O_R   0.692872 0.516077 0.344031 -0.419432
O22   O     O_R   0.789313 0.574261 0.334282 -0.407264
N2    N     N_R   0.257090 0.961100 0.675516 0.229746
O23   O     O_R   0.307129 0.016088 0.655973 -0.419431
O24   O     O_R   0.210686 0.074271 0.665715 -0.407262
N3    N     N_R   0.604873 0.175326 0.867351 0.234636
O25   O     O_R   0.615993 0.045293 0.915033 -0.362269
O26   O     O_R   0.561063 0.293995 0.870360 -0.343165
N4    N     N_R   0.395090 0.676342 0.132656 0.234632
O27   O     O_R   0.384011 0.546490 0.084904 -0.362214
O28   O     O_R   0.438864 0.795185 0.129711 -0.343222
C57   C     C_1   0.974806 0.014136 0.761369 0.054774
N5    N     N_1   0.026264 0.991339 0.763380 -0.066686
C58   C     C_1   0.025217 0.513615 0.238621 0.054798
N6    N     N_1   0.973766 0.490681 0.236608 -0.066707

loop_
_geom_bond_atom_site_label_1
_geom_bond_atom_site_label_2
_geom_bond_distance
_ccdc_geom_bond_type
C36   C40   1.438745 A    
C44   C46   1.388198 A    
C41   C43   1.404962 A    
H7    C49   1.084107 S    
C31   C33   1.392419 A    
C18   C24   1.216870 T    
C57   N5    1.157428 T    
O1    C3    1.315021 A    
O2    C4    1.315023 A    
C2    O7    1.307182 A    
O19   V4    1.739034 S    
C25   C41   1.420866 A    
C30   C58   1.446162 S    
C26   C42   1.420869 A    
O5    C3    1.317741 A    
N3    O26   1.301327 A    
C8    C18   1.458351 S    
O12   V3    1.985120 S    
H9    C43   1.080936 S    
C5    H3    1.083449 S    
C8    C10   1.403088 A    
C30   C52   1.408295 A    
C33   H13   1.076172 S    
O14   C54   1.318566 A    
C35   C37   1.431744 A    
C36   C38   1.431743 A    
O11   C55   1.314579 A    
C34   H14   1.076162 S    
N4    O27   1.301346 A    
C40   C48   1.424584 A    
C25   N3    1.436988 S    
C35   C39   1.438740 A    
C39   C41   1.426767 A    
C28   C50   1.392163 A    
C40   C42   1.426757 A    
C37   C45   1.402434 A    
C6    C8    1.400369 A    
N4    O28   1.301316 A    
C43   C45   1.388193 A    
O11   V4    1.985091 S    
O20   V4    2.182005 S    
C29   C57   1.446172 S    
C13   C15   1.405719 A    
C47   H11   1.076901 S    
C14   C20   1.461661 S    
C37   C51   1.426577 A    
H8    C50   1.084108 S    
C6    C16   1.402924 A    
O5    V1    1.971665 S    
O6    V2    1.971664 S    
C20   C22   1.217321 T    
C27   C47   1.402963 A    
C53   O18   1.314860 A    
O15   C55   1.314681 A    
C52   C55   1.485982 S    
N2    O23   1.301064 A    
H1    C15   1.083254 S    
C51   C56   1.485969 S    
O14   V4    1.971628 S    
C30   C32   1.392865 A    
O16   C56   1.314696 A    
C32   H16   1.084121 S    
C26   N4    1.436992 S    
C9    C11   1.415615 A    
C32   C34   1.392412 A    
C11   N1    1.443167 S    
O13   C53   1.318562 A    
O18   V4    1.959842 S    
O4    C2    1.307620 A    
C5    C15   1.402922 A    
C13   C19   1.461662 S    
O15   V3    1.999829 S    
C29   C31   1.392870 A    
C14   C16   1.405719 A    
O4    V2    1.999574 S    
C5    C7    1.400370 A    
N1    O21   1.301063 A    
C54   O17   1.314863 A    
O6    C4    1.317746 A    
O20   V3    1.738998 S    
C12   N2    1.443166 S    
O1    V2    1.960014 S    
O12   C56   1.314564 A    
O17   V3    1.959838 S    
N2    O24   1.301655 A    
O2    V1    1.960013 S    
H2    C16   1.083252 S    
N1    O22   1.301655 A    
C6    H4    1.083451 S    
C45   H17   1.082795 S    
C7    C17   1.458352 S    
C33   C35   1.414136 A    
C48   H12   1.076886 S    
C1    C28   1.476604 S    
O3    V1    1.999632 S    
C58   N6    1.157426 T    
C39   C47   1.424582 A    
C23   C54   1.453465 S    
C25   C49   1.399176 A    
C31   H15   1.084127 S    
C29   C51   1.408297 A    
O3    C1    1.307606 A    
O19   V3    2.181954 S    
C10   C12   1.415616 A    
C9    H5    1.083647 S    
N3    O25   1.301344 A    
C10   H6    1.083646 S    
C46   H18   1.082793 S    
C4    C21   1.453714 S    
O7    V1    1.989458 S    
C1    O8    1.307199 A    
C11   C13   1.422218 A    
O8    V2    1.989426 S    
C12   C14   1.422214 A    
C38   C52   1.426575 A    
C34   C36   1.414126 A    
C26   C50   1.399174 A    
C7    C9    1.403087 A    
C2    C27   1.476585 S    
C28   C48   1.402970 A    
C3    C22   1.453715 S    
C17   C23   1.216870 T    
O13   V3    1.971628 S    
C38   C46   1.402413 A    
C19   C21   1.217322 T    
C27   C49   1.392157 A    
O9    V2    1.739310 S    
O10   V1    1.739274 S    
C24   C53   1.453463 S    
H10   C44   1.080908 S    
O16   V4    1.999773 S    
C42   C44   1.404955 A    
