data_mof_unit_22051.cif
_audit_creation_date              2012-12-11T15:21:37-0500
_audit_creation_method            fapswitch 2.2
_symmetry_space_group_name_H-M    P1
_symmetry_Int_Tables_number       1
_space_group_crystal_system       triclinic
_cell_length_a                    19.15119
_cell_length_b                    7.13683
_cell_length_c                    17.712843
_cell_angle_alpha                 89.914083
_cell_angle_beta                  109.141082
_cell_angle_gamma                 90.033959
_cell_volume                      2287.12169293

loop_
_atom_site_label
_atom_site_type_symbol
_atom_type_description
_atom_site_fract_x
_atom_site_fract_y
_atom_site_fract_z
_atom_type_partial_charge
O1    O     O_R   0.562310 0.505770 0.439670 -0.535255
O2    O     O_R   0.437690 0.005770 0.560330 -0.534245
O3    O     O_R   0.411650 0.169150 0.405330 -0.537573
O4    O     O_R   0.588350 0.669150 0.594670 -0.535568
C1    C     C_R   0.384903 0.345403 0.382789 0.634151
C2    C     C_R   0.615321 0.845315 0.617006 0.621318
O5    O     O_R   0.560140 0.175610 0.430010 -0.539809
O6    O     O_R   0.439860 0.675610 0.569990 -0.539740
O7    O     O_R   0.587240 0.012100 0.585200 -0.542739
O8    O     O_R   0.412760 0.512100 0.414800 -0.544982
C3    C     C_R   0.580514 0.344859 0.414734 0.700780
C4    C     C_R   0.419332 0.844722 0.585122 0.697946
O9    O     O_3   0.508720 0.341420 0.550890 -0.369595
O10   O     O_3   0.491280 0.841420 0.449110 -0.371225
V1    V     V_3+5 0.498380 0.063930 0.490560 1.377536
V2    V     V_3+5 0.501620 0.563930 0.509440 1.379675
C5    C     C_R   0.199776 0.016977 0.890458 0.085656
C6    C     C_R   0.800181 0.517107 0.109261 0.085740
C7    C     C_R   0.131545 0.916579 0.866299 -0.150544
C8    C     C_R   0.868193 0.415775 0.133383 -0.150851
C9    C     C_R   0.112170 0.801894 0.796485 0.055968
C10   C     C_R   0.887061 0.299375 0.202819 0.056860
C11   C     C_R   0.161579 0.787387 0.751627 0.084696
C12   C     C_R   0.837481 0.284575 0.247472 0.084482
C13   C     C_R   0.226878 0.897521 0.772802 -0.025941
C14   C     C_R   0.772579 0.396115 0.226565 -0.026387
C15   C     C_R   0.244557 0.016972 0.840035 0.051464
C16   C     C_R   0.755291 0.516762 0.159576 0.051381
C17   C     C_R   0.147035 0.666465 0.684975 -0.177327
C18   C     C_R   0.851472 0.161936 0.313661 -0.176077
C19   C     C_R   0.195873 0.650704 0.642055 -0.197252
C20   C     C_R   0.802508 0.146037 0.356439 -0.198226
C21   C     C_R   0.259739 0.759508 0.661994 0.114308
C22   C     C_R   0.739162 0.256646 0.336944 0.112393
C23   C     C_R   0.275160 0.886793 0.726503 0.031615
C24   C     C_R   0.724292 0.385547 0.272877 0.032313
C25   C     C_R   0.338880 0.002090 0.744459 0.075896
C26   C     C_R   0.661037 0.502352 0.255277 0.076050
C27   C     C_R   0.354144 0.128914 0.809224 0.130647
C28   C     C_R   0.645939 0.629509 0.190486 0.130951
C29   C     C_R   0.307389 0.133461 0.855771 -0.212545
C30   C     C_R   0.692701 0.633976 0.143938 -0.212190
C31   C     C_R   0.308133 0.742636 0.617787 -0.222605
C32   C     C_R   0.690691 0.239844 0.381092 -0.223066
C33   C     C_R   0.370739 0.856256 0.634699 -0.075133
C34   C     C_R   0.628957 0.356253 0.365008 -0.074949
C35   C     C_R   0.385320 0.986882 0.696959 -0.220902
C36   C     C_R   0.614855 0.488167 0.303118 -0.225003
H1    H     H_    0.098225 0.580216 0.664735 0.133122
H2    H     H_    0.899937 0.074432 0.333645 0.133019
H3    H     H_    0.183064 0.553833 0.592257 0.123025
H4    H     H_    0.814878 0.047837 0.405859 0.126120
H5    H     H_    0.296113 0.644264 0.568769 0.107492
H6    H     H_    0.701833 0.139004 0.429354 0.108563
H7    H     H_    0.433894 0.073677 0.708069 0.130125
H8    H     H_    0.566797 0.576587 0.292487 0.130630
H9    H     H_    0.320864 0.232676 0.904318 0.137110
H10   H     H_    0.679419 0.733710 0.095471 0.137141
C37   C     C_3   0.746634 0.007186 0.826940 -0.346579
C38   C     C_3   0.252641 0.515677 0.174375 -0.340317
H11   H     H_    0.739066 0.946006 0.881566 0.136497
H12   H     H_    0.259916 0.464428 0.118113 0.134191
H13   H     H_    0.758255 0.159207 0.838452 0.142710
H14   H     H_    0.239933 0.668055 0.166568 0.144470
C39   C     C_3   0.674277 0.981993 0.754817 -0.367010
C40   C     C_3   0.325889 0.486247 0.245168 -0.380395
H15   H     H_    0.652214 0.122789 0.732049 0.149518
H16   H     H_    0.348826 0.625653 0.268822 0.149413
H17   H     H_    0.631693 0.912727 0.775526 0.132225
H18   H     H_    0.367575 0.417988 0.222844 0.133906
H19   H     H_    0.787849 0.628336 0.846950 0.144679
H20   H     H_    0.215687 0.135809 0.149384 0.144640
H21   H     H_    0.677453 0.606060 0.748625 0.135205
H22   H     H_    0.325050 0.110363 0.249124 0.131180
C41   C     C_3   0.792209 0.698692 0.792607 -0.296525
C42   C     C_3   0.209990 0.199010 0.204364 -0.300023
C43   C     C_3   0.821414 0.997734 0.733998 -0.318452
C44   C     C_3   0.177632 0.485466 0.267199 -0.345138
C45   C     C_3   0.812725 0.910810 0.810577 0.087914
C46   C     C_3   0.187403 0.410295 0.189281 0.092084
H23   H     H_    0.870449 0.935215 0.723817 0.135081
H24   H     H_    0.132338 0.407446 0.279591 0.132382
H25   H     H_    0.833617 0.150079 0.743617 0.113175
H26   H     H_    0.159900 0.634778 0.258926 0.115854
C47   C     C_3   0.687895 0.864103 0.686630 0.097343
C48   C     C_3   0.312834 0.364426 0.312728 0.116050
C49   C     C_3   0.718101 0.672640 0.724143 -0.318695
C50   C     C_3   0.283592 0.173285 0.273328 -0.316178
C51   C     C_3   0.748964 0.970972 0.660976 0.052492
C52   C     C_3   0.251698 0.469367 0.338506 0.056916
H27   H     H_    0.726517 0.115018 0.644544 0.090841
H28   H     H_    0.271760 0.616377 0.351723 0.092537
H29   H     H_    0.836862 0.626064 0.776716 0.140593
H30   H     H_    0.165852 0.119507 0.218648 0.140230
H31   H     H_    0.724424 0.573927 0.678595 0.143774
H32   H     H_    0.276468 0.069738 0.316666 0.147830
O11   O     O_R   0.087220 0.271820 0.085230 -0.543622
O12   O     O_R   0.912780 0.771820 0.914770 -0.543335
O13   O     O_R   0.939860 0.595540 0.069990 -0.547527
O14   O     O_R   0.060140 0.095540 0.930010 -0.547518
C53   C     C_R   0.918487 0.426391 0.084480 0.707738
C54   C     C_R   0.081462 0.926601 0.915449 0.707660
O15   O     O_R   0.088340 0.601930 0.094680 -0.536080
O16   O     O_R   0.911660 0.101930 0.905320 -0.536181
O17   O     O_R   0.062310 0.765410 0.939660 -0.527858
O18   O     O_R   0.937690 0.265410 0.060340 -0.527994
C55   C     C_R   0.115981 0.431349 0.118033 0.647626
C56   C     C_R   0.883986 0.931480 0.882016 0.645655
O19   O     O_3   0.991270 0.429630 0.949130 -0.372913
O20   O     O_3   0.008730 0.929630 0.050870 -0.372896
V3    V     V_3+5 0.001620 0.707150 0.009440 1.353264
V4    V     V_3+5 0.998380 0.207150 0.990560 1.353120
C57   C     C_3   0.227815 0.112056 0.972597 -0.349103
C58   C     C_3   0.293655 0.006684 0.029787 -0.797928
H33   H     H_    0.276430 0.863247 0.040680 0.223788
H34   H     H_    0.340160 0.995658 0.005786 0.235391
H35   H     H_    0.313824 0.081883 0.087763 0.209823
H36   H     H_    0.241930 0.260926 0.966778 0.162377
H37   H     H_    0.186254 0.118597 0.003248 0.184443
C59   C     C_3   0.772503 0.613643 0.027269 -0.349613
C60   C     C_3   0.706575 0.509624 0.969695 -0.798350
H38   H     H_    0.723321 0.365426 0.959379 0.223903
H39   H     H_    0.659582 0.500669 0.993034 0.235252
H40   H     H_    0.687388 0.584542 0.911506 0.209947
H41   H     H_    0.758658 0.762525 0.033326 0.162111
H42   H     H_    0.814120 0.620324 0.996675 0.185484
C61   C     C_3   0.761977 0.898500 0.583439 -0.344152
C62   C     C_3   0.819012 0.741763 0.592533 -0.754112
H43   H     H_    0.875911 0.799860 0.612269 0.207408
H44   H     H_    0.815492 0.631630 0.634814 0.221394
H45   H     H_    0.809874 0.675050 0.533449 0.215150
H46   H     H_    0.708866 0.852749 0.539291 0.166306
H47   H     H_    0.780954 0.018973 0.555340 0.160697
C63   C     C_3   0.240608 0.405114 0.417703 -0.369895
C64   C     C_3   0.216701 0.201753 0.421415 -0.745871
H48   H     H_    0.174086 0.157589 0.365042 0.219864
H49   H     H_    0.265304 0.107247 0.435921 0.215988
H50   H     H_    0.192969 0.186950 0.470531 0.213317
H51   H     H_    0.292631 0.428016 0.468067 0.169074
H52   H     H_    0.198348 0.497687 0.428925 0.170393
C65   C     C_3   0.038287 0.697545 0.769251 -0.362632
C66   C     C_3   0.047401 0.491524 0.795165 -0.645280
H53   H     H_    0.078787 0.411683 0.763333 0.194065
H54   H     H_    0.077520 0.479235 0.860141 0.244205
H55   H     H_    0.992107 0.425733 0.781860 0.196209
H56   H     H_    0.997062 0.763516 0.792502 0.164220
H57   H     H_    0.011791 0.708270 0.703526 0.154562
C67   C     C_3   0.960574 0.193374 0.229875 -0.363299
C68   C     C_3   0.950761 0.988034 0.203220 -0.646941
H58   H     H_    0.918925 0.907992 0.234588 0.194221
H59   H     H_    0.920779 0.977587 0.138162 0.244503
H60   H     H_    0.005822 0.921055 0.216492 0.195892
H61   H     H_    0.002121 0.259247 0.207002 0.164177
H62   H     H_    0.987019 0.202347 0.295660 0.156498
C69   C     C_3   0.419800 0.261530 0.831321 -0.380063
C70   C     C_3   0.404321 0.432103 0.776142 -0.713363
H63   H     H_    0.391658 0.389851 0.712781 0.230907
H64   H     H_    0.356706 0.511732 0.782345 0.234904
H65   H     H_    0.453441 0.525378 0.792850 0.208173
H66   H     H_    0.432335 0.312869 0.893615 0.174282
H67   H     H_    0.470681 0.188254 0.830632 0.167951
C71   C     C_3   0.580276 0.762046 0.168149 -0.380070
C72   C     C_3   0.595939 0.933453 0.222626 -0.714433
H68   H     H_    0.609029 0.892141 0.286199 0.230258
H69   H     H_    0.643330 0.012935 0.215687 0.235165
H70   H     H_    0.546752 0.026471 0.205886 0.208411
H71   H     H_    0.567487 0.812293 0.105606 0.174260
H72   H     H_    0.529479 0.689053 0.169390 0.168133

loop_
_geom_bond_atom_site_label_1
_geom_bond_atom_site_label_2
_ccdc_geom_bond_type
C64   H50   S    
C40   H16   S    
C50   H32   S    
C72   H68   S    
O1    C3    A    
C36   H8    S    
H20   C42   S    
O2    C4    A    
C62   H43   S    
C30   H10   S    
C2    O7    A    
C58   H33   S    
C5    C57   S    
C64   H48   S    
C27   C29   A    
O18   V4    S    
C44   C52   S    
O5    C3    A    
C46   C55   S    
C43   C51   S    
C2    C47   S    
C11   C17   A    
O15   V3    S    
C70   H63   S    
C72   H69   S    
C12   C14   A    
C57   C58   S    
C68   H59   S    
C63   H52   S    
C52   C63   S    
C7    C54   S    
C59   H42   S    
C43   H25   S    
O12   C56   A    
C54   O17   A    
C38   H12   S    
C33   C35   A    
C15   C29   A    
C61   H46   S    
C20   H4    S    
C60   H40   S    
C42   H30   S    
O20   V3    S    
C70   H64   S    
C31   H5    S    
H21   C49   S    
C39   H15   S    
C49   H31   S    
C19   C21   A    
C51   H27   S    
C42   C50   S    
C26   C36   A    
C32   H6    S    
C47   C49   S    
O17   V3    S    
C38   C40   S    
O6    V2    S    
H19   C41   S    
C66   H55   S    
C67   H62   S    
C32   C34   A    
C43   C45   S    
C34   C36   A    
C37   H11   S    
C21   C31   A    
C61   H47   S    
C72   H70   S    
C6    C16   A    
C67   C68   S    
O4    C2    A    
C48   C52   S    
O19   V4    S    
C37   C45   S    
C63   H51   S    
O16   V4    S    
O11   V4    S    
C47   C51   S    
C59   H41   S    
C4    C33   S    
C17   H1    S    
C8    C53   S    
C69   H67   S    
C57   H36   S    
C27   C69   S    
C5    C15   A    
O4    V2    S    
C28   C71   S    
C18   C20   A    
C19   H3    S    
C44   H24   S    
C52   H28   S    
C43   H23   S    
O6    C4    A    
O13   V3    S    
O14   C54   A    
C44   C46   S    
C22   C32   A    
O1    V2    S    
C57   H37   S    
O2    V1    S    
C31   C33   A    
C60   H38   S    
C65   H56   S    
C13   C23   A    
C71   H72   S    
C1    C48   S    
C41   C49   S    
O13   C53   A    
C10   C67   S    
O14   V4    S    
C9    C11   A    
C10   C12   A    
C68   H60   S    
C25   C35   A    
C67   H61   S    
C5    C7    A    
C61   C62   S    
C62   H45   S    
C6    C59   S    
O16   C56   A    
C66   H54   S    
O3    V1    S    
C59   C60   S    
C41   H29   S    
C35   H7    S    
C71   C72   S    
C51   C61   S    
C14   C24   A    
C53   O18   A    
C64   H49   S    
C38   C46   S    
O12   V3    S    
C23   C25   A    
C69   H66   S    
O10   V1    S    
C37   H13   S    
C70   H65   S    
C42   C46   S    
C8    C10   A    
C28   C30   A    
O3    C1    A    
C62   H44   S    
C40   C48   S    
C6    C8    A    
C58   H34   S    
C39   C47   S    
C63   C64   S    
C13   C15   A    
C14   C16   A    
C38   H14   S    
C24   C26   A    
O7    V1    S    
C29   H9    S    
C1    O8    A    
C17   C19   A    
O8    V2    S    
C65   C66   S    
C37   C39   S    
C26   C28   A    
C40   H18   S    
C39   H17   S    
O5    V1    S    
C16   C30   A    
C21   C23   A    
C22   C24   A    
C45   C56   S    
C48   C50   S    
C11   C13   A    
C18   H2    S    
C12   C18   A    
C60   H39   S    
C58   H35   S    
C65   H57   S    
C9    C65   S    
C71   H71   S    
O11   C55   A    
C44   H26   S    
C25   C27   A    
O9    V2    S    
C69   C70   S    
C66   H53   S    
C3    C34   S    
O15   C55   A    
H22   C50   S    
C68   H58   S    
C41   C45   S    
C20   C22   A    
C7    C9    A    
