data_mof_unit_61258.cif
_audit_creation_date              2012-12-10T19:52:06-0500
_audit_creation_method            fapswitch 2.2
_symmetry_space_group_name_H-M    P1
_symmetry_Int_Tables_number       1
_space_group_crystal_system       triclinic
_cell_length_a                    26.024626
_cell_length_b                    26.031389
_cell_length_c                    22.207386
_cell_angle_alpha                 90.001324
_cell_angle_beta                  125.949511
_cell_angle_gamma                 90.002045
_cell_volume                      12179.0864839

loop_
_atom_site_label
_atom_site_type_symbol
_atom_type_description
_atom_site_fract_x
_atom_site_fract_y
_atom_site_fract_z
_atom_type_partial_charge
C1    C     C_R   0.650280 0.749963 0.300586 0.827047
C2    C     C_3   0.496953 0.796210 0.024806 -0.154849
C3    C     C_R   0.262228 0.525915 0.457713 0.099678
C4    C     C_R   0.749610 0.945535 0.500458 -0.072666
C5    C     C_R   0.749610 0.054465 0.500457 -0.072771
C6    C     C_R   0.249515 0.445535 0.500346 -0.070368
C7    C     C_R   0.249517 0.554465 0.500347 -0.070438
C8    C     C_R   0.737444 0.972994 0.545742 -0.218368
C9    C     C_R   0.737444 0.027006 0.545742 -0.218288
C10   C     C_R   0.236052 0.472995 0.544455 -0.211150
C11   C     C_R   0.236052 0.527006 0.544456 -0.211097
C12   C     C_3   0.776724 0.029595 0.402214 -0.435237
C13   C     C_3   0.994076 0.704963 0.024793 -0.156876
C14   C     C_3   0.776724 0.970403 0.402214 -0.435227
C15   C     C_3   0.279799 0.529599 0.404973 -0.412573
C16   C     C_3   0.279795 0.470403 0.404968 -0.414767
C17   C     C_R   0.609643 0.750148 0.499679 0.852686
C18   C     C_R   0.609648 0.249864 0.499696 0.850154
C19   C     C_R   0.109919 0.250074 0.499845 0.831639
C20   C     C_R   0.109921 0.749925 0.499846 0.831621
C21   C     C_R   0.749977 0.889967 0.500051 0.798046
C22   C     C_R   0.749978 0.110033 0.500051 0.798297
C23   C     C_R   0.249989 0.389967 0.500055 0.800845
C24   C     C_3   0.996388 0.295901 0.024810 -0.156411
C25   C     C_R   0.249990 0.610033 0.500056 0.800941
C26   C     C_R   0.750325 0.609792 0.498555 0.888343
C27   C     C_R   0.750366 0.390197 0.498567 0.888886
C28   C     C_R   0.249896 0.109919 0.501415 0.889365
C29   C     C_R   0.249899 0.890080 0.501416 0.889256
C30   C     C_R   0.695084 0.526357 0.455594 0.042759
C31   C     C_R   0.695293 0.473543 0.455804 -0.036924
C32   C     C_R   0.211329 0.026536 0.438005 -0.058584
C33   C     C_R   0.211332 0.973459 0.438005 -0.058639
C34   C     C_R   0.751561 0.554150 0.490747 -0.263013
C35   C     C_3   0.939325 0.743333 0.975132 -0.155738
C36   C     C_R   0.751711 0.445829 0.490896 -0.252958
C37   C     C_R   0.250995 0.054110 0.503731 -0.220530
C38   C     C_R   0.251002 0.945890 0.503731 -0.220528
C39   C     C_R   0.807587 0.527164 0.512903 0.331218
C40   C     C_R   0.807660 0.472864 0.512985 0.334368
C41   C     C_R   0.294684 0.027042 0.570477 0.331769
C42   C     C_R   0.294688 0.972964 0.570477 0.331751
C43   C     C_3   0.939731 0.259089 0.975136 -0.156412
C44   C     C_3   0.439566 0.241759 0.975132 -0.156092
C45   C     C_3   0.439857 0.759779 0.975134 -0.156337
C46   C     C_1   0.889482 0.749952 0.778932 -0.127171
C47   C     C_1   0.889486 0.250051 0.778932 -0.127410
C48   C     C_1   0.389463 0.249903 0.778926 -0.115935
C49   C     C_R   0.650281 0.250035 0.300586 0.827156
C50   C     C_1   0.389467 0.750100 0.778926 -0.115864
C51   C     C_1   0.610510 0.250052 0.221089 -0.117108
C52   C     C_1   0.610507 0.749944 0.221088 -0.115664
C53   C     C_1   0.110507 0.750094 0.221095 -0.123765
C54   C     C_1   0.110505 0.249902 0.221094 -0.123271
C55   C     C_3   0.017601 0.711655 0.975363 -0.150139
C56   C     C_3   0.019512 0.286788 0.975376 -0.149815
C57   C     C_3   0.518757 0.212455 0.975348 -0.141408
C58   C     C_3   0.519955 0.786530 0.975359 -0.141261
C59   C     C_3   0.963503 0.750025 0.927006 0.189019
C60   C     C_R   0.150279 0.249957 0.300588 0.811287
C61   C     C_3   0.963508 0.249977 0.927006 0.188949
C62   C     C_3   0.463510 0.249904 0.926996 0.185611
C63   C     C_3   0.463513 0.750098 0.926996 0.185445
C64   C     C_3   0.560444 0.258128 0.024893 -0.149093
C65   C     C_3   0.560157 0.740336 0.024890 -0.149223
C66   C     C_3   0.060659 0.756795 0.024913 -0.154651
C67   C     C_3   0.060259 0.240782 0.024910 -0.154815
C68   C     C_3   0.536499 0.249983 0.073026 0.185450
C69   C     C_3   0.536499 0.750015 0.073026 0.185148
C70   C     C_3   0.036479 0.750102 0.073036 0.189325
C71   C     C_R   0.150280 0.750041 0.300588 0.810935
C72   C     C_3   0.036480 0.249896 0.073036 0.189248
C73   C     C_3   0.005907 0.795167 0.975250 -0.165812
C74   C     C_3   0.003601 0.203969 0.975234 -0.165543
C75   C     C_3   0.504544 0.295577 0.975233 -0.167201
C76   C     C_3   0.503061 0.703905 0.975219 -0.167038
C77   C     C_R   0.849694 0.749963 0.699423 0.820176
C78   C     C_R   0.849696 0.250038 0.699424 0.819857
C79   C     C_R   0.349685 0.249950 0.699421 0.831869
C80   C     C_R   0.349687 0.750051 0.699422 0.831960
C81   C     C_3   0.481252 0.287432 0.024674 -0.161266
C82   C     C_3   0.640736 0.470504 0.461361 -0.036596
C83   C     C_3   0.480058 0.713585 0.024662 -0.160886
C84   C     C_3   0.982384 0.788474 0.024685 -0.156860
C85   C     C_3   0.980478 0.213083 0.024672 -0.156797
C86   C     C_1   0.922918 0.749976 0.845799 -0.070144
C87   C     C_1   0.922923 0.250027 0.845800 -0.070244
C88   C     C_1   0.422908 0.249887 0.845792 -0.061183
C89   C     C_1   0.422913 0.750117 0.845792 -0.061031
C90   C     C_1   0.577082 0.250031 0.154226 -0.062170
C91   C     C_1   0.577080 0.749966 0.154225 -0.061465
C92   C     C_1   0.077068 0.750115 0.154233 -0.067148
C93   C     C_3   0.640444 0.529382 0.460993 -0.078862
C94   C     C_1   0.077067 0.249881 0.154233 -0.066804
C95   C     C_R   0.499310 0.722066 0.446218 -0.064932
C96   C     C_R   0.498818 0.277148 0.445283 -0.075858
C97   C     C_R   0.002698 0.218766 0.453646 -0.037185
C98   C     C_R   0.002702 0.781232 0.453649 -0.037181
C99   C     C_R   0.551714 0.753128 0.495442 -0.021865
C100  C     C_R   0.551735 0.246859 0.495499 -0.021525
C101  C     C_R   0.054165 0.250941 0.499430 -0.052126
C102  C     C_R   0.054166 0.749058 0.499431 -0.052117
C103  C     C_R   0.545966 0.789441 0.538155 -0.203557
C104  C     C_3   0.140656 0.970599 0.381519 -0.025725
C105  C     C_R   0.546498 0.211125 0.539230 -0.202295
C106  C     C_R   0.050111 0.284876 0.546129 -0.193923
C107  C     C_R   0.050108 0.715125 0.546127 -0.193937
C108  C     C_R   0.492236 0.789590 0.538178 -0.191005
C109  C     C_R   0.492753 0.210934 0.539216 -0.191103
C110  C     C_R   0.996163 0.284921 0.546199 -0.174490
C111  C     C_R   0.996158 0.715081 0.546195 -0.174416
C112  C     C_R   0.443561 0.753403 0.495511 -0.073984
C113  C     C_R   0.443527 0.246489 0.495470 -0.072221
C114  C     C_R   0.945298 0.251027 0.499571 -0.047162
C115  C     C_3   0.140653 0.029384 0.381519 -0.025793
C116  C     C_R   0.945297 0.748974 0.499570 -0.047112
C117  C     C_R   0.446339 0.722181 0.446418 0.012625
C118  C     C_R   0.445813 0.276955 0.445401 0.010552
C119  C     C_R   0.950698 0.218890 0.453636 -0.024757
C120  C     C_R   0.950702 0.781109 0.453638 -0.024771
C121  C     C_3   0.434956 0.665817 0.431670 0.200872
C122  C     C_3   0.433228 0.333006 0.428480 0.199699
C123  C     C_3   0.918306 0.176511 0.398111 0.203096
C124  C     C_3   0.918315 0.823485 0.398116 0.203097
C125  C     C_R   0.889928 0.749869 0.499928 0.828918
C126  C     C_3   0.495467 0.204310 0.024793 -0.155229
C127  C     C_R   0.889929 0.250131 0.499929 0.828910
C128  C     C_R   0.389996 0.249755 0.499774 0.800022
C129  C     C_R   0.390012 0.750223 0.499797 0.800077
C130  C     C_3   0.493259 0.665397 0.430428 0.369086
C131  C     C_3   0.491616 0.333527 0.427393 0.381126
C132  C     C_3   0.977597 0.176376 0.397474 0.379370
C133  C     C_3   0.977606 0.823620 0.397480 0.379329
C134  C     C_R   0.761143 0.974086 0.456772 0.111819
C135  C     C_R   0.761143 0.025913 0.456772 0.111794
C136  C     C_R   0.262226 0.474085 0.457711 0.100170
Cl1   Cl    Cl    0.877899 0.559860 0.540135 -0.509016
Cl2   Cl    Cl    0.554672 0.372468 0.499765 -0.640685
Cl3   Cl    Cl    0.023334 0.118662 0.434030 -0.591693
Cl4   Cl    Cl    0.023349 0.881335 0.434040 -0.591695
Cl5   Cl    Cl    0.878038 0.440226 0.540362 -0.509668
Cl6   Cl    Cl    0.345109 0.059772 0.656259 -0.504552
Cl7   Cl    Cl    0.345120 0.940241 0.656257 -0.504486
Cl8   Cl    Cl    0.360072 0.652984 0.345077 -0.575778
Cl9   Cl    Cl    0.358143 0.344140 0.341343 -0.572642
Cl10  Cl    Cl    0.845818 0.197715 0.314288 -0.565626
Cl11  Cl    Cl    0.845824 0.802277 0.314292 -0.565346
Cl12  Cl    Cl    0.557278 0.627874 0.504126 -0.665431
H1    H     H_    0.583952 0.816229 0.573963 0.173439
H2    H     H_    0.439238 0.354970 0.475197 0.138127
H3    H     H_    0.912901 0.141481 0.422561 0.141698
H4    H     H_    0.912914 0.858516 0.422569 0.141684
H5    H     H_    0.727980 0.953033 0.581064 0.179871
H6    H     H_    0.727980 0.046969 0.581063 0.179890
H7    H     H_    0.225583 0.453031 0.578868 0.181683
H8    H     H_    0.225584 0.546971 0.578869 0.181685
H9    H     H_    0.737342 0.046681 0.348509 0.217444
H10   H     H_    0.737342 0.953311 0.348509 0.217423
H11   H     H_    0.241258 0.546698 0.350771 0.222652
H12   H     H_    0.584893 0.184876 0.575870 0.173338
H13   H     H_    0.241251 0.453304 0.350764 0.222582
H14   H     H_    0.824368 0.046665 0.427067 0.218994
H15   H     H_    0.824368 0.953337 0.427067 0.219000
H16   H     H_    0.327670 0.546663 0.431290 0.231061
H17   H     H_    0.327663 0.453339 0.431281 0.230022
H18   H     H_    0.653443 0.453382 0.514401 0.183807
H19   H     H_    0.652724 0.547312 0.513439 0.179294
H20   H     H_    0.115548 0.953643 0.403630 0.206165
H21   H     H_    0.115544 0.046336 0.403631 0.206147
H22   H     H_    0.888953 0.737801 0.953634 0.145479
H23   H     H_    0.088476 0.311127 0.582851 0.178815
H24   H     H_    0.889690 0.266613 0.953640 0.145231
H25   H     H_    0.389380 0.235032 0.953640 0.145040
H26   H     H_    0.389909 0.767769 0.953643 0.145177
H27   H     H_    0.492265 0.166813 0.046206 0.145614
H28   H     H_    0.494970 0.834132 0.046230 0.145874
H29   H     H_    0.989741 0.667904 0.046201 0.143658
H30   H     H_    0.993950 0.333669 0.046230 0.143831
H31   H     H_    0.466371 0.318235 0.045991 0.144694
H32   H     H_    0.464193 0.683617 0.045970 0.145375
H33   H     H_    0.968447 0.820033 0.046009 0.147736
H34   H     H_    0.088469 0.688875 0.582847 0.178819
H35   H     H_    0.964974 0.182803 0.045985 0.147957
H36   H     H_    0.010245 0.832226 0.953848 0.141154
H37   H     H_    0.006041 0.166200 0.953819 0.141276
H38   H     H_    0.507749 0.333073 0.953824 0.143269
H39   H     H_    0.505047 0.665982 0.953799 0.143398
H40   H     H_    0.610634 0.264851 0.046394 0.154789
H41   H     H_    0.610108 0.732349 0.046389 0.154533
H42   H     H_    0.111033 0.762327 0.046419 0.146352
H43   H     H_    0.110302 0.233259 0.046414 0.146154
H44   H     H_    0.031548 0.680094 0.954054 0.148368
H45   H     H_    0.490261 0.816446 0.574017 0.181561
H46   H     H_    0.035027 0.317070 0.954077 0.148405
H47   H     H_    0.533639 0.181650 0.954034 0.156193
H48   H     H_    0.535820 0.816500 0.954053 0.156007
H49   H     H_    0.447262 0.680235 0.318067 0.207102
H50   H     H_    0.521157 0.658468 0.361696 0.205612
H51   H     H_    0.445963 0.316825 0.315595 0.202600
H52   H     H_    0.519507 0.339188 0.358494 0.204513
H53   H     H_    0.950194 0.230418 0.315057 0.194460
H54   H     H_    0.007962 0.190661 0.332133 0.224412
H55   H     H_    0.950198 0.769573 0.315060 0.194504
H56   H     H_    0.491206 0.184606 0.575882 0.181417
H57   H     H_    0.007969 0.809333 0.332137 0.224451
H58   H     H_    0.590426 0.407603 0.399728 0.240364
H59   H     H_    0.580003 0.458214 0.347231 0.215347
H60   H     H_    0.546392 0.547576 0.397893 0.262084
H61   H     H_    0.591882 0.590780 0.393822 0.237260
H62   H     H_    0.120430 0.907484 0.316300 0.214637
H63   H     H_    0.156044 0.954299 0.301585 0.189884
H64   H     H_    0.120422 0.092497 0.316302 0.214667
H65   H     H_    0.156039 0.045688 0.301584 0.189942
H66   H     H_    0.994654 0.311193 0.582948 0.193222
H67   H     H_    0.994646 0.688810 0.582943 0.193231
H68   H     H_    0.441524 0.644676 0.479265 0.138076
N1    N     N_3   0.479454 0.653494 0.357700 -0.392570
N2    N     N_3   0.477720 0.344192 0.354310 -0.375839
N3    N     N_3   0.965266 0.192118 0.326635 -0.376704
N4    N     N_3   0.965273 0.807875 0.326639 -0.376612
N5    N     N_3   0.584072 0.447328 0.395252 -0.362283
N6    N     N_3   0.584206 0.551455 0.393768 -0.401510
N7    N     N_3   0.121755 0.947286 0.311092 -0.403210
N8    N     N_3   0.121750 0.052696 0.311093 -0.403151
O1    O     O_3   0.749980 0.749980 0.500000 -0.499487
O2    O     O_R   0.612630 0.280380 0.456900 -0.640769
O3    O     O_R   0.112630 0.219620 0.456900 -0.628309
O4    O     O_R   0.112630 0.780380 0.456900 -0.628286
O5    O     O_R   0.698160 0.780350 0.335610 -0.606477
O6    O     O_R   0.698160 0.219650 0.335610 -0.605906
O7    O     O_R   0.198160 0.280350 0.335610 -0.610363
O8    O     O_R   0.198160 0.719650 0.335610 -0.611120
O9    O     O_R   0.801810 0.780340 0.664390 -0.636375
O10   O     O_R   0.801810 0.219660 0.664390 -0.636595
O11   O     O_R   0.301810 0.280340 0.664390 -0.641705
O12   O     O_3   0.749980 0.250020 0.500000 -0.498679
O13   O     O_R   0.301810 0.719660 0.664390 -0.641714
O14   O     O_R   0.637440 0.719620 0.335610 -0.652625
O15   O     O_R   0.637440 0.280380 0.335610 -0.654803
O16   O     O_R   0.137440 0.219620 0.335610 -0.658029
O17   O     O_R   0.137440 0.780380 0.335610 -0.657835
O18   O     O_R   0.862520 0.719620 0.664390 -0.630902
O19   O     O_R   0.862520 0.280380 0.664390 -0.630842
O20   O     O_R   0.362520 0.219620 0.664390 -0.610043
O21   O     O_R   0.362520 0.780380 0.664390 -0.609922
O22   O     O_R   0.844240 0.780350 0.456900 -0.612497
O23   O     O_3   0.249980 0.249980 0.500000 -0.500826
O24   O     O_R   0.844240 0.219650 0.456900 -0.612479
O25   O     O_R   0.344240 0.280350 0.456900 -0.606182
O26   O     O_R   0.344240 0.719650 0.456900 -0.605453
O27   O     O_R   0.655730 0.780340 0.543100 -0.654072
O28   O     O_R   0.655730 0.219660 0.543100 -0.653993
O29   O     O_R   0.155730 0.280340 0.543100 -0.651278
O30   O     O_R   0.155730 0.719660 0.543100 -0.651282
O31   O     O_R   0.758800 0.865790 0.456890 -0.641183
O32   O     O_R   0.758800 0.134210 0.456890 -0.641119
O33   O     O_R   0.258800 0.365790 0.456890 -0.632105
O34   O     O_3   0.249980 0.750020 0.500000 -0.500880
O35   O     O_R   0.258800 0.634210 0.456890 -0.631527
O36   O     O_R   0.698070 0.634180 0.456910 -0.652529
O37   O     O_R   0.698070 0.365820 0.456910 -0.657441
O38   O     O_R   0.198070 0.134180 0.456910 -0.647047
O39   O     O_R   0.198070 0.865820 0.456910 -0.647041
O40   O     O_R   0.741170 0.865780 0.543090 -0.651605
O41   O     O_R   0.741170 0.134220 0.543090 -0.651383
O42   O     O_R   0.241170 0.365780 0.543090 -0.650938
O43   O     O_R   0.241170 0.634220 0.543090 -0.650985
O44   O     O_R   0.801880 0.634180 0.543110 -0.584130
O45   O     O_R   0.887330 0.719620 0.543100 -0.635500
O46   O     O_R   0.801880 0.365820 0.543110 -0.584191
O47   O     O_R   0.301880 0.134180 0.543110 -0.594121
O48   O     O_R   0.301880 0.865820 0.543110 -0.594227
O49   O     O_R   0.887330 0.280380 0.543100 -0.635501
O50   O     O_R   0.387330 0.219620 0.543100 -0.650541
O51   O     O_R   0.387330 0.780380 0.543100 -0.650466
O52   O     O_R   0.612630 0.719620 0.456900 -0.640180
Zn1   Zn    Zn3+2 0.824140 0.706600 0.561580 1.030503
Zn2   Zn    Zn3+2 0.737390 0.206640 0.561570 0.969361
Zn3   Zn    Zn3+2 0.237390 0.293360 0.561570 0.975329
Zn4   Zn    Zn3+2 0.237390 0.706640 0.561570 0.975391
Zn5   Zn    Zn3+2 0.675820 0.706600 0.438430 0.974561
Zn6   Zn    Zn3+2 0.675820 0.293400 0.438430 0.969896
Zn7   Zn    Zn3+2 0.175820 0.206600 0.438430 0.981525
Zn8   Zn    Zn3+2 0.175820 0.793400 0.438430 0.981414
Zn9   Zn    Zn3+2 0.824140 0.293400 0.561580 1.030060
Zn10  Zn    Zn3+2 0.324140 0.206600 0.561580 1.023398
Zn11  Zn    Zn3+2 0.324140 0.793400 0.561580 1.023393
Zn12  Zn    Zn3+2 0.762580 0.793360 0.438420 1.011250
Zn13  Zn    Zn3+2 0.762580 0.206640 0.438420 1.011518
Zn14  Zn    Zn3+2 0.262580 0.293360 0.438420 1.010089
Zn15  Zn    Zn3+2 0.262580 0.706640 0.438420 1.010189
Zn16  Zn    Zn3+2 0.737390 0.793360 0.561570 0.969653

loop_
_geom_bond_atom_site_label_1
_geom_bond_atom_site_label_2
_ccdc_geom_bond_type
O34   Zn15  S    
C99   C103  A    
H57   N4    S    
C55   C59   S    
O49   Zn9   S    
O51   Zn11  S    
C83   H32   S    
C14   H10   S    
C68   C81   S    
C111  H67   S    
C95   C99   A    
C13   C70   S    
H58   N5    S    
H52   N2    S    
O40   Zn16  S    
C14   H15   S    
C49   C51   S    
C12   C135  S    
C68   C90   S    
C60   O16   A    
C112  C129  S    
C70   C84   S    
C59   C73   S    
C104  N7    S    
C72   C94   S    
H61   N6    S    
C125  O22   A    
H51   N2    S    
C76   C83   S    
C25   O43   A    
C26   O44   A    
C124  Cl11  S    
C43   C85   S    
C115  N8    S    
H53   N3    S    
C44   C81   S    
C98   C102  A    
C62   C88   S    
O31   Zn12  S    
O2    Zn6   S    
O38   Zn7   S    
O1    Zn16  S    
H63   N7    S    
O9    Zn16  S    
C67   C74   S    
C31   C82   S    
C124  C133  S    
C57   H47   S    
C24   H30   S    
C16   H13   S    
C62   C75   S    
C53   C71   S    
C43   C61   S    
C78   O19   A    
C46   C77   S    
C35   C84   S    
C98   C120  A    
C119  C123  S    
C61   C74   S    
C24   C56   S    
C33   C38   A    
O11   Zn3   S    
C131  Cl2   S    
C55   H44   S    
C30   C31   A    
O23   Zn14  S    
H55   N4    S    
C24   C43   S    
C63   C76   S    
C42   Cl7   S    
C35   H22   S    
C31   C36   A    
C52   C91   T    
C127  O24   A    
O20   Zn10  S    
O10   Zn2   S    
C123  C132  S    
O21   Zn11  S    
C33   C104  S    
O22   Zn12  S    
C121  C130  S    
C49   O15   A    
C72   C85   S    
C66   C70   S    
C95   C117  A    
C132  Cl3   S    
O12   Zn2   S    
C64   C68   S    
C110  H66   S    
C13   C35   S    
C51   C90   T    
H65   N8    S    
C13   H29   S    
O41   Zn2   S    
C105  H12   S    
H60   N6    S    
O43   Zn4   S    
C3    C136  A    
C118  C122  S    
C49   O6    A    
C19   O3    A    
O7    Zn14  S    
C61   C87   S    
C19   O29   A    
C29   C38   S    
C95   C130  S    
O50   Zn10  S    
C2    C69   S    
O12   Zn13  S    
C110  C114  A    
C114  C119  A    
C74   H37   S    
C40   Cl5   S    
C121  Cl8   S    
C45   C83   S    
C127  O49   A    
O32   Zn13  S    
C2    C45   S    
C30   C34   A    
C34   C39   A    
O12   Zn6   S    
C39   C40   A    
O16   Zn7   S    
O39   Zn8   S    
C116  C120  A    
O34   Zn11  S    
C47   C87   T    
C80   O13   A    
C97   C119  A    
C5    C9    A    
C58   C65   S    
C16   H17   S    
C78   O10   A    
C63   C89   S    
O45   Zn1   S    
C102  C107  A    
C32   C37   A    
C128  O25   A    
C8    H5    S    
C64   H40   S    
C96   C131  S    
C56   H46   S    
H59   N5    S    
C116  C125  S    
O34   Zn4   S    
C12   H9    S    
C75   H38   S    
C16   C136  S    
C122  C131  S    
C24   C72   S    
O47   Zn10  S    
C4    C134  A    
H64   N8    S    
C101  C106  A    
C5    C135  A    
C105  C109  A    
C107  C111  A    
C109  H56   S    
C50   C80   S    
C10   H7    S    
C20   O30   A    
C134  C135  A    
O12   Zn9   S    
O42   Zn3   S    
C20   O4    A    
C79   O11   A    
C41   Cl6   S    
C28   C37   S    
C96   C100  A    
C58   H48   S    
C64   C75   S    
C74   C85   S    
C37   C41   A    
C10   C11   A    
C12   H14   S    
C25   O35   A    
C26   O36   A    
O1    Zn1   S    
O34   Zn8   S    
C47   C78   S    
C69   C91   S    
C126  H27   S    
C41   C42   A    
O36   Zn5   S    
C113  C128  S    
O48   Zn11  S    
C98   C133  S    
C65   C76   S    
O24   Zn13  S    
C131  N2    S    
C122  H2    S    
C48   C79   S    
C3    C7    A    
C112  C117  A    
C60   O7    A    
C35   C59   S    
O28   Zn2   S    
O23   Zn7   S    
O29   Zn3   S    
O30   Zn4   S    
O5    Zn12  S    
C48   C88   T    
C111  C116  A    
O1    Zn5   S    
C4    C8    A    
C93   N6    S    
C85   H35   S    
C82   C93   S    
O27   Zn16  S    
O23   Zn10  S    
H49   N1    S    
O15   Zn6   S    
C123  H3    S    
C133  N4    S    
C107  H34   S    
O1    Zn12  S    
C15   H16   S    
C81   H31   S    
C17   O27   A    
C108  C112  A    
O3    Zn7   S    
C15   H11   S    
C21   O31   A    
C104  C115  S    
C50   C89   T    
C123  Cl10  S    
C79   O20   A    
C17   C99   S    
C128  O50   A    
C76   H39   S    
O19   Zn9   S    
C129  O51   A    
H50   N1    S    
O46   Zn9   S    
C55   C66   S    
C82   H18   S    
C129  O26   A    
H62   N7    S    
C70   C92   S    
C97   C132  S    
C6    C10   A    
C2    C58   S    
C38   C42   A    
C27   C36   S    
C7    C25   S    
C32   C33   A    
O14   Zn5   S    
C45   H26   S    
C114  C127  S    
C22   O41   A    
C65   C69   S    
O25   Zn14  S    
O44   Zn1   S    
C32   C115  S    
C1    C52   S    
C103  H1    S    
C133  Cl4   S    
C56   C61   S    
O18   Zn1   S    
C13   C55   S    
C39   Cl1   S    
C106  H23   S    
C115  H21   S    
O8    Zn15  S    
C57   C62   S    
C82   N5    S    
C54   C60   S    
C7    C11   A    
C44   C126  S    
C100  C105  A    
C96   C118  A    
C84   H33   S    
C67   C72   S    
C30   C93   S    
C67   H43   S    
C20   C102  S    
O52   Zn5   S    
C15   C16   S    
C27   O37   A    
C66   H42   S    
C122  Cl9   S    
C28   O38   A    
C117  C121  S    
C6    C136  A    
C21   O40   A    
C2    H28   S    
C26   C34   S    
C5    C22   S    
C18   O28   A    
C8    C9    A    
C71   O8    A    
C103  C108  A    
C18   O2    A    
C73   C84   S    
C22   O32   A    
C109  C113  A    
O4    Zn8   S    
C124  H4    S    
C28   O47   A    
O23   Zn3   S    
C18   C100  S    
O6    Zn13  S    
O33   Zn14  S    
C130  Cl12  S    
C77   O18   A    
C121  H68   S    
C36   C40   A    
O13   Zn4   S    
C44   H25   S    
C71   O17   A    
C57   C126  S    
C73   H36   S    
C75   C81   S    
C14   C134  S    
C44   C62   S    
C66   C73   S    
C45   C63   S    
O26   Zn15  S    
C113  C118  A    
C125  O45   A    
H54   N3    S    
C130  N1    S    
C69   C83   S    
C104  H20   S    
O35   Zn15  S    
C53   C92   T    
C77   O9    A    
C93   H19   S    
C11   H8    S    
C12   C14   S    
C9    H6    S    
C68   C126  S    
C17   O52   A    
C3    C15   S    
C57   C64   S    
C106  C110  A    
C58   C63   S    
C29   O48   A    
C65   H41   S    
C43   H24   S    
C1    O14   A    
C56   C67   S    
C23   O42   A    
C132  N3    S    
C59   C86   S    
C4    C21   S    
C19   C101  S    
C6    C23   S    
C29   O39   A    
C54   C94   T    
O37   Zn6   S    
C1    O5    A    
C27   O46   A    
C23   O33   A    
C80   O21   A    
O17   Zn8   S    
C108  H45   S    
C97   C101  A    
C120  C124  S    
C46   C86   T    
