data_mof_unit_43667.cif
_audit_creation_date              2013-03-05T15:44:35-0500
_audit_creation_method            fapswitch 2.2
_symmetry_space_group_name_H-M    P1
_symmetry_Int_Tables_number       1
_space_group_crystal_system       triclinic
_cell_length_a                    27.798386
_cell_length_b                    10.945579
_cell_length_c                    9.699218
_cell_angle_alpha                 90.225038
_cell_angle_beta                  90.80894
_cell_angle_gamma                 90.53121
_cell_volume                      2950.73026435

loop_
_atom_site_label
_atom_site_type_symbol
_atom_site_description
_atom_site_fract_x
_atom_site_fract_y
_atom_site_fract_z
_atom_type_partial_charge
O1    O     O_R   0.500010 0.321960 0.617040 -0.578067
O2    O     O_R   0.499990 0.321920 0.382900 -0.573080
C1    C     C_R   0.499857 0.265205 0.499247 0.866258
O3    O     O_R   0.430270 0.500040 0.617060 -0.569774
O4    O     O_R   0.430260 0.500000 0.382910 -0.580482
C2    C     C_R   0.407522 0.502323 0.499518 0.798938
Cu1   Cu    Cu3+1 0.500010 0.500020 0.638630 0.940746
Cu2   Cu    Cu3+1 0.499990 0.499980 0.361370 0.933579
O5    O     O_R   0.500010 0.678080 0.617100 -0.582968
O6    O     O_R   0.499990 0.678040 0.382960 -0.561676
O7    O     O_R   0.569740 0.500000 0.617090 -0.574130
O8    O     O_R   0.569730 0.499960 0.382940 -0.585114
C3    C     C_R   0.499389 0.734677 0.499734 0.866286
C4    C     C_R   0.592545 0.499884 0.500810 0.803581
C5    C     C_R   0.176947 0.402704 0.502116 0.534237
O9    O     O_2   0.201210 0.297408 0.518956 -0.543655
N1    N     N_R   0.201549 0.510377 0.486827 -0.461281
C6    C     C_R   0.178021 0.619100 0.471413 0.538483
C7    C     C_R   0.278575 0.575539 0.592412 -0.096772
C8    C     C_R   0.329005 0.575878 0.597674 0.125287
C9    C     C_R   0.328766 0.440622 0.397395 -0.276182
C10   C     C_R   0.278706 0.442845 0.392282 -0.095842
C11   C     C_R   0.253329 0.509773 0.490080 0.307079
C12   C     C_R   0.101477 0.511881 0.490173 -0.084023
C13   C     C_R   0.126642 0.401135 0.502605 -0.004309
C14   C     C_R   0.101052 0.290853 0.514166 -0.152336
C15   C     C_R   0.127063 0.623586 0.475424 -0.035166
C16   C     C_R   0.354516 0.506768 0.498906 -0.043033
H1    H     H_    0.347316 0.384847 0.323367 0.157127
H2    H     H_    0.259557 0.391613 0.312725 0.157422
H3    H     H_    0.119447 0.204046 0.517202 0.184167
C17   C     C_R   0.645566 0.499811 0.502240 -0.041653
C18   C     C_R   0.975242 0.405113 0.548851 0.034706
C19   C     C_R   0.974129 0.610429 0.443746 0.046026
C20   C     C_R   0.949338 0.507190 0.497501 -0.005625
C21   C     C_R   0.949665 0.313485 0.623468 0.157280
C22   C     C_R   0.899342 0.313673 0.622550 -0.149715
C23   C     C_R   0.873522 0.407894 0.560076 -0.053205
C24   C     C_R   0.898440 0.506089 0.499940 -0.055438
C25   C     C_R   0.872323 0.603171 0.442178 -0.053406
C26   C     C_R   0.821842 0.600410 0.445850 0.545597
N2    N     N_R   0.798254 0.503590 0.503913 -0.464591
C27   C     C_R   0.822986 0.408188 0.560551 0.545956
C28   C     C_R   0.721721 0.507849 0.628109 -0.100609
C29   C     C_R   0.671521 0.506875 0.627532 -0.213766
C30   C     C_R   0.670765 0.493051 0.377808 -0.214259
C31   C     C_R   0.720901 0.493726 0.378694 -0.101610
C32   C     C_R   0.746603 0.501480 0.503693 0.350081
O10   O     O_2   0.798734 0.313427 0.616065 -0.540077
C33   C     C_R   0.025465 0.400757 0.523912 0.058611
C34   C     C_R   0.050513 0.510161 0.492799 0.067078
C35   C     C_R   0.024805 0.617531 0.464243 0.001420
C36   C     C_R   0.051213 0.290639 0.523103 -0.222572
H4    H     H_    0.653106 0.512286 0.724978 0.161004
H5    H     H_    0.741334 0.514255 0.725166 0.144741
H6    H     H_    0.880351 0.241728 0.676522 0.193479
O11   O     O_2   0.204198 0.721374 0.450264 -0.546769
C37   C     C_R   0.100570 0.734305 0.468558 0.164871
C38   C     C_R   0.947039 0.700735 0.371379 0.156512
C39   C     C_R   0.896809 0.698441 0.377175 -0.150774
O12   O     O_2   0.796497 0.694009 0.392378 -0.539910
C40   C     C_R   0.050181 0.729053 0.464442 -0.208225
H7    H     H_    0.651804 0.487166 0.279669 0.159750
H8    H     H_    0.876730 0.769432 0.324835 0.193951
H9    H     H_    0.030609 0.813811 0.465720 0.163631
C41   C     C_2   0.489350 0.934132 0.388147 0.180362
C42   C     C_2   0.503162 0.866770 0.497771 -0.359996
H10   H     H_    0.521441 0.909542 0.585492 0.129289
C43   C     C_2   0.502852 0.063719 0.384992 0.177457
C44   C     C_2   0.494160 0.133325 0.496930 -0.366414
C45   C     C_2   0.476706 0.420376 0.920301 -0.077239
N3    N     N_2   0.499480 0.498660 0.846910 -0.298482
H11   H     H_    0.458109 0.345988 0.867151 0.163209
H12   H     H_    0.513381 0.574873 0.896015 0.190019
C46   C     C_2   0.470213 0.434444 0.073581 0.240246
N4    N     N_2   0.499460 0.498630 0.153040 -0.280281
H13   H     H_    0.529976 0.533250 0.108234 0.173079
H14   H     H_    0.258555 0.626576 0.668069 0.146574
C47   C     C_3   0.123937 0.859569 0.467237 -0.740001
H15   H     H_    0.097067 0.934025 0.470253 0.189647
H16   H     H_    0.147741 0.871461 0.559291 0.254572
H17   H     H_    0.144639 0.871878 0.371192 0.263568
C48   C     C_3   0.968687 0.789334 0.269769 -0.879170
H18   H     H_    0.971102 0.882188 0.315953 0.229672
H19   H     H_    0.004395 0.759380 0.233800 0.247619
H20   H     H_    0.945646 0.794469 0.175420 0.238730
H21   H     H_    0.739865 0.488228 0.282133 0.143906
C49   C     C_3   0.460320 0.883273 0.267252 -0.777191
H22   H     H_    0.444997 0.958289 0.204067 0.218018
H23   H     H_    0.483488 0.827924 0.199330 0.240192
H24   H     H_    0.429670 0.827166 0.304482 0.228358
C50   C     C_3   0.526895 0.110900 0.256215 -0.772516
H25   H     H_    0.538052 0.034177 0.188904 0.219839
H26   H     H_    0.501679 0.168098 0.195429 0.237233
H27   H     H_    0.559922 0.163889 0.283986 0.232769
H28   H     H_    0.478971 0.092301 0.588683 0.127797
C51   C     C_3   0.425913 0.374067 0.129714 -0.769502
H29   H     H_    0.399422 0.445709 0.153896 0.235130
H30   H     H_    0.408431 0.312640 0.052196 0.177191
H31   H     H_    0.434082 0.317283 0.220702 0.253531
C52   C     C_3   0.973380 0.225665 0.722720 -0.878766
H32   H     H_    0.952069 0.218209 0.818478 0.238151
H33   H     H_    0.975252 0.133302 0.675526 0.229409
H34   H     H_    0.009581 0.257960 0.756716 0.247931
H35   H     H_    0.033098 0.203063 0.525877 0.161333
C53   C     C_3   0.354332 0.652746 0.706369 -0.816462
H36   H     H_    0.328737 0.710787 0.763545 0.223479
H37   H     H_    0.372625 0.593068 0.782627 0.250410
H38   H     H_    0.381059 0.714310 0.657525 0.229505

loop_
_geom_bond_atom_site_label_1
_geom_bond_atom_site_label_2
_geom_bond_distance
_ccdc_geom_bond_type
C37   C40   1.401365 A    
C52   H32   1.111509 S    
C25   C39   1.397265 A    
C26   N2    1.368367 A    
C7    C11   1.400412 A    
C7    C8    1.402068 A    
C12   C15   1.417547 A    
C26   O12   1.349895 S    
C51   H29   1.107426 S    
Cu1   Cu2   2.689196 S    
Cu1   O7    1.952537 S    
N1    C11   1.439369 S    
C21   C22   1.398816 A    
C38   C48   1.512378 S    
C41   C49   1.515226 S    
C23   C24   1.406323 A    
O7    C4    1.301572 A    
C5    C13   1.398436 A    
C41   C43   1.464411 S    
C14   H3    1.083486 S    
C53   H36   1.110901 S    
C5    O9    1.350057 S    
Cu2   N4    2.020479 S    
C18   C21   1.429056 A    
Cu1   O5    1.960942 S    
C19   C20   1.422683 A    
C17   C29   1.405988 A    
O5    C3    1.298114 A    
C22   H6    1.084530 S    
C2    C16   1.474683 S    
C44   H28   1.087250 S    
C48   H18   1.110148 S    
C43   C50   1.515170 S    
C12   C34   1.417266 A    
C41   C42   1.349624 D    
C38   C39   1.398231 A    
C52   H33   1.110098 S    
C9    C10   1.392221 A    
O3    Cu1   1.946981 S    
C51   H30   1.110484 S    
C33   C34   1.415334 A    
C8    C53   1.508680 S    
C33   C36   1.407558 A    
C42   H10   1.086984 S    
C1    C44   1.450760 S    
C12   C13   1.409880 A    
O3    C2    1.296303 A    
C4    C17   1.473764 S    
C24   C25   1.406284 A    
C45   H11   1.085050 S    
C27   O10   1.349785 S    
C8    C16   1.419953 A    
C13   C14   1.401100 A    
C9    H1    1.080262 S    
O6    C3    1.289424 A    
C50   H27   1.110749 S    
C34   C35   1.407507 A    
C21   C52   1.512087 S    
O1    C1    1.298257 A    
C31   H21   1.082942 S    
C7    H14   1.083661 S    
C20   C24   1.415360 A    
C46   N4    1.309967 D    
C22   C23   1.397233 A    
C47   H17   1.109872 S    
C6    O11   1.347459 S    
C31   C32   1.400426 A    
C49   H24   1.110931 S    
Cu2   O8    1.946976 S    
C50   H26   1.109177 S    
N1    C6    1.370917 A    
N2    C32   1.435749 S    
N4    H13   1.028491 S    
C37   C47   1.511895 S    
N3    H12   1.028477 S    
C25   C26   1.404285 A    
C48   H19   1.108808 S    
C9    C16   1.403863 A    
C49   H23   1.109921 S    
C29   H4    1.082888 S    
C52   H34   1.108815 S    
C19   C38   1.428694 A    
N2    C27   1.368226 A    
C14   C36   1.389357 A    
Cu1   N3    2.020526 S    
C51   H31   1.103616 S    
C28   C29   1.395370 A    
C47   H16   1.110307 S    
C3    C42   1.448880 S    
C5    N1    1.366738 A    
C30   C31   1.393561 A    
C10   H2    1.082909 S    
C40   H9    1.079959 S    
O1    Cu1   1.959369 S    
C17   C30   1.406016 A    
O2    Cu2   1.960942 S    
C6    C15   1.418910 A    
O8    C4    1.299543 A    
C15   C37   1.425238 A    
O4    Cu2   1.952540 S    
C19   C35   1.421252 A    
C46   C51   1.502096 S    
C30   H7    1.082927 S    
C39   H8    1.084519 S    
O2    C1    1.290119 A    
C18   C33   1.421467 A    
C23   C27   1.404920 A    
C35   C40   1.404148 A    
C45   C46   1.507595 S    
C28   H5    1.082874 S    
O4    C2    1.303680 A    
C53   H37   1.109812 S    
C50   H25   1.110801 S    
C18   C20   1.422708 A    
C43   C44   1.349792 D    
C47   H15   1.111163 S    
C36   H35   1.079251 S    
C45   N3    1.284205 D    
C48   H20   1.111463 S    
C49   H22   1.110983 S    
Cu2   O6    1.959369 S    
C10   C11   1.398960 A    
C28   C32   1.401177 A    
C53   H38   1.110717 S    
