data_mof_unit_63615.cif
_audit_creation_date              2012-12-10T18:54:04-0500
_audit_creation_method            fapswitch 2.2
_symmetry_space_group_name_H-M    P1
_symmetry_Int_Tables_number       1
_space_group_crystal_system       triclinic
_cell_length_a                    19.453239
_cell_length_b                    19.431532
_cell_length_c                    19.452504
_cell_angle_alpha                 85.183421
_cell_angle_beta                  95.180372
_cell_angle_gamma                 89.993982
_cell_volume                      7297.05322291

loop_
_atom_site_label
_atom_site_type_symbol
_atom_type_description
_atom_site_fract_x
_atom_site_fract_y
_atom_site_fract_z
_atom_type_partial_charge
C1    C     C_R   0.312039 0.491984 0.491780 0.518405
C2    C     C_2   0.478630 0.981162 0.497024 -0.131786
C3    C     C_2   0.531850 0.018255 0.522027 -0.134536
C4    C     C_R   0.688066 0.507390 0.507847 0.501379
C5    C     C_R   0.514899 0.236748 0.514429 0.037928
C6    C     C_R   0.763241 0.508562 0.511833 0.039969
C7    C     C_R   0.798967 0.450802 0.494710 -0.125905
C8    C     C_R   0.870318 0.451651 0.495937 -0.107568
C9    C     C_R   0.907071 0.511241 0.512593 0.042328
C10   C     C_R   0.871359 0.568214 0.531953 -0.119065
C11   C     C_R   0.799744 0.566856 0.531853 -0.122809
C12   C     C_R   0.483585 0.906365 0.491306 0.025601
C13   C     C_R   0.125624 0.543285 0.470218 -0.131021
C14   C     C_R   0.197128 0.547197 0.474259 -0.176110
C15   C     C_R   0.205230 0.421703 0.489869 0.263902
C16   C     C_R   0.508647 0.492276 0.688818 0.501503
C17   C     C_R   0.133283 0.418166 0.485698 -0.102040
C18   C     C_R   0.093588 0.478758 0.477119 -0.006080
C19   C     C_2   0.982379 0.515873 0.510474 -0.126834
C20   C     C_2   0.018618 0.473439 0.476207 -0.132040
C21   C     C_R   0.237156 0.486779 0.485859 0.049293
C22   C     C_R   0.484834 0.505566 0.235686 0.036644
C23   C     C_R   0.422737 0.867851 0.487562 -0.123183
C24   C     C_R   0.527109 0.460413 0.205410 -0.124517
C25   C     C_R   0.520723 0.456577 0.134376 -0.114580
C26   C     C_R   0.472558 0.498546 0.092128 0.041453
C27   C     C_R   0.428976 0.542474 0.122106 -0.113356
C28   C     C_R   0.491181 0.507108 0.311084 0.503397
C29   C     C_R   0.435282 0.546307 0.193677 -0.125125
C30   C     C_R   0.466301 0.455001 0.872623 -0.164714
C31   C     C_R   0.462554 0.455646 0.800922 -0.145066
C32   C     C_R   0.569702 0.519474 0.800474 -0.096142
C33   C     C_R   0.575349 0.516446 0.872590 0.288511
C34   C     C_R   0.425755 0.796543 0.485299 -0.139275
C35   C     C_R   0.521787 0.486630 0.908716 0.038384
C36   C     C_2   0.467967 0.497153 0.016651 -0.141599
C37   C     C_2   0.524681 0.488124 0.984078 -0.109725
C38   C     C_R   0.513626 0.488896 0.764397 -0.009656
C39   C     C_R   0.508774 0.311918 0.508764 0.490274
C40   C     C_R   0.492195 0.688029 0.491144 0.508729
C41   C     C_R   0.489748 0.763062 0.487308 0.046973
C42   C     C_R   0.550840 0.801734 0.487711 0.023709
C43   C     C_R   0.547402 0.873065 0.488836 -0.096477
C44   C     C_3   0.245768 0.332819 0.436011 -0.011624
C45   C     C_R   0.467577 0.124149 0.543747 -0.112932
C46   C     C_3   0.299025 0.274758 0.443610 -0.361162
C47   C     C_3   0.684416 0.500400 0.926387 -0.021554
C48   C     C_3   0.737559 0.505046 0.873182 -0.383449
C49   C     C_R   0.462185 0.195737 0.540316 -0.133737
C50   C     C_R   0.574178 0.205463 0.494531 -0.122579
C51   C     C_R   0.580196 0.133932 0.499442 -0.117325
C52   C     C_R   0.526322 0.093142 0.522463 0.040093
Cl1   Cl    Cl    0.632413 0.763159 0.484344 -0.085650
H1    H     H_    0.625948 0.110370 0.483336 0.104692
H2    H     H_    0.416453 0.218923 0.556785 0.132180
H3    H     H_    0.108566 0.368232 0.490661 0.111316
H4    H     H_    0.564949 0.427477 0.236572 0.136165
H5    H     H_    0.419055 0.431395 0.774034 0.148100
H6    H     H_    0.609467 0.545537 0.772849 0.146689
H7    H     H_    0.575079 0.485791 0.013151 0.140658
H8    H     H_    0.391090 0.574622 0.090054 0.108482
H9    H     H_    0.425942 0.429565 0.899866 0.118979
H10   H     H_    0.401528 0.580917 0.216014 0.134170
H11   H     H_    0.418301 0.507400 0.987258 0.120784
H12   H     H_    0.771708 0.404629 0.480813 0.125978
H13   H     H_    0.553269 0.420365 0.112661 0.100730
H14   H     H_    0.615950 0.236255 0.475447 0.128366
H15   H     H_    0.581782 0.994800 0.538678 0.117740
H16   H     H_    0.372977 0.892782 0.488023 0.106523
H17   H     H_    0.426109 0.093060 0.563031 0.109016
H18   H     H_    0.378345 0.767230 0.484352 0.119777
H19   H     H_    0.429357 0.006558 0.480606 0.119205
H20   H     H_    0.594872 0.901785 0.487120 0.106925
H21   H     H_    0.260526 0.371777 0.394534 0.118512
H22   H     H_    0.194422 0.311043 0.420046 0.121505
H23   H     H_    0.221279 0.597423 0.469733 0.128230
H24   H     H_    0.286488 0.234936 0.484873 0.155688
H25   H     H_    0.299328 0.250412 0.393997 0.091759
H26   H     H_    0.351116 0.295711 0.457224 0.166071
H27   H     H_    0.666827 0.445884 0.935091 0.107110
H28   H     H_    0.710447 0.513938 0.976592 0.151465
H29   H     H_    0.754157 0.559390 0.863321 0.170341
H30   H     H_    0.783370 0.472815 0.893066 0.102792
H31   H     H_    0.715451 0.485786 0.823873 0.136990
H32   H     H_    0.994371 0.432004 0.449232 0.113105
H33   H     H_    0.898791 0.614257 0.545934 0.103107
H34   H     H_    0.095400 0.590539 0.461747 0.120218
H35   H     H_    0.772858 0.611822 0.545639 0.134132
H36   H     H_    0.008992 0.556366 0.537420 0.120007
H37   H     H_    0.895763 0.405231 0.484194 0.099233
O1    O     O_3   0.500000 0.500000 0.500000 -0.447039
O2    O     O_R   0.467830 0.341070 0.546160 -0.543167
O3    O     O_R   0.450560 0.655630 0.450550 -0.547839
O4    O     O_R   0.545840 0.347670 0.467560 -0.552119
O5    O     O_R   0.535760 0.655640 0.535740 -0.528759
O6    O     O_3   0.244488 0.361782 0.500077 -0.538584
O7    O     O_3   0.630105 0.548640 0.906920 -0.558192
O8    O     O_R   0.545870 0.536170 0.656040 -0.549473
O9    O     O_R   0.450550 0.545430 0.340370 -0.546456
O10   O     O_R   0.347960 0.451240 0.536460 -0.495453
O11   O     O_R   0.655630 0.467150 0.467130 -0.548415
O12   O     O_R   0.340780 0.536140 0.450970 -0.562881
O13   O     O_R   0.655640 0.545460 0.545430 -0.544722
O14   O     O_R   0.467850 0.451260 0.656340 -0.543097
O15   O     O_R   0.535740 0.467130 0.347260 -0.548663
Zn1   Zn    Zn3+2 0.558310 0.558310 0.558290 0.941743
Zn2   Zn    Zn3+2 0.446830 0.436990 0.558720 0.952310
Zn3   Zn    Zn3+2 0.558290 0.446420 0.446420 0.925442
Zn4   Zn    Zn3+2 0.436570 0.558290 0.436570 0.929365

loop_
_geom_bond_atom_site_label_1
_geom_bond_atom_site_label_2
_ccdc_geom_bond_type
C43   H20   S    
C29   H10   S    
C1    C21   S    
C22   C29   A    
C27   C29   A    
C41   C42   A    
C23   H16   S    
C3    H15   S    
C40   O3    A    
C2    C12   S    
C7    C8    A    
C12   C23   A    
O4    Zn3   S    
C26   C27   A    
C30   C35   A    
C19   H36   S    
C31   H5    S    
C36   C37   D    
C35   C37   S    
C9    C19   S    
C12   C43   A    
C42   Cl1   S    
C30   C31   A    
O9    Zn4   S    
C4    O13   A    
C27   H8    S    
C16   O14   A    
C19   C20   D    
C24   H4    S    
C32   C38   A    
C9    C10   A    
C28   O15   A    
C18   C20   S    
O11   Zn3   S    
C22   C28   S    
C13   C14   A    
C4    O11   A    
O1    Zn1   S    
C5    C49   A    
C34   C41   A    
C47   H27   S    
C2    H19   S    
C1    O10   A    
C44   C46   S    
C50   C51   A    
O15   Zn3   S    
C51   C52   A    
O1    Zn2   S    
C24   C25   A    
C4    C6    S    
C6    C11   A    
C46   H25   S    
C8    C9    A    
C45   C52   A    
C25   C26   A    
C49   H2    S    
C48   H31   S    
C14   H23   S    
C44   H22   S    
C39   O4    A    
C44   O6    S    
O5    Zn1   S    
C7    H12   S    
O2    Zn2   S    
C47   C48   S    
C45   C49   A    
C11   H35   S    
C23   C34   A    
C20   H32   S    
C13   H34   S    
C17   C18   A    
C44   H21   S    
C17   H3    S    
C13   C18   A    
C28   O9    A    
C26   C36   S    
C40   C41   S    
C5    C39   S    
C22   C24   A    
C5    C50   A    
C8    H37   S    
C42   C43   A    
C40   O5    A    
C39   O2    A    
C15   O6    S    
C14   C21   A    
C50   H14   S    
C15   C17   A    
C10   H33   S    
O10   Zn2   S    
C45   H17   S    
O1    Zn3   S    
C25   H13   S    
C47   O7    S    
C46   H24   S    
C3    C52   S    
C48   H30   S    
C6    C7    A    
O8    Zn1   S    
C31   C38   A    
C51   H1    S    
C32   C33   A    
O1    Zn4   S    
C30   H9    S    
C2    C3    D    
C16   O8    A    
C46   H26   S    
C1    O12   A    
C33   C35   A    
C48   H29   S    
O13   Zn1   S    
C33   O7    S    
C47   H28   S    
C37   H7    S    
C10   C11   A    
C15   C21   A    
O3    Zn4   S    
O12   Zn4   S    
C32   H6    S    
C36   H11   S    
C34   H18   S    
O14   Zn2   S    
C16   C38   S    
