data_mof_unit_11134.cif
_audit_creation_date              2012-12-11T17:07:28-0500
_audit_creation_method            fapswitch 2.2
_symmetry_space_group_name_H-M    P1
_symmetry_Int_Tables_number       1
_space_group_crystal_system       triclinic
_cell_length_a                    6.967243
_cell_length_b                    14.403761
_cell_length_c                    16.211774
_cell_angle_alpha                 90.014953
_cell_angle_beta                  89.704029
_cell_angle_gamma                 90.329479
_cell_volume                      1626.87587326

loop_
_atom_site_label
_atom_site_type_symbol
_atom_type_description
_atom_site_fract_x
_atom_site_fract_y
_atom_site_fract_z
_atom_type_partial_charge
O1    O     O_R   0.505720 0.583900 0.413310 -0.537562
O2    O     O_R   0.175940 0.594920 0.586080 -0.542547
O3    O     O_R   0.005640 0.416100 0.586690 -0.531816
C1    C     C_R   0.344729 0.616866 0.614854 0.693845
O4    O     O_R   0.176000 0.594930 0.413930 -0.543810
O5    O     O_R   0.005700 0.416110 0.413310 -0.541840
C2    C     C_R   0.345217 0.616998 0.385266 0.691264
O6    O     O_R   0.505660 0.583890 0.586690 -0.540687
O7    O     O_3   0.339200 0.441330 0.500000 -0.365378
V1    V     V_3+5 0.064350 0.510880 0.500000 1.395166
O8    O     O_R   0.675980 0.405080 0.413920 -0.538562
C3    C     C_R   0.845078 0.382284 0.385775 0.689351
O9    O     O_R   0.675920 0.405070 0.586070 -0.540834
C4    C     C_R   0.843464 0.382185 0.613745 0.699231
V2    V     V_3+5 0.564340 0.489120 0.500000 1.405592
O10   O     O_3   0.839360 0.558670 0.500000 -0.374338
H1    H     H_    0.096719 0.083375 0.516100 0.109098
C5    C     C_R   0.684166 0.423552 0.775063 -0.158412
C6    C     C_R   0.638439 0.453051 0.854394 -0.146730
C7    C     C_R   0.707704 0.404588 0.921798 -0.092240
C8    C     C_R   0.810979 0.322762 0.910200 0.119520
C9    C     C_R   0.824796 0.281857 0.830891 0.046999
C10   C     C_R   0.782930 0.339144 0.761826 0.055325
C11   C     C_R   0.887895 0.188979 0.818219 -0.172726
C12   C     C_R   0.939652 0.160497 0.737178 0.068917
C13   C     C_R   0.926623 0.223907 0.669858 0.072242
C14   C     C_R   0.848550 0.313508 0.682281 -0.174551
C15   C     C_R   0.006651 0.069573 0.721603 -0.143909
C16   C     C_R   0.063033 0.042500 0.642631 -0.127061
C17   C     C_R   0.053151 0.104836 0.577368 -0.120392
C18   C     C_R   0.985104 0.194466 0.590404 -0.133036
H2    H     H_    0.641580 0.467936 0.724830 0.126604
H3    H     H_    0.563142 0.517825 0.863527 0.128643
H4    H     H_    0.695574 0.435163 0.982613 0.138125
H5    H     H_    0.016893 0.018521 0.770162 0.095684
H6    H     H_    0.114637 0.972714 0.632056 0.112676
H7    H     H_    0.976163 0.239767 0.537339 0.097092
C19   C     C_R   0.724951 0.180465 0.242597 0.087270
C20   C     C_R   0.883667 0.177588 0.189337 -0.101459
C21   C     C_R   0.039672 0.236176 0.208509 -0.148208
H8    H     H_    0.166246 0.236031 0.170077 0.164100
C22   C     C_R   0.027278 0.301790 0.272665 -0.173486
H9    H     H_    0.145076 0.349788 0.281597 0.135186
C23   C     C_R   0.859309 0.310072 0.320710 -0.112638
C24   C     C_R   0.712917 0.245025 0.306631 0.107824
C25   C     C_3   0.505007 0.260562 0.291772 -0.413144
C26   C     C_3   0.518214 0.189894 0.222404 -0.400493
H10   H     H_    0.476532 0.332211 0.269693 0.173083
H11   H     H_    0.414578 0.236738 0.344435 0.173302
H12   H     H_    0.496855 0.220397 0.160134 0.192324
H13   H     H_    0.436092 0.124987 0.235027 0.161455
C27   C     C_R   0.508556 0.683196 0.740083 0.093405
C28   C     C_R   0.352968 0.682195 0.685584 -0.105939
C29   C     C_R   0.200817 0.743295 0.702589 -0.180921
H14   H     H_    0.077931 0.745269 0.662336 0.132586
C30   C     C_R   0.211744 0.807133 0.768287 -0.178109
H15   H     H_    0.095759 0.855577 0.777046 0.123088
C31   C     C_R   0.375942 0.812573 0.818579 -0.105798
C32   C     C_R   0.519989 0.746915 0.804756 0.103220
C33   C     C_3   0.729483 0.761808 0.791480 -0.409412
C34   C     C_3   0.717302 0.692242 0.721296 -0.404975
H16   H     H_    0.815857 0.736805 0.844393 0.178476
H17   H     H_    0.762525 0.833621 0.770437 0.166550
H18   H     H_    0.796904 0.627142 0.733735 0.173393
H19   H     H_    0.743831 0.723507 0.659560 0.170151
C35   C     C_R   0.507460 0.682761 0.258765 0.106581
C36   C     C_R   0.353534 0.682583 0.314725 -0.112216
C37   C     C_R   0.201729 0.744250 0.298982 -0.177953
H20   H     H_    0.079399 0.746488 0.340132 0.131650
C38   C     C_R   0.212286 0.808253 0.233320 -0.178778
H21   H     H_    0.097468 0.857665 0.225826 0.124533
C39   C     C_R   0.375259 0.812779 0.181538 -0.109521
C40   C     C_R   0.518363 0.746384 0.194043 0.108026
C41   C     C_3   0.728866 0.759739 0.205055 -0.409876
C42   C     C_3   0.717059 0.690091 0.275283 -0.400363
H22   H     H_    0.764755 0.831270 0.225820 0.163449
H23   H     H_    0.812738 0.734264 0.151194 0.178826
H24   H     H_    0.746761 0.720997 0.336773 0.167867
H25   H     H_    0.793430 0.624184 0.261896 0.173717
O11   O     O_R   0.229140 0.916090 0.913340 -0.543580
O12   O     O_R   0.558860 0.905090 0.086080 -0.543045
O13   O     O_R   0.729100 0.083920 0.086690 -0.536474
C43   C     C_R   0.389411 0.883147 0.114881 0.683832
O14   O     O_R   0.558860 0.905090 0.913930 -0.541584
O15   O     O_R   0.729100 0.083920 0.913310 -0.532794
C44   C     C_R   0.389843 0.883060 0.885178 0.694073
O16   O     O_R   0.229140 0.916080 0.086720 -0.543929
O17   O     O_3   0.395570 0.058660 0.000020 -0.355735
V3    V     V_3+5 0.670450 0.989140 0.000000 1.419563
O18   O     O_R   0.058810 0.094980 0.913910 -0.524257
C45   C     C_R   0.891050 0.120005 0.887465 0.748531
O19   O     O_R   0.058810 0.094980 0.086060 -0.535403
C46   C     C_R   0.890475 0.114181 0.116941 0.729096
V4    V     V_3+5 0.170450 0.010950 0.999970 1.440832
O20   O     O_3   0.895460 0.941370 0.999990 -0.378327
I1    I     I_    0.023756 0.301733 0.000013 -0.466512

loop_
_geom_bond_atom_site_label_1
_geom_bond_atom_site_label_2
_ccdc_geom_bond_type
C43   O16   A    
C1    C28   S    
C40   C41   S    
C6    C7    A    
C1    O6    A    
O15   C45   A    
C28   C29   A    
C23   C24   A    
C12   C15   A    
C16   H6    S    
C13   C14   A    
O13   V3    S    
C41   H22   S    
C33   H17   S    
C15   C16   A    
O14   C44   A    
C27   C34   S    
O5    C3    A    
C17   C18   A    
V2    O10   S    
O16   V4    S    
C30   H15   S    
C33   H16   S    
C5    C6    A    
C20   C46   S    
C19   C24   A    
O11   C44   A    
C29   H14   S    
O8    V2    S    
C15   H5    S    
C37   H20   S    
C41   H23   S    
C38   H21   S    
O1    V2    S    
C10   C14   A    
C4    C14   S    
O7    V1    S    
O12   V3    S    
C21   C22   A    
C35   C36   A    
C32   C33   S    
O13   C46   A    
C8    C9    A    
H1    C17   S    
C22   C23   A    
C31   C44   S    
O12   C43   A    
O18   V4    S    
C26   H12   S    
C29   C30   A    
O17   V4    S    
C41   C42   S    
C36   C37   A    
C11   C12   A    
C6    H3    S    
C20   C21   A    
O4    C2    A    
O15   V3    S    
C26   H13   S    
C12   C13   A    
C24   C25   S    
C35   C40   A    
C5    C10   A    
C18   H7    S    
C33   C34   S    
V3    O20   S    
C34   H18   S    
O2    C1    A    
C16   C17   A    
C27   C32   A    
C25   H11   S    
O19   V4    S    
C7    C8    A    
C19   C26   S    
O3    C4    A    
C21   H8    S    
O6    V2    S    
O9    V2    S    
C9    C11   A    
C5    H2    S    
C22   H9    S    
O11   V4    S    
O2    V1    S    
C11   C45   S    
C27   C28   A    
C25   C26   S    
O1    C2    A    
C39   C40   A    
O5    V1    S    
O8    C3    A    
C8    I1    S    
C31   C32   A    
C7    H4    S    
O4    V1    S    
C3    C23   S    
O3    V1    S    
V1    O10   S    
O18   C45   A    
C19   C20   A    
C35   C42   S    
O19   C46   A    
C30   C31   A    
O7    V2    S    
V4    O20   S    
C42   H24   S    
C39   C43   S    
C2    C36   S    
C25   H10   S    
C34   H19   S    
C13   C18   A    
O17   V3    S    
C37   C38   A    
O14   V3    S    
C9    C10   A    
C38   C39   A    
O9    C4    A    
C42   H25   S    
