data_mof_unit_16261.cif
_audit_creation_date              2012-12-10T19:53:46-0500
_audit_creation_method            fapswitch 2.2
_symmetry_space_group_name_H-M    P1
_symmetry_Int_Tables_number       1
_space_group_crystal_system       triclinic
_cell_length_a                    14.734057
_cell_length_b                    14.363898
_cell_length_c                    10.499974
_cell_angle_alpha                 89.13573
_cell_angle_beta                  92.494874
_cell_angle_gamma                 90.228543
_cell_volume                      2219.8273613

loop_
_atom_site_label
_atom_site_type_symbol
_atom_type_description
_atom_site_fract_x
_atom_site_fract_y
_atom_site_fract_z
_atom_type_partial_charge
C1    C     C_R   0.327892 0.499732 0.511046 0.865010
C2    C     C_R   0.452028 0.799281 0.408103 0.103175
C3    C     C_R   0.497851 0.052950 0.507706 0.126553
C4    C     C_R   0.497160 0.947047 0.507650 0.122243
C5    C     C_R   0.500050 0.500548 0.257424 0.869756
C6    C     C_R   0.501364 0.499200 0.742474 0.854898
C7    C     C_3   0.533321 0.582068 0.039641 -0.138297
C8    C     C_3   0.469690 0.416117 0.959819 -0.172816
C9    C     C_3   0.587170 0.511753 0.963146 -0.195706
C10   C     C_3   0.416013 0.486630 0.036303 -0.176590
C11   C     C_3   0.448223 0.567351 0.951233 -0.142562
C12   C     C_R   0.672241 0.499953 0.500927 0.845434
C13   C     C_3   0.554935 0.430589 0.048196 -0.186365
C14   C     C_3   0.502007 0.497312 0.877640 0.038045
C15   C     C_3   0.501086 0.501068 0.122047 0.042820
C16   C     C_R   0.092920 0.578474 0.579078 -0.176651
C17   C     C_R   0.916281 0.459522 0.454819 -0.174928
C18   C     C_R   0.897378 0.519365 0.667823 -0.214761
C19   C     C_R   0.099733 0.410017 0.597055 -0.204916
C20   C     C_R   0.185028 0.581554 0.558117 -0.215723
C21   C     C_R   0.823481 0.464850 0.429325 -0.227964
C22   C     C_R   0.804402 0.522945 0.642869 -0.157817
C23   C     C_R   0.428477 0.104533 0.444959 -0.310508
C24   C     C_R   0.192041 0.413609 0.578348 -0.182541
C25   C     C_R   0.233461 0.498448 0.547044 -0.028247
C26   C     C_R   0.768419 0.498621 0.522655 0.017664
C27   C     C_R   0.049948 0.492308 0.591513 0.115624
C28   C     C_R   0.952880 0.487903 0.573396 0.102274
C29   C     C_R   0.357824 0.247134 0.360017 0.179602
C30   C     C_R   0.268293 0.240585 0.400025 -0.183967
C31   C     C_R   0.195441 0.269423 0.319482 -0.132839
C32   C     C_R   0.210952 0.299797 0.195454 -0.117831
C33   C     C_R   0.299125 0.300323 0.151812 -0.180030
C34   C     C_R   0.545922 0.893617 0.599717 -0.309675
C35   C     C_R   0.372530 0.274568 0.233725 -0.108354
C36   C     C_R   0.623031 0.751312 0.671097 0.178629
C37   C     C_R   0.613558 0.739004 0.802752 -0.150880
C38   C     C_R   0.690178 0.722822 0.883504 -0.169623
C39   C     C_R   0.776531 0.720393 0.833957 -0.145121
C40   C     C_R   0.786625 0.734222 0.703462 -0.161366
C41   C     C_R   0.710263 0.748939 0.622212 -0.128066
C42   C     C_R   0.644809 0.248983 0.632654 0.168413
C43   C     C_R   0.730945 0.249192 0.580214 -0.153738
C44   C     C_R   0.806852 0.281290 0.651304 -0.114055
C45   C     C_R   0.568578 0.104399 0.566734 -0.311462
C46   C     C_R   0.797385 0.312844 0.775216 -0.116592
C47   C     C_R   0.712157 0.311639 0.828537 -0.183774
C48   C     C_R   0.636243 0.278539 0.758270 -0.110307
C49   C     C_R   0.403819 0.757515 0.297363 0.178787
C50   C     C_R   0.435560 0.775690 0.175216 -0.184120
C51   C     C_R   0.380266 0.757880 0.066900 -0.147138
C52   C     C_R   0.294326 0.718112 0.079168 -0.120630
C53   C     C_R   0.262075 0.700265 0.200231 -0.168604
C54   C     C_R   0.315591 0.722944 0.308564 -0.105052
C55   C     C_R   0.451178 0.897565 0.410686 -0.308660
C56   C     C_R   0.431300 0.202709 0.438258 0.106822
C57   C     C_R   0.549999 0.795397 0.592111 0.111907
C58   C     C_R   0.568203 0.202930 0.564451 0.106728
H1    H     H_    0.404275 0.619943 0.901330 0.131300
H2    H     H_    0.066505 0.343293 0.609885 0.123163
H3    H     H_    0.217146 0.648550 0.548777 0.141390
H4    H     H_    0.794737 0.443341 0.337625 0.122041
H5    H     H_    0.760203 0.543460 0.717190 0.145148
H6    H     H_    0.230485 0.350110 0.586422 0.153687
H7    H     H_    0.371003 0.069162 0.399629 0.142228
H8    H     H_    0.584715 0.927661 0.675627 0.143127
H9    H     H_    0.625464 0.068884 0.614204 0.140975
H10   H     H_    0.415920 0.934718 0.333105 0.144234
H11   H     H_    0.254937 0.211085 0.492903 0.111787
H12   H     H_    0.598086 0.374901 0.093037 0.127669
H13   H     H_    0.126821 0.265838 0.352138 0.125517
H14   H     H_    0.154430 0.320226 0.131992 0.120932
H15   H     H_    0.310040 0.318570 0.053455 0.128307
H16   H     H_    0.440029 0.271951 0.197050 0.131363
H17   H     H_    0.547646 0.746110 0.843229 0.120767
H18   H     H_    0.683350 0.715085 0.985144 0.127054
H19   H     H_    0.835708 0.708849 0.896829 0.126461
H20   H     H_    0.853682 0.733845 0.665263 0.137544
H21   H     H_    0.719488 0.763214 0.521975 0.125949
H22   H     H_    0.739323 0.223476 0.485007 0.118312
H23   H     H_    0.558617 0.648995 0.078535 0.132403
H24   H     H_    0.873051 0.281455 0.610498 0.130079
H25   H     H_    0.856182 0.337785 0.830112 0.124752
H26   H     H_    0.705436 0.334549 0.925249 0.128043
H27   H     H_    0.571447 0.273740 0.802710 0.127291
H28   H     H_    0.501367 0.808030 0.164183 0.117657
H29   H     H_    0.404105 0.775224 0.973422 0.120461
H30   H     H_    0.252052 0.703118 0.995042 0.122427
H31   H     H_    0.194210 0.672755 0.210139 0.130745
H32   H     H_    0.286640 0.719201 0.400525 0.119526
H33   H     H_    0.444157 0.348552 0.922623 0.128547
H34   H     H_    0.656694 0.521207 0.928219 0.133175
H35   H     H_    0.346182 0.480258 0.070904 0.138367
H36   H     H_    0.054228 0.642533 0.577382 0.128741
H37   H     H_    0.959871 0.435550 0.381607 0.133422
H38   H     H_    0.925932 0.540866 0.759598 0.129049
N1    N     N_R   0.500000 0.252470 0.500000 -0.128354
N2    N     N_R   0.500000 0.747530 0.500000 -0.129038
O1    O     O_R   0.369060 0.579480 0.500010 -0.629330
O2    O     O_R   0.630940 0.420520 0.499990 -0.607196
O3    O     O_R   0.630940 0.579480 0.499990 -0.620486
O4    O     O_R   0.369060 0.420520 0.500010 -0.612977
O5    O     O_R   0.499980 0.579460 0.313950 -0.615564
O6    O     O_R   0.500020 0.420540 0.686050 -0.632714
O7    O     O_R   0.500020 0.579460 0.686050 -0.626908
O8    O     O_R   0.499980 0.420540 0.313950 -0.629451
Zn1   Zn    Zn3+2 0.500000 0.606140 0.500000 0.940283
Zn2   Zn    Zn3+2 0.500000 0.393860 0.500000 0.941992

loop_
_geom_bond_atom_site_label_1
_geom_bond_atom_site_label_2
_ccdc_geom_bond_type
O3    Zn1   S    
C21   C26   A    
C5    O5    A    
C35   H16   S    
C8    C13   S    
C18   H38   S    
C3    C23   A    
C43   C44   A    
C1    O1    A    
C55   H10   S    
C23   C56   A    
C32   H14   S    
C38   H18   S    
C53   C54   A    
C7    C11   S    
O7    Zn1   S    
C29   C30   A    
C39   H19   S    
C36   C37   A    
C54   H32   S    
C44   H24   S    
C10   C15   S    
C30   C31   A    
C11   C14   S    
C20   C25   A    
C49   C54   A    
C20   H3    S    
C9    C13   S    
C22   H5    S    
N1    Zn2   S    
C47   C48   A    
C45   H9    S    
C34   C57   A    
O4    Zn2   S    
C17   H37   S    
C6    O6    A    
C19   C27   A    
C16   C27   A    
C31   H13   S    
C37   H17   S    
C24   H6    S    
C1    C25   S    
C42   C58   S    
C36   C41   A    
C58   N1    A    
C56   N1    A    
C11   H1    S    
C9    H34   S    
C34   H8    S    
C44   C46   A    
C5    O8    A    
C4    C34   A    
C45   C58   A    
O2    Zn2   S    
C5    C15   S    
C51   C52   A    
C52   H30   S    
C18   C28   A    
C24   C25   A    
C36   C57   S    
C51   H29   S    
C39   C40   A    
C10   H35   S    
C43   H22   S    
C3    C45   A    
C17   C21   A    
N2    Zn1   S    
C12   C26   S    
C9    C14   S    
C37   C38   A    
C2    C49   S    
C6    C14   S    
C31   C32   A    
C16   C20   A    
C50   C51   A    
C8    H33   S    
C42   C48   A    
C47   H26   S    
C21   H4    S    
C33   H15   S    
C40   C41   A    
C7    H23   S    
C13   C15   S    
C4    C55   A    
C53   H31   S    
C40   H20   S    
C42   C43   A    
C3    C4    S    
O6    Zn2   S    
C30   H11   S    
C52   C53   A    
C7    C9    S    
C46   C47   A    
C8    C14   S    
C18   C22   A    
C17   C28   A    
C41   H21   S    
C29   C56   S    
C19   H2    S    
O1    Zn1   S    
C29   C35   A    
C16   H36   S    
C2    C55   A    
C32   C33   A    
C23   H7    S    
C19   C24   A    
C12   O3    A    
C38   C39   A    
O8    Zn2   S    
C57   N2    A    
C7    C15   S    
C33   C35   A    
C6    O7    A    
C12   O2    A    
C10   C11   S    
C50   H28   S    
C22   C26   A    
C46   H25   S    
C2    N2    A    
C8    C10   S    
C49   C50   A    
C13   H12   S    
C27   C28   S    
C48   H27   S    
O5    Zn1   S    
C1    O4    A    
