data_mof_unit_55528.cif
_audit_creation_date              2012-12-10T20:34:54-0500
_audit_creation_method            fapswitch 2.2
_symmetry_space_group_name_H-M    P1
_symmetry_Int_Tables_number       1
_space_group_crystal_system       triclinic
_cell_length_a                    10.88531
_cell_length_b                    10.898983
_cell_length_c                    9.895674
_cell_angle_alpha                 87.861387
_cell_angle_beta                  87.191937
_cell_angle_gamma                 91.655321
_cell_volume                      1171.22956415

loop_
_atom_site_label
_atom_site_type_symbol
_atom_type_description
_atom_site_fract_x
_atom_site_fract_y
_atom_site_fract_z
_atom_type_partial_charge
C1    C     C_R   0.491894 0.259852 0.503485 0.943201
C2    C     C_R   0.560159 0.937146 0.593950 -0.187916
C3    C     C_3   0.567324 0.912645 0.743876 0.737324
C4    C     C_R   0.257461 0.500164 0.501824 1.008595
C5    C     C_3   0.516774 0.041763 0.762204 0.959745
C6    C     C_R   0.400112 0.458167 0.078561 0.068690
C7    C     C_R   0.588823 0.561780 0.064739 0.557407
C8    C     C_R   0.593154 0.555477 0.920558 -0.201678
C9    C     C_R   0.394950 0.468225 0.936619 0.127762
C10   C     C_3   0.325045 0.348967 0.939613 0.173819
C11   C     C_3   0.348570 0.331284 0.087776 -0.410817
C12   C     C_3   0.878548 0.498522 0.496773 -0.335215
C13   C     C_R   0.503718 0.740083 0.497386 0.927004
C14   C     C_R   0.742285 0.499373 0.497781 0.869835
C15   C     C_3   0.062700 0.404574 0.615715 0.751399
C16   C     C_3   0.918495 0.407134 0.614890 0.280112
C17   C     C_3   0.072060 0.632592 0.515350 0.178305
C18   C     C_3   0.077002 0.451322 0.359665 0.100637
C19   C     C_3   0.120740 0.499311 0.501723 -0.291391
C20   C     C_3   0.093654 0.521034 0.821792 -0.110693
C21   C     C_3   0.911515 0.634203 0.213149 -0.130030
C22   C     C_3   0.283305 0.838995 0.306326 -0.361858
C23   C     C_3   0.929572 0.630674 0.527054 0.186116
C24   C     C_3   0.785861 0.952149 0.709262 -0.361160
C25   C     C_3   0.350695 0.014655 0.929802 -0.191572
C26   C     C_3   0.626405 0.089104 0.956901 -0.341420
C27   C     C_3   0.645917 0.756961 0.109950 -0.372013
C28   C     C_3   0.836169 0.332353 0.826103 -0.246518
C29   C     C_3   0.934269 0.449263 0.356565 0.736274
C30   C     C_R   0.538031 0.059310 0.609450 -0.201360
C31   C     C_R   0.478868 0.126843 0.510387 -0.139702
C32   C     C_R   0.432378 0.066352 0.399517 0.354070
C33   C     C_R   0.447230 0.938860 0.388932 0.391202
C34   C     C_R   0.506421 0.872699 0.491630 -0.201230
H1    H     H_    0.098671 0.685113 0.421266 0.030240
H2    H     H_    0.180900 0.576130 0.820665 0.200466
H3    H     H_    0.070283 0.492515 0.928977 0.165077
H4    H     H_    0.998307 0.673091 0.244813 0.078303
H5    H     H_    0.835697 0.683216 0.262262 0.172824
H6    H     H_    0.910840 0.655898 0.102765 0.203843
H7    H     H_    0.341640 0.080963 0.233999 0.344877
H8    H     H_    0.280203 0.767585 0.388882 0.194543
H9    H     H_    0.248209 0.797420 0.214627 0.175347
H10   H     H_    0.221700 0.914779 0.334164 0.175098
H11   H     H_    0.512348 0.789300 0.882057 0.313658
H12   H     H_    0.899265 0.700945 0.454182 0.032674
H13   H     H_    0.774466 0.052836 0.699412 0.176720
H14   H     H_    0.795689 0.912863 0.607498 0.178167
H15   H     H_    0.873172 0.937040 0.759811 0.213737
H16   H     H_    0.388896 0.081783 0.998161 0.193412
H17   H     H_    0.372665 0.921102 0.965422 0.162250
H18   H     H_    0.249200 0.020615 0.941074 0.172965
H19   H     H_    0.585066 0.999394 0.995188 0.148838
H20   H     H_    0.603809 0.158596 0.032501 0.195751
H21   H     H_    0.727920 0.081882 0.951313 0.187976
H22   H     H_    0.545531 0.773611 0.108419 0.201587
H23   H     H_    0.669319 0.598837 0.860733 0.219353
H24   H     H_    0.695218 0.795495 0.016915 0.212091
H25   H     H_    0.680275 0.807979 0.196035 0.187232
H26   H     H_    0.067956 0.225853 0.649246 0.338838
H27   H     H_    0.330401 0.260890 0.777437 0.390456
H28   H     H_    0.916985 0.273703 0.838774 0.151044
H29   H     H_    0.760103 0.279417 0.783090 0.211758
H30   H     H_    0.803935 0.361322 0.927777 0.209023
H31   H     H_    0.104952 0.784946 0.605571 0.353103
H32   H     H_    0.801103 0.697497 0.645390 0.357496
H33   H     H_    0.170449 0.587646 0.255899 0.336686
H34   H     H_    0.225240 0.353233 0.928126 0.160618
H35   H     H_    0.810887 0.317957 0.328258 0.352927
H36   H     H_    0.263433 0.320969 0.154164 0.231917
H37   H     H_    0.421646 0.265275 0.107766 0.232684
H38   H     H_    0.882096 0.314376 0.589101 0.098933
H39   H     H_    0.107769 0.355296 0.352730 0.251511
H40   H     H_    0.018910 0.578321 0.792326 0.287946
N1    N     N_R   0.499150 0.499140 0.142800 -0.141561
N2    N     N_R   0.499150 0.499180 0.857150 -0.094837
O1    O     O_R   0.500020 0.316790 0.614690 -0.580030
O2    O     O_3   0.892657 0.505916 0.234082 -0.532109
O3    O     O_3   0.366149 0.132959 0.308352 -0.783499
O4    O     O_3   0.405502 0.880814 0.277281 -0.640433
O5    O     O_3   0.482269 0.821988 0.795807 -0.757702
O6    O     O_3   0.688633 0.892194 0.789152 -0.673902
O7    O     O_3   0.386920 0.042063 0.792167 -0.604317
O8    O     O_3   0.587003 0.130891 0.829293 -0.613018
O9    O     O_3   0.673239 0.631850 0.127678 -0.585554
O10   O     O_3   0.096088 0.286425 0.575842 -0.825545
O11   O     O_3   0.383179 0.267550 0.856042 -0.656189
O12   O     O_R   0.500000 0.316760 0.385350 -0.595921
O13   O     O_3   0.866432 0.438103 0.743408 -0.549781
O14   O     O_3   0.126703 0.697460 0.617909 -0.751885
O15   O     O_3   0.886181 0.669100 0.654396 -0.703843
O16   O     O_3   0.131848 0.507093 0.239098 -0.763765
O17   O     O_3   0.898548 0.323826 0.351089 -0.811100
O18   O     O_R   0.314800 0.500000 0.614670 -0.575536
O19   O     O_R   0.314790 0.499960 0.385330 -0.633073
O20   O     O_R   0.500000 0.683240 0.614650 -0.563494
O21   O     O_R   0.499980 0.683210 0.385310 -0.588676
O22   O     O_R   0.685210 0.500040 0.614670 -0.569094
O23   O     O_R   0.685200 0.500000 0.385330 -0.583461
O24   O     O_3   0.111179 0.414213 0.747230 -0.643850
Zn1   Zn    Zn3+2 0.500010 0.500020 0.653130 1.040222
Zn2   Zn    Zn3+2 0.499990 0.499980 0.346870 1.013061

loop_
_geom_bond_atom_site_label_1
_geom_bond_atom_site_label_2
_ccdc_geom_bond_type
C12   C29   S    
C1    O1    A    
O1    Zn1   S    
C16   H38   S    
C1    C31   S    
C15   O24   S    
C26   H21   S    
C6    C9    A    
C11   H36   S    
C6    N1    A    
C22   H8    S    
C15   C19   S    
C12   C23   S    
C17   C23   S    
H35   O17   S    
C30   C31   A    
C5    O7    S    
C11   H37   S    
C15   C16   S    
C8    N2    A    
C18   C19   S    
C27   O9    S    
C24   O6    S    
C25   H16   S    
H27   O11   S    
C4    C19   S    
C22   H10   S    
C21   H4    S    
N2    Zn1   S    
O18   Zn1   S    
C20   O24   S    
C21   O2    S    
C3    O5    S    
N1    Zn2   S    
C28   O13   S    
C9    N2    A    
C9    C10   S    
O21   Zn2   S    
O19   Zn2   S    
C2    C34   A    
C1    O12   A    
C16   O13   S    
C23   H12   S    
O20   Zn1   S    
C26   H20   S    
C14   O22   A    
H31   O14   S    
C10   O11   S    
C29   O2    S    
C13   O20   A    
C24   H14   S    
C12   C16   S    
C7    C8    A    
C6    C11   S    
C5    O8    S    
H26   O10   S    
C27   H22   S    
C7    N1    A    
C25   H17   S    
C8    H23   S    
C4    O19   A    
C31   C32   A    
C21   H5    S    
C3    O6    S    
C33   C34   A    
C20   H40   S    
C18   C29   S    
C15   O10   S    
C4    O18   A    
C28   H30   S    
C12   C14   S    
C18   H39   S    
C23   O15   S    
C26   H19   S    
C5    C30   S    
C24   H15   S    
C26   O8    S    
C24   H13   S    
H11   O5    S    
C17   O14   S    
C3    C5    S    
C27   H24   S    
H7    O3    S    
O12   Zn2   S    
C33   O4    S    
H32   O15   S    
C10   H34   S    
O22   Zn1   S    
C2    C30   A    
C18   O16   S    
C32   C33   A    
C2    C3    S    
C25   H18   S    
C22   O4    S    
C13   C34   S    
C27   H25   S    
C32   O3    S    
C29   O17   S    
C20   H3    S    
C14   O23   A    
C7    O9    S    
C21   H6    S    
H33   O16   S    
C17   C19   S    
C13   O21   A    
C10   C11   S    
C20   H2    S    
C28   H29   S    
O23   Zn2   S    
C25   O7    S    
C17   H1    S    
C22   H9    S    
C28   H28   S    
