data_mof_unit_60369.cif
_audit_creation_date              2012-10-26T21:02:08-0400
_audit_creation_method            fapswitch 2.2
_symmetry_space_group_name_H-M    P1
_symmetry_Int_Tables_number       1
_space_group_crystal_system       triclinic
_cell_length_a                    9.721076
_cell_length_b                    10.944196
_cell_length_c                    13.875053
_cell_angle_alpha                 90.460801
_cell_angle_beta                  84.16532
_cell_angle_gamma                 90.110201
_cell_volume                      1468.46217922

loop_
_atom_site_label
_atom_site_type_symbol
_atom_type_description
_atom_site_fract_x
_atom_site_fract_y
_atom_site_fract_z
_atom_type_partial_charge
C1    C     C_R   0.500618 0.734515 0.497803 0.584780
C2    C     C_R   0.499199 0.265672 0.503368 0.563932
C3    C     C_R   0.523062 0.499940 0.316986 0.551298
C4    C     C_1   0.537784 0.499929 0.213555 -0.008095
C5    C     C_2   0.558661 0.499775 0.022636 0.401641
C6    C     C_2   0.443793 0.501240 0.977314 -0.075056
C7    C     C_1   0.452376 0.500904 0.873439 0.040715
C8    C     C_1   0.548457 0.499882 0.126508 0.009782
C9    C     C_3   0.113523 0.628138 0.648377 -0.283288
C10   C     C_1   0.462324 0.500567 0.786410 0.031942
C11   C     C_2   0.608785 0.067014 0.498104 -0.051097
C12   C     C_2   0.494774 0.134933 0.517371 0.380214
C13   C     C_2   0.607065 0.934783 0.511301 0.371999
C14   C     C_2   0.502225 0.865694 0.485230 0.419846
C15   C     C_2   0.066741 0.564893 0.560508 0.100421
C16   C     C_2   0.914859 0.578280 0.548257 0.041191
C17   C     C_R   0.476937 0.500186 0.683002 0.544975
Cu1   Cu    Cu3+1 0.361370 0.499980 0.499980 1.024756
Cu2   Cu    Cu3+1 0.638630 0.500020 0.500020 1.015847
F1    F     F_    0.685991 0.498018 0.971803 -0.590509
F2    F     F_    0.373751 0.085582 0.557522 -0.563954
F3    F     F_    0.717648 0.883812 0.548474 -0.635737
F4    F     F_    0.398544 0.914731 0.438993 -0.589529
H1    H     H_    0.342290 0.502615 0.018175 0.086730
H2    H     H_    0.898955 0.426116 0.471497 0.215047
H3    H     H_    0.707702 0.109447 0.475094 0.117198
H4    H     H_    0.115190 0.465555 0.440231 0.212608
H5    H     H_    0.857355 0.651585 0.586886 0.197338
H6    H     H_    0.030497 0.686643 0.685015 0.117258
H7    H     H_    0.137573 0.559230 0.702288 0.157605
H8    H     H_    0.202732 0.688831 0.629254 0.191244
N1    N     N_2   0.152970 0.501340 0.501040 -0.322038
N2    N     N_2   0.846830 0.501370 0.501060 -0.351902
O1    O     O_R   0.382960 0.678040 0.499980 -0.481361
O2    O     O_R   0.617100 0.678080 0.500020 -0.472118
O3    O     O_R   0.366380 0.499950 0.637830 -0.520169
O4    O     O_R   0.600520 0.499990 0.637860 -0.474568
O5    O     O_R   0.382900 0.321920 0.499980 -0.437820
O6    O     O_R   0.617040 0.321960 0.500020 -0.543173
O7    O     O_R   0.399480 0.500010 0.362140 -0.495060
O8    O     O_R   0.633620 0.500050 0.362170 -0.482895

loop_
_geom_bond_atom_site_label_1
_geom_bond_atom_site_label_2
_ccdc_geom_bond_type
C14   F4    S    
C16   H5    S    
C7    C10   T    
C11   C12   D    
C6    C7    S    
C17   O3    A    
C16   N2    D    
C5    C8    S    
C11   C13   S    
C2    O5    A    
C9    H6    S    
C4    C8    T    
C6    H1    S    
Cu1   O5    S    
C2    C12   S    
C15   N1    D    
C5    F1    S    
C17   O4    A    
C13   C14   D    
Cu1   O1    S    
Cu2   O6    S    
C9    H7    S    
C2    O6    A    
C13   F3    S    
C9    C15   S    
C5    C6    D    
Cu1   N1    S    
C9    H8    S    
C10   C17   S    
C15   C16   S    
Cu2   O8    S    
H4    N1    S    
C1    O1    A    
C1    O2    A    
Cu1   Cu2   S    
Cu2   N2    S    
Cu1   O7    S    
C3    O8    A    
Cu2   O2    S    
C1    C14   S    
Cu2   O4    S    
C11   H3    S    
C3    O7    A    
Cu1   O3    S    
C12   F2    S    
C3    C4    S    
H2    N2    S    
