data_mof_unit_7111.cif
_audit_creation_date              2012-10-26T19:06:26-0400
_audit_creation_method            fapswitch 2.2
_symmetry_space_group_name_H-M    P1
_symmetry_Int_Tables_number       1
_space_group_crystal_system       triclinic
_cell_length_a                    12.344036
_cell_length_b                    13.117603
_cell_length_c                    14.338449
_cell_angle_alpha                 78.737636
_cell_angle_beta                  100.948378
_cell_angle_gamma                 116.358167
_cell_volume                      2026.18127671

loop_
_atom_site_label
_atom_site_type_symbol
_atom_type_description
_atom_site_fract_x
_atom_site_fract_y
_atom_site_fract_z
_atom_type_partial_charge
C1    C     C_R   0.854746 0.286380 0.508073 0.528464
C2    C     C_R   0.438199 0.977020 0.472733 -0.014367
C3    C     C_R   0.399087 0.052264 0.404803 0.046850
C4    C     C_R   0.000006 0.499779 0.668761 0.542889
C5    C     C_R   0.485382 0.158470 0.369204 -0.128496
C6    C     C_R   0.607899 0.192218 0.401448 -0.135476
C7    C     C_R   0.349346 0.870271 0.506133 -0.156822
C8    C     C_R   0.188882 0.910577 0.405199 -0.101012
C9    C     C_R   0.772213 0.163259 0.515414 -0.003326
C10   C     C_R   0.338555 0.320756 0.645148 0.040292
C11   C     C_R   0.759796 0.641170 0.372996 0.006790
C12   C     C_1   0.999995 0.500483 0.228815 -0.037924
C13   C     C_R   0.658588 0.661439 0.333956 -0.142262
C14   C     C_R   0.549524 0.604023 0.376751 0.277635
C15   C     C_R   0.546860 0.527677 0.463380 0.013061
C16   C     C_R   0.144941 0.713502 0.487671 0.546688
C17   C     C_R   0.651215 0.503963 0.495640 0.137009
C18   C     C_R   0.443917 0.470256 0.517675 -0.012321
C19   C     C_R   0.441691 0.381495 0.594079 0.002435
C20   C     C_R   0.541965 0.355089 0.617491 -0.149617
C21   C     C_R   0.645441 0.418127 0.572538 -0.095934
C22   C     C_R   0.344228 0.499636 0.501974 0.067907
C23   C     C_R   0.274092 0.018437 0.371336 0.280210
C24   C     C_R   0.240421 0.349619 0.619115 0.052490
C25   C     C_R   0.000069 0.500328 0.331232 0.538570
C26   C     C_1   0.000187 0.499770 0.771177 -0.035606
C27   C     C_1   0.000217 0.499889 0.856621 -0.033527
C28   C     C_1   0.000207 0.500117 0.957291 0.005874
C29   C     C_1   0.000166 0.500312 0.042711 0.003654
C30   C     C_1   0.000074 0.500471 0.143376 -0.038035
C31   C     C_2   0.328965 0.229110 0.726719 0.543280
C32   C     C_3   0.450711 0.713687 0.280375 -0.022346
C33   C     C_3   0.500207 0.805710 0.347919 -0.408203
C34   C     C_R   0.227164 0.834858 0.469202 -0.048478
C35   C     C_3   0.237224 0.077329 0.211973 -0.015919
C36   C     C_3   0.112665 0.994701 0.169892 -0.383721
C37   C     C_R   0.813886 0.086070 0.574193 -0.124562
C38   C     C_R   0.734038 0.972502 0.596283 -0.135347
C39   C     C_R   0.610672 0.935206 0.563873 -0.121991
C40   C     C_R   0.564600 0.010515 0.504369 0.037405
C41   C     C_R   0.648772 0.123192 0.473770 0.026628
Cu1   Cu    Cu3+1 0.098280 0.475420 0.520190 0.944205
Cu2   Cu    Cu3+1 0.901720 0.524580 0.479810 0.911342
H1    H     H_    0.093645 0.884101 0.377700 0.134203
H2    H     H_    0.554767 0.846071 0.584855 0.102258
H3    H     H_    0.767375 0.913548 0.641445 0.130553
H4    H     H_    0.670125 0.272073 0.366407 0.152785
H5    H     H_    0.159900 0.304260 0.655959 0.153196
H6    H     H_    0.223330 0.074154 0.791830 0.341378
H7    H     H_    0.357170 0.703443 0.250215 0.160465
H8    H     H_    0.502288 0.742225 0.217625 0.131226
H9    H     H_    0.598811 0.831549 0.371112 0.146785
H10   H     H_    0.487514 0.882862 0.310516 0.118446
H11   H     H_    0.450545 0.772726 0.411847 0.152501
H12   H     H_    0.543364 0.286143 0.672248 0.169570
H13   H     H_    0.307991 0.048900 0.205115 0.111259
H14   H     H_    0.260858 0.162298 0.167876 0.164654
H15   H     H_    0.041372 0.020502 0.179188 0.170791
H16   H     H_    0.113029 0.996066 0.092272 0.114711
H17   H     H_    0.090945 0.905934 0.205496 0.127649
H18   H     H_    0.342732 0.572728 0.453969 0.186185
H19   H     H_    0.841496 0.684355 0.337623 0.133822
H20   H     H_    0.665569 0.718063 0.267548 0.094390
H21   H     H_    0.718869 0.394868 0.600012 0.185521
H22   H     H_    0.458845 0.216138 0.315274 0.154754
H23   H     H_    0.372573 0.810984 0.559720 0.129563
H24   H     H_    0.907979 0.114257 0.605623 0.149181
N1    N     N_R   0.246290 0.438200 0.550780 -0.263714
N2    N     N_R   0.754310 0.561180 0.449760 -0.237210
O1    O     O_R   0.972510 0.318130 0.525390 -0.494032
O2    O     O_R   0.220231 0.129650 0.732380 -0.711619
O3    O     O_3   0.440933 0.604661 0.327497 -0.576630
O4    O     O_3   0.233790 0.091179 0.306783 -0.555274
O5    O     O_R   0.806530 0.359650 0.491290 -0.519624
O6    O     O_R   0.083010 0.479240 0.641000 -0.480398
O7    O     O_R   0.917030 0.520750 0.606900 -0.492539
O8    O     O_R   0.193470 0.640350 0.508710 -0.509704
O9    O     O_R   0.027490 0.681870 0.474610 -0.496529
O10   O     O_R   0.082970 0.479250 0.393100 -0.461622
O11   O     O_R   0.916990 0.520760 0.359000 -0.494957
O12   O     O_2   0.412908 0.242457 0.791095 -0.530377

loop_
_geom_bond_atom_site_label_1
_geom_bond_atom_site_label_2
_ccdc_geom_bond_type
C15   C18   A    
C17   N2    A    
C25   O11   A    
C3    C23   A    
C2    C7    A    
C11   H19   S    
C32   O3    S    
C33   H9    S    
C26   C27   T    
C29   C30   S    
C1    O5    A    
C28   C29   T    
C18   C19   A    
C36   H15   S    
C38   C39   A    
Cu1   O1    S    
C8    C23   A    
C16   O8    A    
C21   H21   S    
C16   C34   S    
C10   C31   S    
C19   C20   A    
C4    O6    A    
C6    C41   A    
C39   H2    S    
C36   H16   S    
Cu2   O5    S    
C31   O2    S    
Cu1   O10   S    
Cu2   N2    S    
C25   O10   A    
C13   C14   A    
Cu1   N1    S    
C23   O4    S    
C20   H12   S    
C33   H10   S    
C4    O7    A    
C6    H4    S    
C24   H5    S    
C1    C9    S    
C5    H22   S    
C39   C40   A    
C10   C24   A    
Cu2   O11   S    
C17   C21   A    
Cu2   O9    S    
C35   C36   S    
C32   H8    S    
C37   C38   A    
C13   H20   S    
C10   C19   A    
C32   H7    S    
C9    C37   A    
Cu1   O6    S    
C8    C34   A    
C22   N1    A    
C40   C41   A    
C7    C34   A    
Cu1   Cu2   S    
C33   H11   S    
C15   C17   A    
C35   O4    S    
C12   C30   T    
C35   H13   S    
C18   C22   A    
C14   O3    S    
C8    H1    S    
C3    C5    A    
C4    C26   S    
C11   N2    A    
C9    C41   A    
C1    O1    A    
C31   O12   D    
C12   C25   S    
C35   H14   S    
C32   C33   S    
C2    C3    A    
C22   H18   S    
C11   C13   A    
C5    C6    A    
C37   H24   S    
C16   O9    A    
C38   H3    S    
C24   N1    A    
C2    C40   A    
C20   C21   A    
Cu1   O8    S    
H6    O2    S    
C27   C28   S    
C36   H17   S    
C14   C15   A    
Cu2   O7    S    
C7    H23   S    
