data_mof_unit_50568.cif
_audit_creation_date              2012-12-10T16:58:30-0500
_audit_creation_method            fapswitch 2.2
_symmetry_space_group_name_H-M    P1
_symmetry_Int_Tables_number       1
_space_group_crystal_system       triclinic
_cell_length_a                    7.92241
_cell_length_b                    8.574096
_cell_length_c                    23.309644
_cell_angle_alpha                 91.987909
_cell_angle_beta                  85.538162
_cell_angle_gamma                 91.928572
_cell_volume                      1576.85576118

loop_
_atom_site_label
_atom_site_type_symbol
_atom_type_description
_atom_site_fract_x
_atom_site_fract_y
_atom_site_fract_z
_atom_type_partial_charge
C1    C     C_R   0.542576 0.793052 0.496790 0.944102
C2    C     C_R   0.596230 0.384169 0.295882 -0.213748
C3    C     C_R   0.391516 0.581092 0.766564 0.121299
C4    C     C_R   0.597402 0.377787 0.236383 0.126051
C5    C     C_R   0.497969 0.477277 0.790874 0.251443
C6    C     C_R   0.500599 0.483302 0.208873 0.252297
C7    C     C_2   0.554326 0.952580 0.484215 -0.074009
C8    C     C_2   0.444797 0.047395 0.515490 -0.075076
C9    C     C_R   0.501140 0.499976 0.610186 0.868062
C10   C     C_R   0.498668 0.498200 0.389879 0.867693
C11   C     C_R   0.386463 0.385448 0.121876 0.476089
C12   C     C_R   0.457323 0.206984 0.503193 0.945233
C13   C     C_R   0.619035 0.566036 0.877708 0.497961
C14   C     C_R   0.624036 0.565955 0.117327 0.495650
C15   C     C_R   0.383953 0.382790 0.882047 0.476706
C16   C     C_R   0.627200 0.565875 0.057452 -0.010811
C17   C     C_R   0.382924 0.380280 0.941860 -0.005840
C18   C     C_R   0.505650 0.473080 0.029745 -0.026166
C19   C     C_R   0.504590 0.472884 0.969586 -0.026913
C20   C     C_R   0.384528 0.381226 0.062077 -0.005863
C21   C     C_R   0.624595 0.566013 0.937325 -0.010231
C22   C     C_R   0.747428 0.656748 0.024893 -0.166552
C23   C     C_R   0.605377 0.379638 0.755672 0.205687
C24   C     C_R   0.263583 0.288392 0.974392 -0.165749
C25   C     C_R   0.745993 0.656980 0.965263 -0.165815
C26   C     C_R   0.264259 0.288996 0.034074 -0.165974
C27   C     C_3   0.718121 0.263577 0.780221 -0.413950
C28   C     C_3   0.905186 0.311414 0.769805 -0.776024
C29   C     C_3   0.299629 0.712530 0.212936 -0.395250
C30   C     C_3   0.380042 0.876527 0.217352 -0.810351
C31   C     C_3   0.667010 0.999098 0.429996 -0.423599
C32   C     C_3   0.656409 0.882873 0.379088 -0.865511
C33   C     C_3   0.330261 0.999651 0.569178 -0.420814
C34   C     C_R   0.402779 0.595244 0.241020 0.203177
C35   C     C_3   0.328971 0.118889 0.619495 -0.865671
C36   C     C_3   0.016350 0.384873 0.430987 -0.117171
C37   C     C_3   0.032818 0.499818 0.381852 -0.798599
C38   C     C_3   0.983591 0.616804 0.568681 -0.111454
C39   C     C_3   0.967688 0.503704 0.618291 -0.819108
C40   C     C_R   0.604999 0.388609 0.696174 -0.273327
C41   C     C_R   0.401370 0.597674 0.300824 -0.271689
C42   C     C_R   0.501607 0.493570 0.672099 -0.107061
C43   C     C_R   0.497393 0.492828 0.327963 -0.105258
C44   C     C_R   0.393653 0.588131 0.707179 -0.215453
H1    H     H_    0.842149 0.728506 0.045355 0.188236
H2    H     H_    0.929890 0.429402 0.789104 0.292354
H3    H     H_    0.983503 0.226759 0.789975 0.282935
H4    H     H_    0.688652 0.251131 0.827183 0.218431
H5    H     H_    0.695647 0.146469 0.759742 0.213518
H6    H     H_    0.385505 0.915701 0.263113 0.250255
H7    H     H_    0.510276 0.878413 0.195928 0.285228
H8    H     H_    0.303291 0.959674 0.195756 0.276411
H9    H     H_    0.286768 0.682042 0.166807 0.218429
H10   H     H_    0.169225 0.712635 0.234337 0.221111
H11   H     H_    0.198701 0.611783 0.827627 0.214585
H12   H     H_    0.169026 0.216475 0.953912 0.189011
H13   H     H_    0.355917 0.750542 0.828462 0.204377
H14   H     H_    0.617707 0.193414 0.180058 0.201287
H15   H     H_    0.785037 0.321890 0.176081 0.219844
H16   H     H_    0.723404 0.775060 0.386638 0.284830
H17   H     H_    0.521956 0.854851 0.371834 0.248415
H18   H     H_    0.718496 0.934838 0.339517 0.254688
H19   H     H_    0.630512 0.110824 0.412650 0.218628
H20   H     H_    0.800761 0.011581 0.441102 0.217944
H21   H     H_    0.460725 0.152796 0.628439 0.250852
H22   H     H_    0.257932 0.223139 0.610352 0.285309
H23   H     H_    0.839737 0.728815 0.941218 0.188069
H24   H     H_    0.264922 0.066429 0.658662 0.252356
H25   H     H_    0.198613 0.979374 0.556704 0.218037
H26   H     H_    0.372340 0.891410 0.587733 0.218657
H27   H     H_    0.911120 0.517412 0.363502 0.257611
H28   H     H_    0.083157 0.615632 0.396465 0.255692
H29   H     H_    0.117571 0.450542 0.346207 0.235837
H30   H     H_    0.135086 0.325881 0.435678 0.199788
H31   H     H_    0.925452 0.290083 0.419133 0.146707
H32   H     H_    0.920499 0.386627 0.603843 0.255869
H33   H     H_    0.088993 0.489268 0.637297 0.254649
H34   H     H_    0.170159 0.217578 0.058140 0.188357
H35   H     H_    0.880674 0.552624 0.653381 0.242869
H36   H     H_    0.074216 0.712234 0.580085 0.146113
H37   H     H_    0.864579 0.675006 0.563837 0.200363
H38   H     H_    0.683622 0.311678 0.668585 0.158138
H39   H     H_    0.326543 0.682410 0.326182 0.155526
H40   H     H_    0.312689 0.668808 0.688413 0.163504
H41   H     H_    0.670799 0.303039 0.317165 0.160573
H42   H     H_    0.943858 0.311595 0.723011 0.241703
N1    N     N_R   0.504264 0.477534 0.147825 -0.360215
N2    N     N_R   0.500190 0.475282 0.851727 -0.359985
N3    N     N_2   0.950330 0.457950 0.484560 -0.029445
N4    N     N_2   0.049670 0.542050 0.515440 -0.029029
N5    N     N_3   0.282000 0.681269 0.801691 -0.442857
N6    N     N_3   0.697609 0.263738 0.204402 -0.445835
O1    O     O_R   0.389250 0.738570 0.503790 -0.637011
O2    O     O_2   0.730552 0.656060 0.845760 -0.574917
O3    O     O_2   0.738763 0.653681 0.145095 -0.574294
O4    O     O_2   0.270330 0.294042 0.854188 -0.585980
O5    O     O_R   0.610750 0.261430 0.496210 -0.638264
O6    O     O_R   0.678390 0.711620 0.493890 -0.634928
O7    O     O_R   0.321610 0.288380 0.506110 -0.634362
O8    O     O_R   0.355400 0.513520 0.588790 -0.632206
O9    O     O_R   0.644600 0.486480 0.411210 -0.632825
O10   O     O_R   0.644550 0.486570 0.578900 -0.623348
O11   O     O_R   0.355450 0.513430 0.421100 -0.624413
O12   O     O_2   0.271460 0.299542 0.154067 -0.578497
Zn1   Zn    Zn3+2 0.306930 0.518000 0.506610 0.916171
Zn2   Zn    Zn3+2 0.693070 0.482000 0.493390 0.916732

loop_
_geom_bond_atom_site_label_1
_geom_bond_atom_site_label_2
_ccdc_geom_bond_type
C27   H4    S    
C36   N3    S    
C30   H7    S    
C28   H3    S    
C25   H23   S    
C7    C8    D    
C28   H2    S    
C9    C42   S    
C26   H34   S    
C38   H36   S    
C39   H33   S    
C36   C37   S    
C19   C21   A    
C24   C26   A    
C32   H17   S    
C38   C39   S    
C29   H10   S    
C35   H21   S    
C23   C40   A    
C41   H39   S    
C2    H41   S    
C3    N5    S    
C18   C19   A    
C12   O7    A    
C30   H8    S    
O1    Zn1   S    
C5    N2    S    
C11   N1    A    
C9    O10   A    
C22   C25   A    
N3    Zn2   S    
H11   N5    S    
C11   O12   S    
C23   C27   S    
C33   H25   S    
C8    C33   S    
C40   C42   A    
C30   H6    S    
C41   C43   A    
C34   C41   A    
C42   C44   A    
O7    Zn1   S    
C3    C44   A    
C17   C24   A    
C7    C31   S    
C31   H19   S    
C4    C6    A    
C15   O4    S    
C17   C19   A    
C35   H22   S    
C44   H40   S    
C11   C20   A    
C6    N1    S    
C6    C34   A    
C39   H35   S    
C2    C4    A    
C29   C30   S    
C36   H31   S    
C40   H38   S    
C31   C32   S    
C5    C23   A    
C2    C43   A    
C8    C12   S    
O8    Zn1   S    
C13   C21   A    
O11   Zn1   S    
C39   H32   S    
C12   O5    A    
C36   H30   S    
C33   H26   S    
O5    Zn2   S    
C16   C18   A    
C9    O8    A    
C37   H27   S    
C38   H37   S    
C28   H42   S    
C14   C16   A    
C32   H16   S    
C14   O3    S    
O9    Zn2   S    
C15   C17   A    
C21   C25   A    
C10   O11   A    
C16   C22   A    
H13   N5    S    
C10   C43   S    
C1    C7    S    
C31   H20   S    
C10   O9    A    
N4    Zn1   S    
C3    C5    A    
C1    O6    A    
C14   N1    A    
C24   H12   S    
C38   N4    S    
C37   H29   S    
O6    Zn2   S    
C13   O2    S    
C32   H18   S    
C20   C26   A    
C29   H9    S    
C35   H24   S    
C29   C34   S    
C13   N2    A    
C33   C35   S    
O10   Zn2   S    
C18   C20   A    
H15   N6    S    
C22   H1    S    
C1    O1    A    
C37   H28   S    
C27   C28   S    
N3    N4    D    
H14   N6    S    
C27   H5    S    
C15   N2    A    
C4    N6    S    
