data_mof_unit_34353.cif
_audit_creation_date              2012-12-11T16:37:11-0500
_audit_creation_method            fapswitch 2.2
_symmetry_space_group_name_H-M    P1
_symmetry_Int_Tables_number       1
_space_group_crystal_system       triclinic
_cell_length_a                    19.116957
_cell_length_b                    18.910867
_cell_length_c                    20.717137
_cell_angle_alpha                 107.318598
_cell_angle_beta                  106.810749
_cell_angle_gamma                 110.839445
_cell_volume                      5991.35331023

loop_
_atom_site_label
_atom_site_type_symbol
_atom_type_description
_atom_site_fract_x
_atom_site_fract_y
_atom_site_fract_z
_atom_type_partial_charge
C1    C     C_R   0.074811 0.086703 0.349803 0.452275
C2    C     C_R   0.245003 0.068898 0.517960 0.515942
C3    C     C_R   0.155664 0.220834 0.711826 0.604349
C4    C     C_R   0.754788 0.928978 0.478911 0.508983
C5    C     C_R   0.002636 0.766382 0.433189 -0.119457
C6    C     C_R   0.233049 0.268231 0.715434 -0.154501
C7    C     C_R   0.951833 0.711869 0.451564 -0.015579
C8    C     C_R   0.252442 0.996663 0.490472 -0.051440
C9    C     C_R   0.018372 0.977181 0.724215 -0.088666
C10   C     C_R   0.882168 0.374534 0.460066 -0.163679
C11   C     C_R   0.911109 0.326904 0.487556 -0.171353
C12   C     C_R   0.744513 0.000328 0.494857 -0.128864
C13   C     C_R   0.945227 0.283912 0.450711 0.151935
C14   C     C_R   0.943332 0.283450 0.382308 -0.162081
C15   C     C_R   0.914241 0.331269 0.354704 -0.182221
C16   C     C_R   0.839012 0.812546 0.281441 -0.110830
C17   C     C_R   0.887296 0.380404 0.395502 0.117022
C18   C     C_R   0.954809 0.507008 0.379266 -0.165290
C19   C     C_R   0.973558 0.590349 0.397732 -0.161282
C20   C     C_R   0.923496 0.620778 0.420743 0.147088
C21   C     C_R   0.849423 0.564244 0.417243 -0.159639
C22   C     C_R   0.830567 0.480474 0.398609 -0.180698
C23   C     C_R   0.757809 0.786203 0.273009 0.022753
C24   C     C_R   0.886080 0.452975 0.384193 0.113124
C25   C     C_R   0.518486 0.929729 0.391659 -0.216600
C26   C     C_R   0.592870 0.927753 0.410413 -0.186573
C27   C     C_R   0.668011 0.003061 0.460047 0.147902
C28   C     C_R   0.963765 0.210456 0.533630 -0.082248
C29   C     C_R   0.669144 0.081034 0.474727 -0.177296
C30   C     C_R   0.594479 0.082956 0.453142 -0.108793
C31   C     C_R   0.519881 0.007340 0.420763 0.137298
C32   C     C_R   0.468881 0.055053 0.514311 0.534383
C33   C     C_R   0.402852 0.050925 0.531123 -0.267131
C34   C     C_R   0.981692 0.239102 0.483260 0.005196
C35   C     C_R   0.321276 0.994984 0.475740 0.078030
C36   C     C_R   0.305048 0.942705 0.403124 -0.173928
C37   C     C_R   0.370101 0.950311 0.384485 -0.238976
C38   C     C_R   0.452132 0.007747 0.438989 -0.046686
C39   C     C_R   0.298315 0.355578 0.768335 0.179924
C40   C     C_R   0.761691 0.804493 0.344512 -0.152184
C41   C     C_R   0.279126 0.419646 0.796896 -0.179093
C42   C     C_R   0.343075 0.500133 0.851917 -0.202794
C43   C     C_R   0.426795 0.517637 0.875987 0.235778
C44   C     C_R   0.445610 0.456511 0.840579 -0.182943
C45   C     C_R   0.231782 0.224580 0.648522 -0.193983
C46   C     C_R   0.381886 0.375603 0.787790 -0.197541
C47   C     C_R   0.620706 0.720994 0.070809 -0.165364
C48   C     C_R   0.690825 0.760128 0.139523 -0.183440
C49   C     C_R   0.541042 0.672158 0.063836 0.219555
C50   C     C_R   0.682761 0.751488 0.202414 0.148325
C51   C     C_R   0.602545 0.709418 0.196936 -0.180876
C52   C     C_R   0.034545 0.211265 0.464921 -0.149376
C53   C     C_R   0.532287 0.670649 0.128154 -0.180340
C54   C     C_R   0.061980 0.017475 0.215713 -0.097222
C55   C     C_R   0.113084 0.984209 0.197092 0.405638
C56   C     C_R   0.922022 0.756142 0.492010 -0.017902
C57   C     C_R   0.108653 0.962395 0.124495 0.469432
C58   C     C_R   0.065298 0.988048 0.077002 0.053766
C59   C     C_R   0.018878 0.024931 0.097797 -0.255664
C60   C     C_R   0.014703 0.036721 0.165473 -0.270442
C61   C     C_R   0.164619 0.039506 0.921680 -0.292812
C62   C     C_R   0.133680 0.040196 0.852502 -0.169889
C63   C     C_R   0.122158 0.968807 0.930666 0.092976
C64   C     C_R   0.823427 0.069432 0.539229 -0.208039
C65   C     C_R   0.059424 0.970347 0.792347 0.129190
C66   C     C_R   0.023682 0.895842 0.799599 -0.338756
C67   C     C_R   0.173342 0.928279 0.454027 -0.225127
C68   C     C_R   0.056959 0.893598 0.867790 0.586719
C69   C     C_R   0.006569 0.945726 0.286807 -0.175148
C70   C     C_R   0.045651 0.018315 0.280493 -0.019996
C71   C     C_3   0.121838 0.202816 0.326214 0.145258
C72   C     C_3   0.171725 0.299557 0.367495 -0.275468
C73   C     C_3   0.143721 0.338746 0.317439 -1.021242
C74   C     C_3   0.836365 0.798792 0.611586 -0.381495
C75   C     C_3   0.298238 0.194735 0.511873 0.152198
C76   C     C_3   0.376857 0.280900 0.549883 -0.253051
C77   C     C_3   0.365171 0.337510 0.513481 -1.011474
C78   C     C_R   0.033976 0.051705 0.717344 -0.251176
C79   C     C_3   0.169726 0.277016 0.833006 -0.322783
C80   C     C_3   0.678964 0.856719 0.527465 0.150068
C81   C     C_3   0.621617 0.768228 0.514586 -0.264509
C82   C     C_3   0.599525 0.771608 0.580164 -1.019888
C83   C     C_3   0.578263 0.057442 0.599935 0.194657
C84   C     C_3   0.564643 0.060130 0.669700 -0.310083
C85   C     C_3   0.602045 0.013775 0.704658 -1.004000
C86   C     C_3   0.215117 0.935424 0.116516 -0.145364
C87   C     C_3   0.032942 0.759940 0.843246 -0.200951
C88   C     C_3   0.228168 0.043006 0.309761 0.167848
C89   C     C_R   0.960751 0.912031 0.653147 0.617756
C90   C     C_3   0.309745 0.068644 0.301990 -0.329689
C91   C     C_3   0.384011 0.143816 0.373525 -0.989718
H1    H     H_    0.869143 0.727216 0.501900 0.126761
H2    H     H_    0.030845 0.632209 0.399447 0.112013
H3    H     H_    0.807952 0.585105 0.432039 0.104791
H4    H     H_    0.776512 0.439197 0.401625 0.115645
H5    H     H_    0.460907 0.870300 0.363547 0.129532
H6    H     H_    0.590036 0.866694 0.391095 0.165686
H7    H     H_    0.726546 0.140595 0.507235 0.116335
H8    H     H_    0.595465 0.143404 0.472046 0.138918
H9    H     H_    0.858841 0.806087 0.237322 0.094799
H10   H     H_    0.415304 0.090228 0.587620 0.172846
H11   H     H_    0.241884 0.899471 0.359290 0.153088
H12   H     H_    0.154265 0.863346 0.418696 0.131705
H13   H     H_    0.356424 0.911490 0.327387 0.140605
H14   H     H_    0.751330 0.795199 0.142507 0.120521
H15   H     H_    0.629203 0.725138 0.022341 0.128851
H16   H     H_    0.509892 0.469699 0.858298 0.126865
H17   H     H_    0.397901 0.327657 0.764249 0.136756
H18   H     H_    0.593809 0.702593 0.244460 0.116680
H19   H     H_    0.327440 0.547576 0.877361 0.130344
H20   H     H_    0.471378 0.633577 0.123650 0.120512
H21   H     H_    0.929734 0.226115 0.563310 0.085274
H22   H     H_    0.214959 0.406828 0.778503 0.159381
H23   H     H_    0.075263 0.114348 0.761739 0.176236
H24   H     H_    0.165070 0.097361 0.847932 0.123473
H25   H     H_    0.215948 0.097024 0.970060 0.150663
H26   H     H_    0.983345 0.041767 0.059893 0.163691
H27   H     H_    0.973583 0.059775 0.178248 0.153137
H28   H     H_    0.966431 0.840955 0.755638 0.208835
H29   H     H_    0.709259 0.789400 0.357070 0.163705
H30   H     H_    0.061146 0.223953 0.428308 0.145236
H31   H     H_    0.838027 0.133345 0.571070 0.123642
H32   H     H_    0.987942 0.882261 0.248027 0.142479
H33   H     H_    0.276308 0.251912 0.629757 0.167102
H34   H     H_    0.024263 0.749154 0.391215 0.094706
H35   H     H_    0.054230 0.183833 0.298844 0.094359
H36   H     H_    0.142905 0.182162 0.282940 0.125979
H37   H     H_    0.164276 0.323843 0.419487 0.203251
H38   H     H_    0.238850 0.319982 0.383869 0.203092
H39   H     H_    0.150965 0.315787 0.265066 0.268697
H40   H     H_    0.182580 0.408696 0.348188 0.272692
H41   H     H_    0.077381 0.322222 0.302368 0.263987
H42   H     H_    0.807352 0.802829 0.558845 0.167980
H43   H     H_    0.824892 0.834648 0.657091 0.157388
H44   H     H_    0.805379 0.731321 0.599698 0.188890
H45   H     H_    0.863060 0.412865 0.493442 0.118727
H46   H     H_    0.242914 0.203438 0.508036 0.151244
H47   H     H_    0.289089 0.160388 0.454203 0.113849
H48   H     H_    0.393266 0.313554 0.610622 0.200317
H49   H     H_    0.429853 0.271327 0.545879 0.208447
H50   H     H_    0.350979 0.307409 0.453175 0.263299
H51   H     H_    0.423475 0.399109 0.542427 0.269673
H52   H     H_    0.313679 0.349386 0.518566 0.271555
H53   H     H_    0.202494 0.346897 0.864289 0.177877
H54   H     H_    0.215678 0.253356 0.843549 0.118907
H55   H     H_    0.127670 0.253320 0.857808 0.172738
H56   H     H_    0.910990 0.328157 0.540038 0.109223
H57   H     H_    0.645598 0.894282 0.532431 0.112348
H58   H     H_    0.736595 0.887551 0.581293 0.098672
H59   H     H_    0.563263 0.737958 0.461767 0.200643
H60   H     H_    0.652820 0.728763 0.508081 0.194360
H61   H     H_    0.656987 0.801154 0.633539 0.267636
H62   H     H_    0.558464 0.706396 0.569387 0.273143
H63   H     H_    0.565884 0.808612 0.586134 0.266113
H64   H     H_    0.646361 0.085847 0.616598 0.134843
H65   H     H_    0.549733 0.990361 0.557353 0.084371
H66   H     H_    0.594245 0.127054 0.712156 0.216123
H67   H     H_    0.966349 0.248239 0.351151 0.106099
H68   H     H_    0.496725 0.029818 0.653802 0.194148
H69   H     H_    0.571990 0.946258 0.663554 0.264563
H70   H     H_    0.591449 0.016963 0.755154 0.274712
H71   H     H_    0.670313 0.043518 0.722107 0.266247
H72   H     H_    0.247027 0.003239 0.128792 0.075202
H73   H     H_    0.225200 0.900001 0.069969 0.151685
H74   H     H_    0.243732 0.925333 0.165218 0.155521
H75   H     H_    0.101297 0.782047 0.867915 0.122548
H76   H     H_    0.006606 0.736853 0.781036 0.131071
H77   H     H_    0.002993 0.705465 0.854046 0.177274
H78   H     H_    0.918029 0.334438 0.304382 0.114980
H79   H     H_    0.236103 0.031430 0.359918 0.136271
H80   H     H_    0.215929 0.097694 0.320619 0.105305
H81   H     H_    0.322649 0.014765 0.289214 0.215741
H82   H     H_    0.303634 0.086807 0.255300 0.177957
H83   H     H_    0.375523 0.200559 0.384692 0.264140
H84   H     H_    0.441984 0.157777 0.366250 0.267120
H85   H     H_    0.391288 0.129632 0.422548 0.276869
H86   H     H_    0.999274 0.487899 0.369176 0.119825
N1    N     N_R   0.051550 0.054780 0.395070 -0.088765
N2    N     N_2   0.471838 0.612757 0.992849 -0.103953
N3    N     N_2   0.063545 0.974438 0.005910 -0.029499
N4    N     N_R   0.835860 0.954800 0.499920 -0.090595
N5    N     N_2   0.129638 0.980957 0.002954 -0.053812
N6    N     N_R   0.889940 0.849160 0.355180 -0.038979
N7    N     N_R   0.997480 0.160420 0.539810 -0.037285
N8    N     N_R   0.842280 0.845520 0.395070 -0.044569
N9    N     N_R   0.045130 0.164060 0.499920 -0.041979
N10   N     N_R   0.878630 0.041580 0.539810 -0.058312
N11   N     N_R   0.008780 0.968000 0.355180 -0.071603
N12   N     N_R   0.954870 0.835940 0.500080 -0.050488
N13   N     N_R   0.157720 0.154480 0.604930 -0.073709
N14   N     N_R   0.121370 0.958420 0.460190 -0.063200
N15   N     N_R   0.991220 0.032000 0.644820 -0.063835
N16   N     N_R   0.948450 0.945220 0.604930 -0.112044
N17   N     N_R   0.164140 0.045200 0.500080 -0.103060
N18   N     N_R   0.110060 0.150840 0.644820 -0.090619
N19   N     N_R   0.002520 0.839580 0.460190 -0.041051
N20   N     N_2   0.492738 0.590087 0.941884 -0.104511
Ni1   Ni    Ni4+2 0.103690 0.103690 0.500000 0.218013
Ni2   Ni    Ni4+2 0.896310 0.896310 0.500000 0.218624
Ni3   Ni    Ni4+2 0.005600 0.904650 0.408510 0.199135
Ni4   Ni    Ni4+2 0.994400 0.095350 0.591490 0.242289
O1    O     O_3   0.138160 0.168801 0.377617 -0.707268
O2    O     O_3   0.922328 0.827074 0.634092 -0.643467
O3    O     O_3   0.310085 0.150824 0.554700 -0.690852
O4    O     O_3   0.120263 0.250212 0.755830 -0.631011
O5    O     O_3   0.698982 0.849721 0.466069 -0.712272
O6    O     O_3   0.549338 0.106567 0.571804 -0.674224
O7    O     O_3   0.128485 0.900822 0.093389 -0.575132
O8    O     O_3   0.015556 0.823866 0.877433 -0.596308
O9    O     O_3   0.162189 0.966509 0.246561 -0.645902

loop_
_geom_bond_atom_site_label_1
_geom_bond_atom_site_label_2
_ccdc_geom_bond_type
C25   C31   A    
C71   O1    S    
C80   O5    S    
C73   H40   S    
C6    C45   A    
C27   C29   A    
C52   H30   S    
C85   H70   S    
C41   C42   A    
C66   C68   A    
C35   C36   A    
N19   Ni3   S    
C3    C6    A    
C81   C82   S    
N4    N10   A    
C16   N6    A    
C67   H12   S    
C72   H38   S    
C79   H54   S    
C54   C60   A    
C28   H21   S    
C90   H82   S    
C26   C27   A    
C29   C30   A    
C29   H7    S    
C72   H37   S    
C18   C24   A    
C36   C37   A    
C10   H45   S    
C56   N12   A    
N6    N8    A    
C30   C31   A    
C12   C64   A    
C67   N14   A    
C44   H16   S    
C87   H75   S    
C83   H64   S    
C21   H3    S    
N11   Ni3   S    
C10   C17   A    
C81   H59   S    
C74   H42   S    
C62   H24   S    
C15   H78   S    
C36   H11   S    
C18   C19   A    
C22   H4    S    
C61   C63   A    
C77   H51   S    
C83   O6    S    
C54   C55   A    
C82   H62   S    
C87   H76   S    
C83   C84   S    
C18   H86   S    
C44   C46   A    
C46   H17   S    
N15   Ni4   S    
C71   H35   S    
C60   H27   S    
C85   H69   S    
C32   C38   A    
C4    N4    A    
C4    C12   A    
C90   H81   S    
C61   C62   A    
C19   H2    S    
C72   C73   S    
N1    N11   A    
C53   H20   S    
C48   C50   A    
N1    Ni1   S    
C73   H41   S    
C28   C34   A    
C59   C60   A    
C59   H26   S    
C88   H80   S    
C88   O9    S    
C13   C14   A    
C85   H71   S    
C87   O8    S    
C71   H36   S    
C78   H23   S    
C86   H74   S    
C52   N9    A    
C7    C56   A    
C1    O1    S    
C84   H68   S    
N3    N5    D    
C79   H55   S    
C57   C58   A    
C76   H49   S    
C45   H33   S    
C80   H58   S    
C57   O7    S    
C17   C24   S    
C88   H79   S    
C12   C27   S    
C91   H84   S    
C3    O4    S    
C47   C48   A    
C2    O3    S    
C84   C85   S    
C39   C41   A    
C75   H46   S    
C86   O7    S    
C5    C7    A    
C16   H9    S    
C23   C50   S    
C83   H65   S    
N2    N20   D    
C25   C26   A    
C81   H60   S    
C30   H8    S    
C3    N18   A    
C91   H83   S    
C2    N17   A    
C8    C35   S    
C75   C76   S    
C77   H52   S    
C37   C38   A    
C68   O8    S    
C1    N1    A    
C48   H14   S    
C54   C70   S    
C56   H1    S    
C84   H66   S    
C47   H15   S    
C89   N16   A    
C74   H44   S    
C61   H25   S    
C50   C51   A    
C78   N15   A    
C43   N20   S    
C76   C77   S    
C32   O6    S    
N8    Ni2   S    
C69   N11   A    
N13   N18   A    
C25   H5    S    
C39   C46   A    
N18   Ni4   S    
C89   O2    S    
C88   C90   S    
C65   C66   A    
C16   C23   A    
C66   H28   S    
C5    N19   A    
C87   H77   S    
C33   H10   S    
C58   C59   A    
C86   H73   S    
C42   C43   A    
C9    C89   A    
N16   Ni2   S    
N4    Ni2   S    
N13   Ni1   S    
C76   H48   S    
C15   C17   A    
N10   Ni4   S    
C73   H39   S    
N7    Ni4   S    
C62   C65   A    
C40   H29   S    
C14   C15   A    
C2    C8    A    
N6    Ni3   S    
C41   H22   S    
C80   C81   S    
C14   H67   S    
C75   H47   S    
N12   Ni2   S    
C13   C34   S    
C37   H13   S    
C75   O3    S    
C31   C38   S    
C4    O5    S    
C40   N8    A    
C47   C49   A    
C63   C68   A    
C34   C52   A    
C1    C70   A    
C79   H53   S    
N15   N16   A    
C19   C20   A    
C55   C57   A    
C42   H19   S    
N14   N17   A    
N14   Ni3   S    
C79   O4    S    
C64   N10   A    
C32   C33   A    
C55   O9    S    
C11   C13   A    
N12   N19   A    
C11   H56   S    
C90   C91   S    
N17   Ni1   S    
C43   C44   A    
C64   H31   S    
C74   H43   S    
C33   C35   A    
N7    N9    A    
C91   H85   S    
C22   C24   A    
C9    C78   A    
C28   N7    A    
C69   C70   A    
C9    C65   S    
C49   C53   A    
C10   C11   A    
C26   H6    S    
C82   H63   S    
C45   N13   A    
C80   H57   S    
C71   C72   S    
C20   C21   A    
C8    C67   A    
C51   H18   S    
C7    C20   S    
C74   O2    S    
C5    H34   S    
C63   N5    S    
C69   H32   S    
C6    C39   S    
N9    Ni1   S    
C58   N3    S    
C86   H72   S    
C51   C53   A    
C21   C22   A    
C77   H50   S    
C82   H61   S    
C23   C40   A    
C49   N2    S    
