data_mof_unit_47439.cif
_audit_creation_date              2012-12-10T17:11:55-0500
_audit_creation_method            fapswitch 2.2
_symmetry_space_group_name_H-M    P1
_symmetry_Int_Tables_number       1
_space_group_crystal_system       triclinic
_cell_length_a                    19.141243
_cell_length_b                    10.639263
_cell_length_c                    10.077223
_cell_angle_alpha                 88.171855
_cell_angle_beta                  89.931651
_cell_angle_gamma                 90.164248
_cell_volume                      2051.15887167

loop_
_atom_site_label
_atom_site_type_symbol
_atom_type_description
_atom_site_fract_x
_atom_site_fract_y
_atom_site_fract_z
_atom_type_partial_charge
C1    C     C_R   0.494935 0.262899 0.502370 0.949444
C2    C     C_R   0.853589 0.528915 0.504763 -0.194403
C3    C     C_2   0.449499 0.931177 0.432985 0.251821
C4    C     C_R   0.365214 0.501260 0.499891 0.911563
C5    C     C_2   0.505073 0.870522 0.485215 0.202822
C6    C     C_2   0.453907 0.067540 0.411701 0.393675
C7    C     C_2   0.479214 0.132097 0.512235 -0.309612
C8    C     C_2   0.531587 0.582870 0.925821 0.132687
C9    C     C_2   0.544845 0.561166 0.071869 0.011815
C10   C     C_R   0.501567 0.737154 0.497273 0.914382
C11   C     C_R   0.633945 0.499254 0.499929 0.886435
C12   C     C_R   0.288565 0.509589 0.502367 -0.122487
C13   C     C_R   0.255779 0.488889 0.625724 -0.265254
C14   C     C_R   0.184331 0.504009 0.640839 -0.052129
C15   C     C_R   0.144378 0.541541 0.529554 -0.013532
C16   C     C_R   0.175458 0.562685 0.404112 0.411570
C17   C     C_R   0.248113 0.543986 0.388948 -0.120850
C18   C     C_R   0.553569 0.705908 0.868817 0.109110
C19   C     C_R   0.507957 0.808567 0.875676 -0.161816
C20   C     C_R   0.531503 0.929940 0.842258 -0.128347
C21   C     C_R   0.600838 0.949631 0.803161 -0.029371
C22   C     C_R   0.646530 0.847750 0.796308 -0.169327
C23   C     C_R   0.928720 0.536465 0.520726 0.353362
C24   C     C_R   0.623042 0.726042 0.828907 -0.139969
C25   C     C_R   0.607757 0.618243 0.129577 0.135031
C26   C     C_R   0.671853 0.554805 0.124972 -0.105715
C27   C     C_R   0.732435 0.611244 0.173026 -0.137523
C28   C     C_R   0.729352 0.731188 0.225426 -0.119182
C29   C     C_R   0.665867 0.795674 0.228070 -0.137943
C30   C     C_R   0.605329 0.740063 0.178910 -0.101435
C31   C     C_R   0.153244 0.481817 0.774801 0.144034
C32   C     C_R   0.112943 0.575156 0.833878 -0.141391
C33   C     C_R   0.084178 0.553660 0.960222 -0.113926
C34   C     C_R   0.068668 0.544717 0.537997 0.322940
C35   C     C_R   0.095719 0.439410 0.028834 -0.077959
C36   C     C_R   0.136419 0.346759 0.971653 -0.141362
C37   C     C_R   0.165173 0.367709 0.845274 -0.145133
C38   C     C_R   0.279604 0.556279 0.254663 0.119949
C39   C     C_R   0.299025 0.674958 0.201989 -0.097157
C40   C     C_R   0.324583 0.687536 0.072198 -0.158111
C41   C     C_R   0.330142 0.581986 0.993795 -0.142856
C42   C     C_R   0.310445 0.463553 0.045391 -0.128544
C43   C     C_R   0.285225 0.450516 0.175499 -0.098581
C44   C     C_R   0.812137 0.622982 0.558983 0.455664
C45   C     C_R   0.739760 0.610293 0.555277 -0.378315
C46   C     C_R   0.709128 0.505054 0.500076 -0.248878
C47   C     C_R   0.750367 0.411055 0.443063 0.427097
C48   C     C_R   0.822787 0.424823 0.442321 0.374205
H1    H     H_    0.286121 0.461531 0.712639 0.169690
H2    H     H_    0.700317 0.863383 0.767075 0.136878
H3    H     H_    0.659399 0.648294 0.827690 0.143369
H4    H     H_    0.465793 0.338187 0.841958 0.368579
H5    H     H_    0.674815 0.461987 0.084234 0.155795
H6    H     H_    0.781725 0.561808 0.170150 0.153699
H7    H     H_    0.776207 0.774317 0.263437 0.161242
H8    H     H_    0.663676 0.889151 0.267165 0.179358
H9    H     H_    0.556822 0.792233 0.178024 0.145240
H10   H     H_    0.104087 0.664597 0.782427 0.136977
H11   H     H_    0.053070 0.625722 0.005127 0.158492
H12   H     H_    0.487733 0.085892 0.608715 0.124138
H13   H     H_    0.073326 0.422799 0.126511 0.169495
H14   H     H_    0.145699 0.258640 0.025265 0.136514
H15   H     H_    0.196364 0.294737 0.802007 0.127920
H16   H     H_    0.159554 0.620393 0.218730 0.340273
H17   H     H_    0.292745 0.757633 0.260403 0.159647
H18   H     H_    0.339246 0.779367 0.031948 0.129519
H19   H     H_    0.349729 0.591976 0.893201 0.152034
H20   H     H_    0.314631 0.381944 0.984475 0.136687
H21   H     H_    0.269347 0.358629 0.214067 0.131054
H22   H     H_    0.806845 0.781153 0.650732 0.332026
H23   H     H_    0.453824 0.477060 0.106416 0.235933
H24   H     H_    0.672341 0.297222 0.408251 0.329463
H25   H     H_    0.907790 0.369369 0.355133 0.330459
H26   H     H_    0.352961 0.928161 0.375694 0.327452
H27   H     H_    0.706996 0.682945 0.594916 0.156123
H28   H     H_    0.604257 0.867340 0.526460 0.325166
H29   H     H_    0.421668 0.059812 0.230251 0.328433
H30   H     H_    0.454776 0.794835 0.909889 0.113375
H31   H     H_    0.496284 0.008925 0.848642 0.132801
H32   H     H_    0.619128 0.043784 0.778081 0.152335
N1    N     N_R   0.032969 0.645431 0.488421 -0.112135
N2    N     N_R   0.963825 0.641553 0.480369 -0.104272
N3    N     N_R   0.964273 0.436882 0.573132 -0.151272
N4    N     N_R   0.033383 0.440781 0.581179 -0.164775
N5    N     N_2   0.500750 0.501330 0.852150 0.023873
N6    N     N_2   0.500770 0.501360 0.147810 -0.176972
O1    O     O_R   0.499990 0.319060 0.613040 -0.654899
O2    O     O_3   0.434193 0.125988 0.293120 -0.746965
O3    O     O_3   0.489104 0.387880 0.910254 -0.717287
O4    O     O_3   0.132161 0.595759 0.298451 -0.788452
O5    O     O_3   0.843499 0.724229 0.617924 -0.735792
O6    O     O_3   0.722594 0.305103 0.386615 -0.698706
O7    O     O_3   0.861454 0.334379 0.379832 -0.688430
O8    O     O_3   0.389176 0.866085 0.402890 -0.819680
O9    O     O_R   0.500010 0.319100 0.386900 -0.535135
O10   O     O_R   0.398130 0.499970 0.613110 -0.639864
O11   O     O_R   0.398150 0.500010 0.386970 -0.595961
O12   O     O_R   0.499990 0.680900 0.613100 -0.625010
O13   O     O_R   0.500010 0.680940 0.386960 -0.612248
O14   O     O_R   0.601850 0.499990 0.613030 -0.607140
O15   O     O_R   0.601870 0.500030 0.386890 -0.606970
O16   O     O_3   0.568412 0.931234 0.502306 -0.816881
Zn1   Zn    Zn3+2 0.499990 0.499970 0.650990 0.960033
Zn2   Zn    Zn3+2 0.500010 0.500030 0.349010 1.008281

loop_
_geom_bond_atom_site_label_1
_geom_bond_atom_site_label_2
_ccdc_geom_bond_type
C1    O1    A    
C16   O4    S    
C23   N2    A    
C47   O6    S    
H26   O8    S    
C19   C20   A    
H25   O7    S    
C14   C31   S    
C3    C6    S    
N6    Zn2   S    
N1    N2    A    
C27   H6    S    
C9    C25   S    
C41   H19   S    
C45   C46   A    
O9    Zn2   S    
C26   C27   A    
C23   N3    A    
C18   C24   A    
C21   C22   A    
C28   C29   A    
C18   C19   A    
C38   C39   A    
H24   O6    S    
C15   C16   A    
C30   H9    S    
C6    O2    S    
C8    N5    D    
C41   C42   A    
C10   O12   A    
C4    O10   A    
H22   O5    S    
H29   O2    S    
C2    C44   A    
C16   C17   A    
C12   C17   A    
C34   N1    A    
C32   H10   S    
C4    C12   S    
C15   C34   S    
N5    Zn1   S    
C22   H2    S    
C24   H3    S    
O13   Zn2   S    
C33   H11   S    
C40   H18   S    
C4    O11   A    
C42   H20   S    
C39   H17   S    
H4    O3    S    
C34   N4    A    
C36   H14   S    
C37   H15   S    
C28   H7    S    
H28   O16   S    
C48   O7    S    
C47   C48   A    
H16   O4    S    
C35   H13   S    
C39   C40   A    
N5    O3    S    
C8    C9    S    
C2    C48   A    
C25   C26   A    
O14   Zn1   S    
C8    C18   S    
C31   C37   A    
C11   O14   A    
C35   C36   A    
C19   H30   S    
C29   C30   A    
C9    N6    D    
H23   N6    S    
N3    N4    A    
C1    O9    A    
C11   O15   A    
C46   C47   A    
C12   C13   A    
C44   O5    S    
O1    Zn1   S    
C40   C41   A    
O15   Zn2   S    
C13   H1    S    
C42   C43   A    
C26   H5    S    
C7    H12   S    
C2    C23   S    
C44   C45   A    
C25   C30   A    
C5    O16   S    
C36   C37   A    
C20   H31   S    
C1    C7    S    
C31   C32   A    
C3    C5    D    
C6    C7    D    
C29   H8    S    
C45   H27   S    
C32   C33   A    
C38   C43   A    
C21   H32   S    
C33   C35   A    
C3    O8    S    
C22   C24   A    
C17   C38   S    
C10   O13   A    
O11   Zn2   S    
C5    C10   S    
C20   C21   A    
C43   H21   S    
O10   Zn1   S    
C27   C28   A    
C14   C15   A    
C11   C46   S    
C13   C14   A    
O12   Zn1   S    
