data_mof_unit_23990.cif
_audit_creation_date              2012-12-11T17:23:11-0500
_audit_creation_method            fapswitch 2.2
_symmetry_space_group_name_H-M    P1
_symmetry_Int_Tables_number       1
_space_group_crystal_system       triclinic
_cell_length_a                    22.412014
_cell_length_b                    7.097193
_cell_length_c                    19.398533
_cell_angle_alpha                 89.999084
_cell_angle_beta                  99.5422
_cell_angle_gamma                 89.997117
_cell_volume                      3042.88424708

loop_
_atom_site_label
_atom_site_type_symbol
_atom_type_description
_atom_site_fract_x
_atom_site_fract_y
_atom_site_fract_z
_atom_type_partial_charge
O1    O     O_R   0.443980 0.494320 0.557430 -0.533627
O2    O     O_R   0.556020 0.994320 0.442570 -0.533628
O3    O     O_R   0.441210 0.822520 0.414610 -0.537267
O4    O     O_R   0.558790 0.322520 0.585390 -0.537266
C1    C     C_R   0.426677 0.655387 0.388798 0.691196
C2    C     C_R   0.573322 0.155375 0.611202 0.691197
O5    O     O_R   0.436920 0.823940 0.555180 -0.536279
O6    O     O_R   0.563080 0.323940 0.444820 -0.536276
O7    O     O_R   0.551700 0.995760 0.584140 -0.534813
O8    O     O_R   0.448300 0.495760 0.415860 -0.534818
C3    C     C_R   0.421618 0.655405 0.574884 0.717345
C4    C     C_R   0.578382 0.155401 0.425116 0.717338
O9    O     O_3   0.537660 0.661290 0.509340 -0.370282
O10   O     O_3   0.462340 0.161290 0.490660 -0.370288
V1    V     V_3+5 0.493010 0.935560 0.498270 1.427842
V2    V     V_3+5 0.506990 0.435560 0.501730 1.427835
H1    H     H_    0.695282 0.822799 0.278008 0.136269
H2    H     H_    0.304727 0.322802 0.721991 0.136263
C5    C     C_R   0.762008 0.935689 0.221188 -0.224113
C6    C     C_R   0.237997 0.435685 0.778811 -0.224113
H3    H     H_    0.770810 0.800060 0.199336 0.204105
H4    H     H_    0.229199 0.300052 0.800662 0.204090
C7    C     C_R   0.793427 0.096385 0.204731 -0.004690
C8    C     C_R   0.206573 0.596379 0.795269 -0.004683
C9    C     C_R   0.781017 0.270710 0.233855 0.626160
C10   C     C_R   0.218978 0.770708 0.766146 0.626152
C11   C     C_R   0.737814 0.283568 0.278634 -0.236252
C12   C     C_R   0.262181 0.783572 0.721367 -0.236254
H5    H     H_    0.728852 0.419182 0.300452 0.140168
H6    H     H_    0.271138 0.919189 0.699550 0.140170
C13   C     C_R   0.706485 0.122720 0.295120 0.048677
C14   C     C_R   0.293515 0.622726 0.704880 0.048685
C15   C     C_R   0.718923 0.948698 0.266046 -0.150655
C16   C     C_R   0.281082 0.448699 0.733953 -0.150665
C17   C     C_1   0.838366 0.082054 0.158472 0.060437
C18   C     C_1   0.161635 0.582042 0.841528 0.060439
C19   C     C_1   0.661608 0.136049 0.341443 -0.018490
C20   C     C_1   0.338392 0.636061 0.658557 -0.018490
C21   C     C_1   0.623907 0.145928 0.379823 -0.190234
C22   C     C_1   0.376092 0.645941 0.620177 -0.190235
C23   C     C_1   0.876144 0.071713 0.120209 -0.155220
C24   C     C_1   0.123857 0.571701 0.879791 -0.155218
C25   C     C_R   0.632827 0.171584 0.804222 -0.157225
C26   C     C_R   0.367132 0.672553 0.195800 -0.157238
H7    H     H_    0.545617 0.195190 0.739969 0.107332
H8    H     H_    0.454340 0.696161 0.260053 0.107344
H9    H     H_    0.714959 0.164339 0.919336 0.128556
H10   H     H_    0.284982 0.665813 0.080698 0.128567
H11   H     H_    0.614292 0.191353 0.851894 0.115510
H12   H     H_    0.385647 0.692798 0.148140 0.115512
C27   C     C_R   0.615712 0.147941 0.678070 -0.037692
C28   C     C_R   0.384285 0.648024 0.321930 -0.037721
C29   C     C_R   0.910288 0.045860 0.760414 -0.156981
C30   C     C_R   0.089740 0.545199 0.239573 -0.156951
C31   C     C_R   0.873732 0.046673 0.695115 -0.112552
C32   C     C_R   0.126306 0.545720 0.304866 -0.112564
C33   C     C_R   0.811374 0.071138 0.688953 -0.156804
C34   C     C_R   0.188654 0.570433 0.311033 -0.156808
C35   C     C_R   0.783584 0.096013 0.748696 0.076792
C36   C     C_R   0.216422 0.595872 0.251302 0.076799
C37   C     C_R   0.821635 0.096292 0.815858 0.067650
C38   C     C_R   0.178358 0.596486 0.184148 0.067652
C39   C     C_R   0.719426 0.120383 0.744014 0.074488
C40   C     C_R   0.280570 0.620472 0.255987 0.074484
C41   C     C_R   0.695250 0.145611 0.806666 0.136328
C42   C     C_R   0.304721 0.646296 0.193350 0.136336
C43   C     C_R   0.733362 0.145349 0.871529 -0.195517
C44   C     C_R   0.266597 0.646363 0.128495 -0.195532
C45   C     C_R   0.795423 0.120874 0.876169 -0.188036
C46   C     C_R   0.204547 0.621636 0.123850 -0.188089
C47   C     C_R   0.678149 0.121214 0.679628 -0.213481
C48   C     C_R   0.321861 0.620988 0.320365 -0.213498
C49   C     C_R   0.593553 0.173504 0.740545 -0.166419
C50   C     C_R   0.406417 0.674194 0.259470 -0.166400
C51   C     C_R   0.885255 0.070735 0.821144 -0.084941
C52   C     C_R   0.114749 0.570650 0.178857 -0.084964
H13   H     H_    0.692889 0.103106 0.629922 0.094154
H14   H     H_    0.307140 0.602447 0.370061 0.094179
H15   H     H_    0.958595 0.025397 0.763647 0.121422
H16   H     H_    0.041444 0.524485 0.236334 0.121421
H17   H     H_    0.786232 0.069751 0.636599 0.111176
H18   H     H_    0.213806 0.568772 0.363382 0.111176
H19   H     H_    0.893941 0.027523 0.648628 0.128500
H20   H     H_    0.106116 0.526116 0.351343 0.128496
H21   H     H_    0.822831 0.121612 0.927686 0.109703
H22   H     H_    0.177129 0.622642 0.072339 0.109778
O11   O     O_R   0.051730 0.724670 0.084120 -0.534213
O12   O     O_R   0.948270 0.224670 0.915880 -0.534201
O13   O     O_R   0.063080 0.393540 0.944820 -0.534322
O14   O     O_R   0.936920 0.893540 0.055180 -0.534324
C53   C     C_R   0.078225 0.562116 0.924928 0.704737
C54   C     C_R   0.921775 0.062120 0.075072 0.704730
O15   O     O_R   0.058800 0.395030 0.085390 -0.536641
O16   O     O_R   0.941200 0.895030 0.914610 -0.536644
O17   O     O_R   0.943980 0.223310 0.057440 -0.529614
O18   O     O_R   0.056020 0.723310 0.942560 -0.529622
C55   C     C_R   0.072974 0.563516 0.111235 0.681317
C56   C     C_R   0.927027 0.063529 0.888765 0.681331
O19   O     O_3   0.962360 0.556290 0.990650 -0.369127
O20   O     O_3   0.037640 0.056290 0.009350 -0.369137
V3    V     V_3+5 0.006980 0.281990 0.001730 1.460174
V4    V     V_3+5 0.993020 0.781990 0.998270 1.460149
F1    F     F_    0.810757 0.428366 0.219058 -0.704522
F2    F     F_    0.189233 0.928363 0.780943 -0.704521

loop_
_geom_bond_atom_site_label_1
_geom_bond_atom_site_label_2
_ccdc_geom_bond_type
C25   C49   A    
C42   C44   A    
C39   C41   A    
O18   V4    S    
C11   H5    S    
C18   C24   T    
O1    C3    A    
H8    C50   S    
C40   C48   A    
O2    C4    A    
C2    O7    A    
O12   V3    S    
C51   C56   S    
C45   H21   S    
C37   C51   A    
O5    C3    A    
C8    C18   S    
H1    C15   S    
C36   C38   A    
C29   H15   S    
C8    C10   A    
C28   C50   A    
C34   H18   S    
C33   C35   A    
O16   C56   A    
C37   C45   A    
C38   C46   A    
H7    C49   S    
C24   C53   S    
O14   V4    S    
C48   H14   S    
C10   F2    S    
C53   O18   A    
C26   C42   A    
C6    C8    A    
C41   C43   A    
C13   C15   A    
C1    C28   S    
C14   C20   S    
C2    C27   S    
O13   C53   A    
C25   C41   A    
C6    C16   A    
O5    V1    S    
O6    V2    S    
C38   C52   A    
C29   C51   A    
C27   C47   A    
H9    C43   S    
C32   H20   S    
C30   H16   S    
C29   C31   A    
C30   C32   A    
C35   C37   A    
C11   C13   A    
C12   C14   A    
O4    C2    A    
C5    C15   A    
O15   V3    S    
C25   H11   S    
C52   C55   S    
C54   O17   A    
C13   C19   S    
C43   C45   A    
C14   C16   A    
O4    V2    S    
C5    C7    A    
C28   C48   A    
O11   V4    S    
O14   C54   A    
O6    C4    A    
C23   C54   S    
O20   V4    S    
O1    V2    S    
H10   C44   S    
C26   C50   A    
O2    V1    S    
H2    C16   S    
C30   C52   A    
O19   V3    S    
C39   C47   A    
C7    C17   S    
C31   C33   A    
C33   H17   S    
C31   H19   S    
C46   H22   S    
O15   C55   A    
C47   H13   S    
O3    V1    S    
C26   H12   S    
O13   V3    S    
C10   C12   A    
C9    F1    S    
C27   C49   A    
C6    H4    S    
O3    C1    A    
C9    C11   A    
C35   C39   A    
C36   C40   A    
C4    C21   S    
C12   H6    S    
O7    V1    S    
C1    O8    A    
C19   C21   T    
O8    V2    S    
C20   C22   T    
O20   V3    S    
C32   C34   A    
C7    C9    A    
C3    C22   S    
C17   C23   T    
O19   V4    S    
O16   V4    S    
C44   C46   A    
O9    V2    S    
O10   V1    S    
O11   C55   A    
C34   C36   A    
O12   C56   A    
O17   V3    S    
C40   C42   A    
C5    H3    S    
