data_mof_unit_11331.cif
_audit_creation_date              2012-10-26T21:08:11-0400
_audit_creation_method            fapswitch 2.2
_symmetry_space_group_name_H-M    P1
_symmetry_Int_Tables_number       1
_space_group_crystal_system       triclinic
_cell_length_a                    15.878376
_cell_length_b                    10.865898
_cell_length_c                    9.58242
_cell_angle_alpha                 90.456666
_cell_angle_beta                  89.858729
_cell_angle_gamma                 92.524849
_cell_volume                      1651.62073644

loop_
_atom_site_label
_atom_site_type_symbol
_atom_type_description
_atom_site_fract_x
_atom_site_fract_y
_atom_site_fract_z
_atom_type_partial_charge
C1    C     C_R   0.506791 0.263136 0.500179 0.548234
C2    C     C_R   0.549840 0.066242 0.881587 -0.108250
C3    C     C_R   0.508369 0.951494 0.890553 -0.114246
C4    C     C_R   0.339941 0.499765 0.500164 0.556300
C5    C     C_R   0.483178 0.888804 0.769134 -0.085859
C6    C     C_R   0.499939 0.940123 0.635511 0.038666
C7    C     C_R   0.525033 0.065948 0.629926 0.032712
C8    C     C_R   0.514749 0.129430 0.502557 -0.003168
C9    C     C_R   0.500542 0.062858 0.378660 -0.151983
C10   C     C_R   0.493513 0.935692 0.380489 -0.153387
C11   C     C_R   0.492879 0.872476 0.507386 0.004346
C12   C     C_3   0.083201 0.500354 0.501802 0.003141
C13   C     C_R   0.612014 0.663908 0.144967 -0.126285
C14   C     C_R   0.666647 0.744255 0.073431 -0.166064
C15   C     C_R   0.667073 0.744684 0.928519 0.238302
C16   C     C_R   0.495711 0.737688 0.501691 0.544820
C17   C     C_R   0.612084 0.663841 0.856762 -0.019638
C18   C     C_R   0.555029 0.580709 0.925681 0.095123
C19   C     C_R   0.554991 0.580702 0.075247 0.142070
C20   C     C_R   0.448022 0.422764 0.073446 0.003232
C21   C     C_R   0.448041 0.422804 0.925447 0.003369
C22   C     C_R   0.660016 0.500518 0.499866 0.543511
C23   C     C_3   0.974085 0.571030 0.606462 0.272879
C24   C     C_3   0.968445 0.388970 0.514188 0.214301
C25   C     C_3   0.026379 0.431557 0.392879 -0.136244
C26   C     C_1   0.250297 0.500198 0.500758 0.000275
C27   C     C_1   0.749578 0.501434 0.499433 0.032958
C28   C     C_3   0.026003 0.454721 0.623684 -0.109452
C29   C     C_3   0.916623 0.503448 0.499242 0.026271
C30   C     C_3   0.031728 0.615222 0.486900 0.257898
C31   C     C_3   0.974120 0.549024 0.377789 -0.166097
C32   C     C_1   0.174805 0.500461 0.501415 0.011169
C33   C     C_1   0.825037 0.502313 0.499092 0.058808
C34   C     C_R   0.558124 0.123614 0.752550 -0.071224
Cu1   Cu    Cu3+1 0.499990 0.499990 0.640660 0.935751
Cu2   Cu    Cu3+1 0.500010 0.500010 0.359340 0.943203
H1    H     H_    0.048370 0.371928 0.306789 0.142257
H2    H     H_    0.952653 0.589421 0.278670 0.149163
H3    H     H_    0.047169 0.414974 0.723334 0.144550
H4    H     H_    0.494649 0.109005 0.279567 0.135370
H5    H     H_    0.591983 0.212046 0.750129 0.156618
H6    H     H_    0.573306 0.112522 0.975076 0.117350
H7    H     H_    0.754818 0.874899 0.919188 0.344749
H8    H     H_    0.981145 0.215660 0.535668 0.335139
H9    H     H_    0.019154 0.788003 0.460116 0.347704
H10   H     H_    0.998815 0.771790 0.912213 0.367581
H11   H     H_    0.497256 0.909653 0.991499 0.108524
H12   H     H_    0.447882 0.802814 0.783479 0.152974
H13   H     H_    0.486941 0.886938 0.281771 0.136935
H14   H     H_    0.405463 0.359443 0.128370 0.117620
H15   H     H_    0.617699 0.671363 0.254935 0.193309
H16   H     H_    0.708857 0.806390 0.131811 0.120838
H17   H     H_    0.616647 0.671380 0.746811 0.212232
H18   H     H_    0.405515 0.359479 0.869664 0.125211
N1    N     N_R   0.500800 0.501210 0.147910 -0.235152
N2    N     N_R   0.500830 0.501290 0.852040 -0.252220
O1    O     O_R   0.499990 0.319640 0.618810 -0.515254
O2    O     O_3   0.932755 0.269779 0.527947 -0.656112
O3    O     O_3   0.067381 0.734534 0.473890 -0.641386
O4    O     O_2   0.891793 0.770175 0.687152 -0.255614
O5    O     O_2   0.881606 0.589722 0.839953 -0.271457
O6    O     O_3   0.022759 0.721225 0.836661 -0.496442
O7    O     O_R   0.500000 0.319660 0.381240 -0.503488
O8    O     O_R   0.379070 0.499980 0.618770 -0.492788
O9    O     O_R   0.379080 0.500000 0.381190 -0.491097
O10   O     O_R   0.500000 0.680340 0.618760 -0.540543
O11   O     O_R   0.500010 0.680360 0.381190 -0.523314
O12   O     O_R   0.620920 0.500000 0.618810 -0.510069
O13   O     O_R   0.620930 0.500020 0.381230 -0.515620
O14   O     O_3   0.720087 0.823501 0.853284 -0.636433
S1    S     S_3+6 0.938875 0.665427 0.745858 0.033424

loop_
_geom_bond_atom_site_label_1
_geom_bond_atom_site_label_2
_ccdc_geom_bond_type
C25   C31   S    
C26   C32   T    
C1    C8    S    
Cu1   Cu2   S    
Cu2   O11   S    
C7    C8    A    
C27   C33   T    
C12   C28   S    
C5    C6    A    
C23   C29   S    
C21   H18   S    
O4    S1    D    
C29   C33   S    
C18   C19   A    
C4    O9    A    
C20   H14   S    
C25   H1    S    
C13   H15   S    
C14   H16   S    
H8    O2    S    
C8    C9    A    
Cu1   O8    S    
Cu2   O7    S    
C9    C10   A    
C22   O13   A    
C18   N2    A    
O5    S1    D    
C13   C14   A    
C12   C32   S    
C34   H5    S    
C20   N1    A    
C1    O7    A    
C5    H12   S    
C13   C19   A    
C23   C30   S    
C23   S1    S    
C24   C25   S    
C6    C11   A    
Cu2   O9    S    
Cu1   O10   S    
C9    H4    S    
C1    O1    A    
C11   C16   S    
C30   O3    S    
C17   C18   A    
C16   O11   A    
C23   C28   S    
C22   O12   A    
H10   O6    S    
H7    O14   S    
C22   C27   S    
C7    C34   A    
C16   O10   A    
C17   H17   S    
Cu2   O13   S    
C19   N1    A    
C15   C17   A    
C15   O14   S    
H9    O3    S    
C12   C30   S    
Cu1   N2    S    
C24   C28   S    
C3    C5    A    
C21   N2    A    
C4    C26   S    
C6    C7    A    
C4    O8    A    
C28   H3    S    
C31   H2    S    
C12   C25   S    
Cu1   O1    S    
C2    C3    A    
C29   C31   S    
Cu2   N1    S    
C2    C34   A    
C30   C31   S    
Cu1   O12   S    
C2    H6    S    
C3    H11   S    
O6    S1    S    
C10   C11   A    
C24   C29   S    
C20   C21   A    
C24   O2    S    
C14   C15   A    
C10   H13   S    
