data_mof_unit_16227.cif
_audit_creation_date              2012-12-10T17:34:55-0500
_audit_creation_method            fapswitch 2.2
_symmetry_space_group_name_H-M    P1
_symmetry_Int_Tables_number       1
_space_group_crystal_system       triclinic
_cell_length_a                    11.990195
_cell_length_b                    12.826712
_cell_length_c                    15.722276
_cell_angle_alpha                 90.033089
_cell_angle_beta                  86.413102
_cell_angle_gamma                 93.981141
_cell_volume                      2407.42668457

loop_
_atom_site_label
_atom_site_type_symbol
_atom_type_description
_atom_site_fract_x
_atom_site_fract_y
_atom_site_fract_z
_atom_type_partial_charge
C1    C     C_R   0.522974 0.700532 0.495688 0.940443
C2    C     C_R   0.538342 0.812358 0.488291 -0.194538
C3    C     C_R   0.626670 0.971922 0.426886 -0.265837
C4    C     C_R   0.500469 0.500654 0.661645 0.907965
C5    C     C_R   0.624746 0.863938 0.434870 0.449469
C6    C     C_R   0.456577 0.868151 0.531510 -0.299612
C7    C     C_R   0.456780 0.974475 0.520798 0.179334
C8    C     C_R   0.543009 0.026631 0.468603 0.098260
C9    C     C_R   0.544934 0.133385 0.459311 -0.219700
C10   C     C_R   0.374523 0.136986 0.551593 -0.175392
C11   C     C_R   0.371761 0.029464 0.561191 -0.153619
C12   C     C_3   0.407620 0.558986 0.052917 -0.451609
C13   C     C_R   0.954854 0.422159 0.404954 0.043062
C14   C     C_R   0.837701 0.427755 0.417679 0.057591
C15   C     C_R   0.857246 0.529784 0.542113 0.091566
C16   C     C_R   0.477324 0.299628 0.500956 0.875379
C17   C     C_R   0.975137 0.527357 0.534464 -0.090950
C18   C     C_R   0.024548 0.472670 0.464891 -0.012173
C19   C     C_R   0.142813 0.470036 0.457756 -0.055452
C20   C     C_R   0.161681 0.572549 0.581946 -0.040054
C21   C     C_R   0.045216 0.577804 0.593750 0.335042
C22   C     C_R   0.499744 0.499590 0.338349 0.914428
C23   C     C_3   0.514668 0.511234 0.082340 0.032301
C24   C     C_3   0.416008 0.570086 0.955114 -0.400145
C25   C     C_3   0.627458 0.566418 0.945326 0.112486
C26   C     C_3   0.622821 0.581841 0.046416 0.384904
C27   C     C_1   0.500876 0.502639 0.249583 -0.102301
C28   C     C_3   0.514040 0.508383 0.916483 -0.124393
C29   C     C_3   0.006525 0.364759 0.328719 -0.441025
C30   C     C_3   0.923956 0.316087 0.266365 -0.362909
C31   C     C_3   0.985638 0.263469 0.191973 -0.776740
C32   C     C_3   0.606603 0.698876 0.076821 -0.375457
C33   C     C_3   0.709523 0.774804 0.090707 -0.192160
C34   C     C_3   0.511587 0.396276 0.049003 -0.466226
C35   C     C_3   0.673844 0.883692 0.114436 -0.792038
C36   C     C_3   0.499794 0.390983 0.951113 0.641713
C37   C     C_1   0.506282 0.506376 0.174203 0.029742
C38   C     C_1   0.508160 0.507276 0.825243 0.146171
C39   C     C_1   0.502860 0.504323 0.750248 0.001653
C40   C     C_R   0.462756 0.188277 0.502271 -0.048164
H1    H     H_    0.393571 0.635963 0.082565 0.178588
H2    H     H_    0.184548 0.428077 0.406895 0.138953
H3    H     H_    0.430017 0.653976 0.937581 0.197878
H4    H     H_    0.216529 0.609909 0.626583 0.190704
H5    H     H_    0.780940 0.391022 0.374310 0.132022
H6    H     H_    0.815698 0.571327 0.593216 0.206445
H7    H     H_    0.693077 0.513175 0.930586 0.220302
H8    H     H_    0.440177 0.349964 0.082757 0.215249
H9    H     H_    0.854330 0.838400 0.272850 0.390274
H10   H     H_    0.042860 0.321621 0.155597 0.269556
H11   H     H_    0.034872 0.200452 0.215609 0.267770
H12   H     H_    0.334856 0.543928 0.928981 0.267921
H13   H     H_    0.923990 0.228486 0.148435 0.266508
H14   H     H_    0.865653 0.256282 0.299989 0.223960
H15   H     H_    0.874986 0.377861 0.240308 0.266732
H16   H     H_    0.065967 0.421107 0.292247 0.222006
H17   H     H_    0.054615 0.301280 0.353170 0.210881
H18   H     H_    0.058353 0.728263 0.791344 0.413887
H19   H     H_    0.550424 0.773884 0.845937 0.362840
H20   H     H_    0.628426 0.916553 0.062304 0.292098
H21   H     H_    0.618866 0.880309 0.174087 0.274220
H22   H     H_    0.749119 0.936486 0.124834 0.269868
H23   H     H_    0.332113 0.509168 0.074807 0.266442
H24   H     H_    0.756598 0.747003 0.143800 0.278728
H25   H     H_    0.766779 0.783086 0.033459 0.294681
H26   H     H_    0.551496 0.736675 0.034287 0.226563
H27   H     H_    0.559563 0.697051 0.139956 0.193565
H28   H     H_    0.851476 0.404113 0.078196 0.394614
H29   H     H_    0.187884 0.332693 0.972318 0.404186
H30   H     H_    0.529401 0.219362 0.797016 0.400216
H31   H     H_    0.585119 0.356964 0.067754 0.254119
H32   H     H_    0.611905 0.174317 0.420140 0.146610
H33   H     H_    0.311062 0.180263 0.585175 0.180739
H34   H     H_    0.691869 0.013533 0.386800 0.200432
H35   H     H_    0.304795 0.989742 0.600902 0.167320
H36   H     H_    0.390867 0.828173 0.572497 0.183259
N1    N     N_R   0.207800 0.519340 0.515510 -0.128049
N2    N     N_R   0.792190 0.480660 0.484490 -0.131884
O1    O     O_R   0.421690 0.658830 0.504140 -0.631685
O2    O     O_2   0.668386 0.713174 0.321880 -0.312674
O3    O     O_3   0.800729 0.881571 0.304833 -0.584094
O4    O     O_2   0.924471 0.732056 0.655547 -0.244198
O5    O     O_2   0.916965 0.569949 0.739046 -0.217156
O6    O     O_3   0.096133 0.695743 0.741223 -0.562269
O7    O     O_2   0.800820 0.708993 0.900904 -0.188463
O8    O     O_2   0.690138 0.647954 0.786703 -0.260692
O9    O     O_3   0.605558 0.782077 0.890237 -0.555496
O10   O     O_2   0.851454 0.602923 0.049144 -0.270226
O11   O     O_2   0.748996 0.551880 0.183389 -0.293007
O12   O     O_R   0.609320 0.646410 0.494190 -0.545828
O13   O     O_3   0.772550 0.412772 0.066176 -0.547446
O14   O     O_2   0.340010 0.335082 0.837942 -0.303180
O15   O     O_2   0.362085 0.211619 0.952445 -0.241642
O16   O     O_3   0.255885 0.374018 0.989000 -0.604771
O17   O     O_2   0.721675 0.344573 0.906146 -0.227819
O18   O     O_2   0.588409 0.200794 0.947171 -0.249553
O19   O     O_3   0.576938 0.285551 0.798675 -0.523330
O20   O     O_R   0.406150 0.506210 0.627840 -0.623676
O21   O     O_R   0.593770 0.493790 0.617880 -0.592885
O22   O     O_R   0.390680 0.353590 0.505810 -0.621535
O23   O     O_R   0.578310 0.341170 0.495860 -0.626523
O24   O     O_R   0.406230 0.506210 0.382120 -0.638286
O25   O     O_R   0.593850 0.493790 0.372160 -0.574310
O26   O     O_2   0.804639 0.750559 0.429980 -0.256673
S1    S     S_3+6 0.726141 0.797935 0.372456 0.028690
S2    S     S_3+6 0.991475 0.645139 0.684095 0.062397
S3    S     S_3+6 0.683060 0.677938 0.879180 0.061127
S4    S     S_3+6 0.752005 0.538337 0.088319 0.002206
S5    S     S_3+6 0.362433 0.325725 0.930521 0.027632
S6    S     S_3+6 0.601579 0.304702 0.901998 0.084323
Zn1   Zn    Zn3+2 0.374720 0.508290 0.506640 0.968958
Zn2   Zn    Zn3+2 0.625280 0.491710 0.493360 1.050866

loop_
_geom_bond_atom_site_label_1
_geom_bond_atom_site_label_2
_ccdc_geom_bond_type
C24   H12   S    
C26   C32   S    
C1    O12   A    
C4    O20   A    
O8    S3    D    
C9    H32   S    
O12   Zn2   S    
C33   H25   S    
C7    C8    A    
C5    S1    S    
C25   C28   S    
C7    C11   A    
C30   H14   S    
C12   C23   S    
C12   H1    S    
C13   C18   A    
C13   C29   S    
C18   C19   A    
C30   C31   S    
O10   S4    D    
C10   H33   S    
O14   S5    D    
C15   N2    A    
H28   O13   S    
N1    Zn1   S    
C1    C2    S    
C23   C26   S    
H9    O3    S    
C19   N1    A    
C3    H34   S    
C8    C9    A    
O6    S2    S    
C25   H7    S    
C21   S2    S    
C19   H2    S    
C14   N2    A    
C13   C14   A    
O24   Zn1   S    
C2    C6    A    
O26   S1    D    
C20   H4    S    
C14   H5    S    
O3    S1    S    
C3    C8    A    
C26   S4    S    
C12   H23   S    
C16   O22   A    
C25   C26   S    
C23   C37   S    
O18   S6    D    
O2    S1    D    
C9    C40   A    
C17   C21   A    
C22   O25   A    
C35   H20   S    
O23   Zn2   S    
C29   C30   S    
H18   O6    S    
C4    C39   S    
C28   C38   S    
C23   C34   S    
C17   C18   A    
C35   H21   S    
C31   H13   S    
C16   C40   S    
C32   H27   S    
C20   N1    A    
C29   H17   S    
H29   O16   S    
C22   C27   S    
C36   S6    S    
C1    O1    A    
C2    C5    A    
C34   H8    S    
C31   H10   S    
C25   S3    S    
C32   H26   S    
C15   C17   A    
O20   Zn1   S    
O13   S4    S    
C24   C28   S    
C31   H11   S    
C3    C5    A    
O17   S6    D    
H30   O19   S    
C6    H36   S    
C6    C7    A    
C29   H16   S    
C30   H15   S    
C12   C24   S    
O16   S5    S    
C22   O24   A    
O5    S2    D    
O1    Zn1   S    
C32   C33   S    
C11   H35   S    
O19   S6    S    
C38   C39   T    
C27   C37   T    
C33   H24   S    
O21   Zn2   S    
O11   S4    D    
C33   C35   S    
C35   H22   S    
C34   C36   S    
O4    S2    D    
H19   O9    S    
C10   C11   A    
C16   O23   A    
O9    S3    S    
C20   C21   A    
C28   C36   S    
O22   Zn1   S    
C4    O21   A    
C36   S5    S    
C24   H3    S    
O25   Zn2   S    
C10   C40   A    
N2    Zn2   S    
C15   H6    S    
O7    S3    D    
C34   H31   S    
O15   S5    D    
