data_mof_unit_19153.cif
_audit_creation_date              2013-03-05T15:43:06-0500
_audit_creation_method            fapswitch 2.2
_symmetry_space_group_name_H-M    P1
_symmetry_Int_Tables_number       1
_space_group_crystal_system       triclinic
_cell_length_a                    10.917302
_cell_length_b                    19.20029
_cell_length_c                    18.422819
_cell_angle_alpha                 89.992551
_cell_angle_beta                  89.700345
_cell_angle_gamma                 89.666827
_cell_volume                      3861.58779705

loop_
_atom_site_label
_atom_site_type_symbol
_atom_site_description
_atom_site_fract_x
_atom_site_fract_y
_atom_site_fract_z
_atom_type_partial_charge
O1    O     O_R   0.575450 0.828820 0.667950 -0.520961
O2    O     O_R   0.575450 0.828820 0.832050 -0.508484
O3    O     O_R   0.575450 0.171180 0.332050 -0.502392
O4    O     O_R   0.575450 0.171180 0.167950 -0.507639
O5    O     O_R   0.075450 0.328820 0.667950 -0.499165
O6    O     O_R   0.075450 0.328820 0.832050 -0.505613
O7    O     O_R   0.075450 0.671180 0.332050 -0.520593
O8    O     O_R   0.075450 0.671180 0.167950 -0.508306
O9    O     O_R   0.416860 0.942890 0.674680 -0.515009
O10   O     O_R   0.416860 0.942890 0.825320 -0.533040
O11   O     O_R   0.416860 0.057110 0.325320 -0.529787
O12   O     O_R   0.416860 0.057110 0.174680 -0.532357
O13   O     O_R   0.916860 0.442890 0.674680 -0.528465
O14   O     O_R   0.916860 0.442890 0.825320 -0.534324
O15   O     O_R   0.916860 0.557110 0.325320 -0.521079
O16   O     O_R   0.916860 0.557110 0.174680 -0.528494
C1    C     C_R   0.322215 0.969949 0.646801 0.567096
C2    C     C_R   0.319304 0.969951 0.853921 0.555387
C3    C     C_R   0.319323 0.030407 0.353992 0.554301
C4    C     C_R   0.322610 0.030046 0.146732 0.559126
C5    C     C_R   0.818541 0.470215 0.646472 0.550624
C6    C     C_R   0.821894 0.470652 0.852681 0.558689
C7    C     C_R   0.822182 0.530315 0.353525 0.567706
C8    C     C_R   0.819459 0.530987 0.145426 0.553180
O17   O     O_R   0.213790 0.953680 0.668330 -0.480829
O18   O     O_R   0.213790 0.953680 0.831670 -0.470028
O19   O     O_R   0.213790 0.046320 0.331670 -0.470532
O20   O     O_R   0.213790 0.046320 0.168330 -0.477104
O21   O     O_R   0.713790 0.453680 0.668330 -0.470228
O22   O     O_R   0.713790 0.453680 0.831670 -0.473482
O23   O     O_R   0.713790 0.546320 0.331670 -0.474263
O24   O     O_R   0.713790 0.546320 0.168330 -0.473566
O25   O     O_R   0.121360 0.817890 0.672660 -0.506889
O26   O     O_R   0.121360 0.817890 0.827340 -0.502593
O27   O     O_R   0.121360 0.182110 0.327340 -0.504529
O28   O     O_R   0.121360 0.182110 0.172660 -0.507345
O29   O     O_R   0.621360 0.317890 0.672660 -0.498239
O30   O     O_R   0.621360 0.317890 0.827340 -0.501758
O31   O     O_R   0.621360 0.682110 0.327340 -0.503812
O32   O     O_R   0.621360 0.682110 0.172660 -0.508176
C9    C     C_R   0.137551 0.758989 0.642618 0.544758
C10   C     C_R   0.132435 0.757590 0.855856 0.537851
C11   C     C_R   0.128529 0.243915 0.354139 0.536385
C12   C     C_R   0.131274 0.242697 0.144621 0.536320
C13   C     C_R   0.632885 0.257447 0.644060 0.538624
C14   C     C_R   0.633633 0.258074 0.856310 0.538641
C15   C     C_R   0.630389 0.742370 0.355251 0.534734
C16   C     C_R   0.629686 0.743571 0.145483 0.533968
O33   O     O_R   0.206850 0.711370 0.665820 -0.524144
O34   O     O_R   0.206850 0.711370 0.834180 -0.539516
O35   O     O_R   0.206850 0.288630 0.334180 -0.537255
O36   O     O_R   0.206850 0.288630 0.165820 -0.531726
O37   O     O_R   0.706850 0.211370 0.665820 -0.541141
O38   O     O_R   0.706850 0.211370 0.834180 -0.535059
O39   O     O_R   0.706850 0.788630 0.334180 -0.519264
O40   O     O_R   0.706850 0.788630 0.165820 -0.537679
O41   O     O_R   0.457710 0.733190 0.672630 -0.470261
O42   O     O_R   0.457710 0.733190 0.827370 -0.472428
O43   O     O_R   0.457710 0.266810 0.327370 -0.467979
O44   O     O_R   0.457710 0.266810 0.172630 -0.460808
O45   O     O_R   0.957710 0.233190 0.672630 -0.467182
O46   O     O_R   0.957710 0.233190 0.827370 -0.456174
O47   O     O_R   0.957710 0.766810 0.327370 -0.473900
O48   O     O_R   0.957710 0.766810 0.172630 -0.473481
C17   C     C_R   0.546424 0.768499 0.646141 0.578808
C18   C     C_R   0.495346 0.787502 0.862635 0.564405
C19   C     C_R   0.493208 0.211203 0.362555 0.574612
C20   C     C_R   0.494646 0.212068 0.137520 0.572223
C21   C     C_R   0.994278 0.288256 0.637739 0.569239
C22   C     C_R   0.996443 0.286788 0.862651 0.564506
C23   C     C_R   0.040356 0.730121 0.355590 0.584542
C24   C     C_R   0.993646 0.711301 0.137623 0.572875
Cr1   Cr    Cr6+3 0.488160 0.884660 0.750000 1.005440
Cr2   Cr    Cr6+3 0.488160 0.115340 0.250000 1.008886
Cr3   Cr    Cr6+3 0.988160 0.384660 0.750000 1.007459
Cr4   Cr    Cr6+3 0.988160 0.615340 0.250000 1.009853
Cr5   Cr    Cr6+3 0.173480 0.883120 0.750000 1.056462
Cr6   Cr    Cr6+3 0.173480 0.116880 0.250000 1.050258
Cr7   Cr    Cr6+3 0.673480 0.383120 0.750000 1.058496
Cr8   Cr    Cr6+3 0.673480 0.616880 0.250000 1.053999
Cr9   Cr    Cr6+3 0.333410 0.727260 0.750000 1.050916
Cr10  Cr    Cr6+3 0.333410 0.272740 0.250000 1.046911
Cr11  Cr    Cr6+3 0.833410 0.227260 0.750000 1.048236
Cr12  Cr    Cr6+3 0.833410 0.772740 0.250000 1.048057
O49   O     O_3   0.331690 0.831680 0.750000 -0.294166
O50   O     O_3   0.331690 0.168320 0.250000 -0.314487
O51   O     O_3   0.831690 0.331680 0.750000 -0.314948
O52   O     O_3   0.831690 0.668320 0.250000 -0.295323
C25   C     C_3   0.002821 0.798790 0.480767 -0.104854
C26   C     C_3   0.002703 0.794418 0.021933 -0.093003
C27   C     C_3   0.947941 0.226364 0.509336 -0.126767
C28   C     C_3   0.950682 0.223064 0.990492 -0.122226
C29   C     C_3   0.495280 0.291850 0.480476 -0.093275
C30   C     C_3   0.496623 0.295784 0.020284 -0.091842
C31   C     C_3   0.629086 0.690281 0.531068 -0.117334
C32   C     C_3   0.452523 0.722934 0.990759 -0.123373
C33   C     C_3   0.130113 0.814053 0.512916 -0.105711
C34   C     C_3   0.134521 0.786569 0.992576 -0.105796
C35   C     C_3   0.072887 0.198398 0.482037 -0.113378
C36   C     C_3   0.074066 0.192350 0.016726 -0.105081
C37   C     C_3   0.628471 0.287894 0.507588 -0.104431
C38   C     C_3   0.629865 0.292485 0.992347 -0.106781
C39   C     C_3   0.702300 0.740389 0.482448 -0.130314
C40   C     C_3   0.578901 0.697078 0.017374 -0.111582
H1    H     H_    0.166830 0.865952 0.527365 0.140690
H2    H     H_    0.204385 0.828172 0.988515 0.120895
H3    H     H_    0.100586 0.145152 0.466364 0.148119
H4    H     H_    0.093778 0.137135 0.029978 0.146821
H5    H     H_    0.694621 0.331364 0.511456 0.123428
H6    H     H_    0.694076 0.337010 0.988291 0.124108
H7    H     H_    0.793953 0.729506 0.459728 0.126735
H8    H     H_    0.609267 0.644319 0.032927 0.145436
H9    H     H_    0.932004 0.837710 0.465585 0.145550
H10   H     H_    0.954081 0.838717 0.046886 0.135739
H11   H     H_    0.870933 0.192906 0.526682 0.122566
H12   H     H_    0.871656 0.190926 0.974175 0.132851
H13   H     H_    0.439367 0.333732 0.457194 0.128416
H14   H     H_    0.445418 0.341964 0.039626 0.144413
H15   H     H_    0.674557 0.644415 0.555427 0.143588
H16   H     H_    0.376622 0.688586 0.973984 0.122072
C41   C     C_3   0.108349 0.754766 0.567295 0.058154
C42   C     C_3   0.083232 0.746773 0.927757 0.051868
C43   C     C_3   0.076410 0.256659 0.425773 0.055510
C44   C     C_3   0.082621 0.251813 0.072125 0.055540
C45   C     C_3   0.583283 0.245477 0.572475 0.051048
C46   C     C_3   0.585671 0.248594 0.928487 0.049932
C47   C     C_3   0.593520 0.745807 0.430526 0.051007
C48   C     C_3   0.579168 0.755423 0.073686 0.055799
C49   C     C_3   0.982876 0.740146 0.537057 -0.163029
C50   C     C_3   0.952478 0.755437 0.955293 -0.143786
C51   C     C_3   0.951758 0.284800 0.451123 -0.149116
C52   C     C_3   0.959403 0.281825 0.047908 -0.155482
C53   C     C_3   0.451212 0.250104 0.547130 -0.142442
C54   C     C_3   0.453527 0.252664 0.954492 -0.148604
C55   C     C_3   0.520752 0.694591 0.477523 -0.104484
C56   C     C_3   0.453129 0.781173 0.049058 -0.151288
C57   C     C_3   0.043060 0.687075 0.485175 -0.118159
C58   C     C_3   0.965698 0.685015 0.996129 -0.136711
C59   C     C_3   0.020098 0.332472 0.505123 -0.132787
C60   C     C_3   0.029870 0.327104 0.992901 -0.132325
C61   C     C_3   0.470239 0.181015 0.504559 -0.135723
C62   C     C_3   0.474601 0.184228 0.997539 -0.135942
C63   C     C_3   0.470217 0.758618 0.518996 -0.127998
C64   C     C_3   0.519037 0.830055 0.994956 -0.130848
C65   C     C_3   0.170020 0.701834 0.516359 -0.109515
C66   C     C_3   0.097865 0.676899 0.966958 -0.109020
C67   C     C_3   0.144770 0.304383 0.478853 -0.098868
C68   C     C_3   0.153408 0.296842 0.017453 -0.101738
C69   C     C_3   0.603616 0.176648 0.531718 -0.109713
C70   C     C_3   0.608161 0.180884 0.970129 -0.110593
C71   C     C_3   0.543561 0.808889 0.470744 -0.121650
C72   C     C_3   0.645315 0.804247 0.020368 -0.097459
C73   C     C_3   0.190541 0.760668 0.460652 -0.141498
C74   C     C_3   0.149100 0.716598 0.032334 -0.108985
C75   C     C_3   0.140474 0.245839 0.535321 -0.105682
C76   C     C_3   0.144114 0.237661 0.961577 -0.103912
C77   C     C_3   0.648868 0.219157 0.466286 -0.108460
C78   C     C_3   0.651934 0.224488 0.034649 -0.113713
C79   C     C_3   0.652467 0.804409 0.523372 -0.098655
C80   C     C_3   0.644132 0.745728 0.963700 -0.108161
C81   C     C_3   0.065211 0.745497 0.430145 0.066678
C82   C     C_3   0.018155 0.724489 0.061128 0.055478
C83   C     C_3   0.017403 0.274249 0.561305 0.052104
C84   C     C_3   0.022579 0.269017 0.937388 0.057858
C85   C     C_3   0.516643 0.223414 0.439511 0.050918
C86   C     C_3   0.519641 0.227428 0.061777 0.058635
C87   C     C_3   0.579118 0.754176 0.571147 0.059449
C88   C     C_3   0.519601 0.772142 0.938569 0.054630
H17   H     H_    0.902067 0.731249 0.572584 0.115688
H18   H     H_    0.883816 0.777628 0.917909 0.124106
H19   H     H_    0.876671 0.301430 0.414630 0.139752
H20   H     H_    0.886242 0.301070 0.084979 0.127697
H21   H     H_    0.382946 0.268715 0.587144 0.127618
H22   H     H_    0.381614 0.269120 0.916070 0.122794
H23   H     H_    0.464461 0.650814 0.457215 0.130080
H24   H     H_    0.377203 0.796467 0.086071 0.139743
H25   H     H_    0.002088 0.636924 0.470122 0.150493
H26   H     H_    0.893903 0.644649 0.000196 0.117911
H27   H     H_    0.998066 0.386071 0.520820 0.141893
H28   H     H_    0.004554 0.379306 0.975588 0.147792
H29   H     H_    0.402126 0.138721 0.500700 0.119950
H30   H     H_    0.406740 0.141866 0.002397 0.119062
H31   H     H_    0.378034 0.769204 0.541063 0.126783
H32   H     H_    0.490846 0.882270 0.978891 0.142354
H33   H     H_    0.240915 0.663257 0.532112 0.138496
H34   H     H_    0.142543 0.630863 0.942306 0.138698
H35   H     H_    0.224447 0.337904 0.466251 0.125140
H36   H     H_    0.235359 0.328502 0.029072 0.127919
H37   H     H_    0.651451 0.130573 0.554304 0.134303
H38   H     H_    0.661209 0.137238 0.947034 0.145729
H39   H     H_    0.498206 0.852512 0.442914 0.124581
H40   H     H_    0.724134 0.838416 0.032765 0.127916
H41   H     H_    0.271931 0.769427 0.425550 0.121212
H42   H     H_    0.227800 0.699737 0.065993 0.141263
H43   H     H_    0.209920 0.225742 0.572711 0.143977
H44   H     H_    0.210541 0.215089 0.922554 0.141708
H45   H     H_    0.728169 0.205578 0.431078 0.143636
H46   H     H_    0.730691 0.211841 0.070121 0.138746
H47   H     H_    0.711718 0.846727 0.543655 0.134720
H48   H     H_    0.714097 0.726810 0.925277 0.143229
C89   C     C_R   0.323254 0.998579 0.426942 -0.027113
C90   C     C_R   0.339014 0.991302 0.078064 -0.024322
C91   C     C_R   0.337908 0.008741 0.578305 -0.025263
C92   C     C_R   0.324495 0.003470 0.926413 -0.023555
C93   C     C_R   0.837233 0.492776 0.422975 -0.023215
C94   C     C_R   0.823233 0.500967 0.071476 -0.024827
C95   C     C_R   0.819024 0.504286 0.574443 -0.030146
C96   C     C_R   0.836870 0.511944 0.919851 -0.020417
C97   C     C_R   0.546927 0.977973 0.421010 -0.083820
C98   C     C_R   0.562614 0.993022 0.070145 -0.073667
C99   C     C_R   0.563243 0.999048 0.570088 -0.075986
C100  C     C_R   0.549283 0.016393 0.921013 -0.087808
C101  C     C_R   0.061561 0.502528 0.432057 -0.084170
C102  C     C_R   0.045646 0.478924 0.075148 -0.076335
C103  C     C_R   0.039000 0.531140 0.579996 -0.083340
C104  C     C_R   0.062572 0.504660 0.926460 -0.095235
C105  C     C_R   0.659829 0.973451 0.455178 -0.127678
C106  C     C_R   0.668567 0.994352 0.028245 -0.134864
C107  C     C_R   0.668410 0.985511 0.529401 -0.149785
C108  C     C_R   0.661971 0.005358 0.953656 -0.138958
C109  C     C_R   0.164975 0.517295 0.472912 -0.140760
C110  C     C_R   0.158575 0.475073 0.040212 -0.132097
C111  C     C_R   0.153595 0.532051 0.546705 -0.130845
C112  C     C_R   0.167614 0.489099 0.966210 -0.147021
C113  C     C_R   0.446667 0.999573 0.537222 0.000407
C114  C     C_R   0.439847 0.008440 0.960960 -0.028300
C115  C     C_R   0.438853 0.992372 0.461068 -0.017042
C116  C     C_R   0.447109 0.000049 0.037332 -0.014884
C117  C     C_R   0.933442 0.514056 0.540047 -0.030311
C118  C     C_R   0.946104 0.505473 0.960261 -0.019673
C119  C     C_R   0.943888 0.503915 0.464209 -0.022847
C120  C     C_R   0.938418 0.496340 0.036392 -0.018893
H49   H     H_    0.739898 0.959103 0.423727 0.132704
H50   H     H_    0.755050 0.986044 0.054341 0.102254
H51   H     H_    0.756241 0.983081 0.556133 0.107142
H52   H     H_    0.743363 0.007006 0.920263 0.125176
H53   H     H_    0.253444 0.518424 0.446474 0.108985
H54   H     H_    0.237851 0.458682 0.070734 0.124594
H55   H     H_    0.233100 0.545288 0.578454 0.133815
H56   H     H_    0.255437 0.486236 0.938962 0.117266
H57   H     H_    0.544027 0.964899 0.363928 0.135941
H58   H     H_    0.571542 0.980736 0.127211 0.140120
H59   H     H_    0.574760 0.011380 0.626913 0.136970
H60   H     H_    0.548880 0.030353 0.864124 0.142201
H61   H     H_    0.074905 0.488248 0.375756 0.143467
H62   H     H_    0.041993 0.463860 0.131710 0.140345
H63   H     H_    0.033207 0.544740 0.636942 0.140138
H64   H     H_    0.073412 0.516868 0.869457 0.141690
C121  C     C_R   0.229467 0.026141 0.542975 -0.029635
C122  C     C_R   0.217629 0.998545 0.970833 -0.008115
C123  C     C_R   0.215017 0.004397 0.470930 -0.016326
C124  C     C_R   0.232124 0.974300 0.041994 -0.022457
C125  C     C_R   0.711382 0.496664 0.530623 -0.007831
C126  C     C_R   0.728181 0.528196 0.955909 -0.023869
C127  C     C_R   0.728717 0.475214 0.458331 -0.018222
C128  C     C_R   0.714645 0.506409 0.028245 -0.013657
C129  C     C_R   0.130511 0.056431 0.581332 0.111583
C130  C     C_R   0.096759 0.015606 0.948770 0.111939
C131  C     C_R   0.092518 0.994500 0.446279 0.114783
C132  C     C_R   0.132201 0.946915 0.080389 0.112915
C133  C     C_R   0.587035 0.504840 0.555040 0.118215
C134  C     C_R   0.628302 0.557063 0.917860 0.114514
C135  C     C_R   0.631635 0.445801 0.419069 0.114645
C136  C     C_R   0.592573 0.495350 0.053737 0.115836
C137  C     C_R   0.012453 0.051494 0.554184 -0.130933
C138  C     C_R   0.998152 0.001706 0.994951 -0.144646
C139  C     C_R   0.993786 0.018889 0.487890 -0.152372
C140  C     C_R   0.014823 0.964781 0.059063 -0.123699
C141  C     C_R   0.490727 0.484429 0.510521 -0.142327
C142  C     C_R   0.510634 0.551371 0.946102 -0.127040
C143  C     C_R   0.512403 0.455660 0.442773 -0.127464
C144  C     C_R   0.493132 0.518971 0.012781 -0.151047
H65   H     H_    0.935710 0.073589 0.583837 0.136050
H66   H     H_    0.909163 0.021003 0.981309 0.119463
H67   H     H_    0.902336 0.014816 0.467312 0.124564
H68   H     H_    0.937899 0.951072 0.093154 0.122371
H69   H     H_    0.398009 0.489408 0.529577 0.122835
H70   H     H_    0.433171 0.572378 0.916750 0.135512
H71   H     H_    0.436438 0.439393 0.409425 0.124693
H72   H     H_    0.401866 0.514107 0.033924 0.122912
I1    I     I_    0.040807 0.933297 0.355458 -0.351576
I2    I     I_    0.161071 0.882471 0.172475 -0.336743
I3    I     I_    0.161406 0.115611 0.676556 -0.313962
I4    I     I_    0.051768 0.078076 0.858797 -0.335171
I5    I     I_    0.666226 0.382409 0.326597 -0.321644
I6    I     I_    0.543162 0.433417 0.145016 -0.337786
I7    I     I_    0.521999 0.558982 0.648596 -0.350996
I8    I     I_    0.657224 0.614939 0.821053 -0.331856

loop_
_geom_bond_atom_site_label_1
_geom_bond_atom_site_label_2
_geom_bond_distance
_ccdc_geom_bond_type
O46   Cr11  1.976924 S    
C64   H32   1.088438 S    
C103  H63   1.082577 S    
O26   C10   1.276695 A    
Cr7   O51   1.984678 S    
O6    Cr3   2.084544 S    
C51   H19   1.108425 S    
O9    Cr1   1.944774 S    
O31   C15   1.270755 A    
C27   C51   1.552575 S    
C122  C124  1.400564 A    
C25   C49   1.546241 S    
O46   C22   1.291679 A    
C89   C115  1.417290 A    
O3    Cr2   2.090438 S    
O48   Cr12  1.965751 S    
C126  C128  1.404028 A    
C102  C110  1.389379 A    
C32   C88   1.534236 S    
C23   C81   1.432561 S    
C8    C94   1.479636 S    
C33   H1    1.109198 S    
C143  H71   1.082208 S    
C32   H16   1.107322 S    
C9    O33   1.259477 A    
O38   Cr11  2.095139 S    
C25   H9    1.108989 S    
C131  I1    2.125371 S    
C129  C137  1.388696 A    
C98   H58   1.082181 S    
C121  C129  1.410502 A    
C95   C117  1.411194 A    
C42   C66   1.531477 S    
C4    O20   1.287682 A    
C31   H15   1.104759 S    
C5    O21   1.253055 A    
C109  H53   1.079760 S    
C36   C44   1.535048 S    
C7    O23   1.287468 A    
C8    O24   1.259586 A    
C70   H38   1.100263 S    
C66   C74   1.535155 S    
C139  H67   1.073073 S    
O12   C4    1.267161 A    
O13   C5    1.302558 A    
C58   C82   1.532586 S    
C118  C120  1.415547 A    
C28   H12   1.106534 S    
C45   C69   1.534479 S    
C62   H30   1.106687 S    
C127  C135  1.407312 A    
C128  C136  1.427741 A    
C117  C119  1.414603 A    
C142  C144  1.389693 A    
O28   C12   1.277688 A    
C104  H64   1.081998 S    
C97   H57   1.081871 S    
C50   C58   1.553588 S    
C91   C113  1.414861 A    
C124  C132  1.401908 A    
O4    C20   1.306067 A    
C125  C133  1.435637 A    
O32   C16   1.285352 A    
C54   H22   1.104592 S    
C98   C116  1.407041 A    
Cr12  O52   2.005093 S    
C26   C34   1.541289 S    
O11   Cr2   1.944167 S    
O2    C18   1.309353 A    
C68   H36   1.106415 S    
O27   Cr6   1.976402 S    
C69   H37   1.106931 S    
C34   H2    1.109892 S    
O47   Cr12  1.975994 S    
C136  I6    2.128444 S    
O31   Cr8   1.976402 S    
O25   C9    1.270166 A    
Cr8   O52   1.994649 S    
C111  H55   1.080742 S    
C57   C81   1.531292 S    
C142  H70   1.082154 S    
O10   C2    1.292165 A    
C60   H28   1.086435 S    
C79   C87   1.532168 S    
C61   H29   1.106810 S    
C80   C88   1.522631 S    
C59   H27   1.094093 S    
C49   C57   1.539326 S    
C46   C54   1.519330 S    
C72   H40   1.109803 S    
C52   H20   1.109881 S    
C37   H5    1.109426 S    
O34   Cr9   2.095139 S    
C97   C105  1.389208 A    
C133  I7    2.129439 S    
C20   C86   1.451001 S    
C134  I8    2.124373 S    
C56   H24   1.108874 S    
C135  I5    2.124800 S    
O43   Cr10  1.975994 S    
C38   C78   1.538808 S    
C26   H10   1.099469 S    
C26   C82   1.533290 S    
C28   C52   1.550309 S    
C50   H18   1.104262 S    
C29   C53   1.542674 S    
O8    Cr4   2.083017 S    
C44   C52   1.529010 S    
C1    C91   1.474938 S    
C33   C41   1.535013 S    
C47   C71   1.517145 S    
C48   C72   1.537975 S    
O13   Cr3   1.944774 S    
O1    C17   1.268438 A    
C132  C140  1.383571 A    
C39   C47   1.531859 S    
C133  C141  1.394873 A    
C101  C119  1.411949 A    
C19   C85   1.461160 S    
C135  C143  1.382800 A    
Cr5   O49   1.984678 S    
C144  H72   1.072485 S    
C7    C93   1.477866 S    
C29   H13   1.095523 S    
C97   C115  1.414318 A    
C31   C39   1.538846 S    
C36   H4    1.107994 S    
C107  H51   1.081000 S    
C75   H43   1.095521 S    
C77   C85   1.529661 S    
C40   H8    1.102353 S    
C29   C37   1.541403 S    
C90   C116  1.406039 A    
C75   C83   1.522104 S    
C65   H33   1.107947 S    
C71   C79   1.540098 S    
C110  C112  1.392745 A    
C62   C86   1.530146 S    
C137  C139  1.389018 A    
C106  C108  1.392441 A    
C63   C87   1.534475 S    
C140  H68   1.079817 S    
C141  H69   1.073393 S    
C101  H61   1.081773 S    
C112  H56   1.081044 S    
Cr1   O49   1.993243 S    
O2    Cr1   2.084544 S    
C138  C140  1.389732 A    
C10   O34   1.263063 A    
O22   Cr7   2.075396 S    
C137  H65   1.082359 S    
C93   C119  1.410957 A    
C130  C138  1.395594 A    
C11   C43   1.454592 S    
C67   C75   1.532234 S    
Cr3   O51   1.993243 S    
C34   C42   1.528255 S    
C41   C49   1.509314 S    
C6    O22   1.287707 A    
O16   Cr4   1.950178 S    
C74   C82   1.528916 S    
C38   C46   1.529040 S    
C31   C87   1.528420 S    
C15   C47   1.443394 S    
O7    Cr4   2.090438 S    
C60   C84   1.516018 S    
C99   C107  1.391124 A    
C61   C85   1.534167 S    
O14   C6    1.265414 A    
C59   C83   1.523670 S    
C4    C90   1.477217 S    
C64   C72   1.537540 S    
C46   C70   1.528706 S    
O25   Cr5   1.984869 S    
C53   H21   1.103532 S    
C16   C48   1.453127 S    
C58   C66   1.544139 S    
C63   C71   1.537636 S    
C113  C115  1.412854 A    
O41   Cr9   1.966643 S    
O30   C14   1.273032 A    
C51   C59   1.549224 S    
C73   H41   1.109827 S    
C126  C134  1.410104 A    
C129  I3    2.119811 S    
C24   C82   1.455484 S    
C2    C92   1.484054 S    
C27   C35   1.544776 S    
Cr9   O49   2.004875 S    
Cr11  O51   2.004875 S    
O12   Cr2   1.950178 S    
C2    O18   1.265596 A    
O19   Cr6   2.071796 S    
C102  C120  1.412844 A    
C30   C86   1.538819 S    
C34   C74   1.537932 S    
O23   Cr8   2.071796 S    
C32   C56   1.550622 S    
C44   C68   1.535779 S    
C10   C42   1.442253 S    
C57   C65   1.531149 S    
C76   H44   1.105247 S    
C47   C55   1.532790 S    
C48   C56   1.530446 S    
O26   Cr5   1.980357 S    
O10   Cr1   1.939162 S    
O30   Cr7   1.980357 S    
C45   C53   1.520005 S    
O24   Cr8   2.068708 S    
C39   H7    1.101497 S    
O33   Cr9   2.105869 S    
O11   C3    1.294671 A    
O5    C21   1.309566 A    
C123  C131  1.428359 A    
C91   C121  1.392929 A    
C101  C109  1.390754 A    
C89   C123  1.433173 A    
C35   C75   1.534075 S    
C33   C73   1.548767 S    
C93   C127  1.392127 A    
C100  C114  1.408978 A    
C36   C76   1.540568 S    
C79   H47   1.107689 S    
O15   Cr4   1.944167 S    
C15   O39   1.281223 A    
C37   C77   1.537983 S    
C136  C144  1.398697 A    
C27   C83   1.533938 S    
C40   C80   1.535450 S    
C25   C81   1.538256 S    
C14   C46   1.438470 S    
O40   Cr12  2.103482 S    
O8    C24   1.303952 A    
C94   C120  1.413229 A    
C99   H59   1.081477 S    
O45   Cr11  1.966643 S    
O42   Cr9   1.976924 S    
C141  C143  1.383628 A    
C67   H35   1.108677 S    
Cr10  O50   2.005093 S    
C12   C44   1.450114 S    
C103  C111  1.390629 A    
C63   H31   1.101259 S    
O5    Cr3   2.077507 S    
C54   C62   1.551291 S    
C100  C108  1.387354 A    
O21   Cr7   2.071801 S    
C14   O38   1.263975 A    
C38   H6    1.110963 S    
C105  H49   1.080596 S    
C78   C86   1.526575 S    
O6    C22   1.309959 A    
C70   C78   1.533956 S    
C43   C51   1.531956 S    
C66   H34   1.103729 S    
O41   C17   1.279994 A    
C52   C60   1.540778 S    
C35   H3    1.102526 S    
C17   C87   1.451086 S    
C53   C61   1.553464 S    
C18   C88   1.454972 S    
O37   Cr11  2.105869 S    
O1    Cr1   2.077507 S    
O14   Cr3   1.939162 S    
C62   C70   1.541567 S    
C56   C64   1.546662 S    
C92   C114  1.417719 A    
C11   O35   1.268292 A    
C138  H66   1.068941 S    
C27   H11   1.106810 S    
C77   H45   1.108956 S    
C131  C139  1.397991 A    
C26   C50   1.542775 S    
O44   C20   1.295472 A    
C100  H60   1.081773 S    
C73   C81   1.511830 S    
C68   C76   1.537477 S    
O39   Cr12  2.092857 S    
C69   C77   1.536721 S    
C90   C124  1.386546 A    
C72   C80   1.533991 S    
C30   H14   1.103581 S    
C3    C89   1.477021 S    
C94   C128  1.434918 A    
C60   C68   1.535710 S    
C104  C112  1.394755 A    
C61   C69   1.543965 S    
C80   H48   1.098908 S    
O29   Cr7   1.984869 S    
C59   C67   1.536975 S    
C64   C88   1.521760 S    
O17   Cr5   2.071801 S    
C49   H17   1.109750 S    
O7    C23   1.268430 A    
C134  C142  1.388353 A    
C9    C41   1.427858 S    
O44   Cr10  1.965751 S    
O42   C18   1.298576 A    
C78   H46   1.108468 S    
C13   C45   1.447169 S    
C40   C48   1.526951 S    
C104  C118  1.412889 A    
O32   Cr8   1.980455 S    
O20   Cr6   2.068708 S    
Cr4   O52   1.983079 S    
O4    Cr2   2.083017 S    
O43   C19   1.306873 A    
C132  I2    2.123420 S    
C28   C84   1.533451 S    
C71   H39   1.098774 S    
C29   C85   1.531461 S    
O16   C8    1.298078 A    
C96   C126  1.390734 A    
C3    O19   1.261235 A    
C39   C79   1.537363 S    
C121  C123  1.401407 A    
O18   Cr5   2.075396 S    
C6    C96   1.480029 S    
C106  H50   1.072832 S    
C125  C127  1.405621 A    
C110  H54   1.079888 S    
C25   C33   1.543146 S    
C55   H23   1.110226 S    
C37   C45   1.527704 S    
C31   C55   1.545891 S    
C102  H62   1.081997 S    
Cr2   O50   1.983079 S    
O36   Cr10  2.103482 S    
O35   Cr10  2.092857 S    
O9    C1    1.265147 A    
C43   C67   1.539045 S    
C114  C116  1.418728 A    
C41   C65   1.533770 S    
C58   H26   1.107740 S    
O27   C11   1.288308 A    
C28   C36   1.547024 S    
C35   C43   1.525455 S    
O45   C21   1.300937 A    
C65   C73   1.542644 S    
C16   O40   1.269010 A    
C103  C117  1.410897 A    
C108  H52   1.078727 S    
O3    C19   1.303580 A    
C21   C83   1.454133 S    
O47   C23   1.256201 A    
C1    O17   1.286630 A    
C22   C84   1.447909 S    
C12   O36   1.273975 A    
C130  I4    2.104415 S    
C105  C107  1.390625 A    
C98   C106  1.387627 A    
C5    C95   1.479393 S    
C32   C40   1.545808 S    
C95   C125  1.437384 A    
C92   C122  1.425156 A    
C109  C111  1.393496 A    
O28   Cr6   1.980455 S    
Cr6   O50   1.994649 S    
O15   C7    1.266325 A    
C55   C63   1.545110 S    
C30   C54   1.544889 S    
C42   C50   1.520658 S    
O48   C24   1.303226 A    
C13   O37   1.261125 A    
C74   H42   1.108976 S    
C57   H25   1.100255 S    
C76   C84   1.522609 S    
C99   C113  1.412223 A    
O29   C13   1.279847 A    
C122  C130  1.419270 A    
C30   C38   1.541437 S    
C96   C118  1.413992 A    
