data_mof_unit_34450.cif
_audit_creation_date              2013-03-05T16:06:18-0500
_audit_creation_method            fapswitch 2.2
_symmetry_space_group_name_H-M    P1
_symmetry_Int_Tables_number       1
_space_group_crystal_system       triclinic
_cell_length_a                    10.829378
_cell_length_b                    9.506024
_cell_length_c                    27.773843
_cell_angle_alpha                 90.000713
_cell_angle_beta                  89.816143
_cell_angle_gamma                 90.000328
_cell_volume                      2859.14485986

loop_
_atom_site_label
_atom_site_type_symbol
_atom_site_description
_atom_site_fract_x
_atom_site_fract_y
_atom_site_fract_z
_atom_type_partial_charge
O1    O     O_R   0.319640 0.618740 0.500000 -0.588330
O2    O     O_R   0.680360 0.381260 0.500000 -0.588653
O3    O     O_R   0.680360 0.618740 0.500000 -0.588324
O4    O     O_R   0.319640 0.381260 0.500000 -0.588627
C1    C     C_R   0.262024 0.500000 0.499980 0.797969
C2    C     C_R   0.737976 0.500001 0.500020 0.797951
O5    O     O_R   0.500020 0.618770 0.430260 -0.583069
O6    O     O_R   0.499980 0.381230 0.569740 -0.583224
O7    O     O_R   0.499980 0.618770 0.569740 -0.583075
O8    O     O_R   0.500020 0.381230 0.430260 -0.583238
C3    C     C_R   0.500583 0.500092 0.407347 0.832150
C4    C     C_R   0.499415 0.500094 0.592653 0.832145
Cu1   Cu    Cu3+1 0.500000 0.640660 0.500000 0.958458
Cu2   Cu    Cu3+1 0.500000 0.359340 0.500000 0.956955
C5    C     C_R   0.398248 0.524706 0.178571 0.632345
C6    C     C_R   0.601797 0.524840 0.821427 0.632259
O9    O     O_2   0.293956 0.542803 0.204581 -0.503979
O10   O     O_2   0.706065 0.543084 0.795414 -0.504086
N1    N     N_R   0.508011 0.502027 0.201540 -0.452720
N2    N     N_R   0.492052 0.502031 0.798461 -0.452696
C7    C     C_R   0.615057 0.480207 0.176348 0.616234
C8    C     C_R   0.385030 0.480069 0.823653 0.616398
C9    C     C_R   0.514123 0.376637 0.278203 -0.127370
C10   C     C_R   0.486292 0.376628 0.721800 -0.127395
C11   C     C_R   0.510388 0.374725 0.328333 -0.188383
C12   C     C_R   0.489997 0.374717 0.671670 -0.188298
C13   C     C_R   0.500244 0.629392 0.329197 -0.264824
C14   C     C_R   0.499383 0.629415 0.670800 -0.264808
C15   C     C_R   0.504800 0.632990 0.278738 0.383380
C16   C     C_R   0.494847 0.633018 0.721262 0.383275
C17   C     C_R   0.511042 0.504458 0.253161 0.228390
C18   C     C_R   0.489009 0.504462 0.746841 0.228393
C19   C     C_R   0.503417 0.512333 0.101499 -0.042905
C20   C     C_R   0.496649 0.512327 0.898501 -0.042894
C21   C     C_R   0.393875 0.530200 0.128097 -0.082619
C22   C     C_R   0.606173 0.530322 0.871902 -0.082599
C23   C     C_R   0.283624 0.559514 0.104053 -0.163629
C24   C     C_R   0.716402 0.559747 0.895945 -0.163704
C25   C     C_R   0.614981 0.485714 0.125834 -0.023762
C26   C     C_R   0.385105 0.485580 0.874167 -0.023724
C27   C     C_R   0.503238 0.501080 0.354274 -0.108584
C28   C     C_R   0.496762 0.501087 0.645726 -0.108664
H1    H     H_    0.495756 0.727482 0.348960 0.194858
H2    H     H_    0.503559 0.727503 0.651030 0.194998
H3    H     H_    0.200743 0.582963 0.124478 0.227013
H4    H     H_    0.799262 0.583286 0.875519 0.227007
C29   C     C_R   0.386080 0.513342 0.975620 0.068867
C30   C     C_R   0.613989 0.513462 0.024380 0.068819
C31   C     C_R   0.612771 0.535216 0.973768 -0.061899
C32   C     C_R   0.387281 0.535101 0.026232 -0.061906
C33   C     C_R   0.498565 0.520676 0.949400 0.049979
C34   C     C_R   0.501497 0.520680 0.050600 0.049984
C35   C     C_R   0.277453 0.476576 0.950648 -0.092067
C36   C     C_R   0.722644 0.476812 0.049353 -0.092029
C37   C     C_R   0.276720 0.464385 0.900738 -0.101424
C38   C     C_R   0.723386 0.464633 0.099264 -0.101403
O11   O     O_2   0.278779 0.455412 0.799848 -0.502442
O12   O     O_2   0.721333 0.455690 0.200154 -0.502483
C39   C     C_R   0.279478 0.567116 0.053773 0.279160
C40   C     C_R   0.720548 0.567340 0.946226 0.279145
H5    H     H_    0.487814 0.274290 0.653278 0.180754
H6    H     H_    0.512866 0.274309 0.346727 0.180717
H7    H     H_    0.482603 0.278233 0.741409 0.187880
H8    H     H_    0.518112 0.278247 0.258597 0.187841
H9    H     H_    0.190642 0.438391 0.883075 0.205663
H10   H     H_    0.809484 0.438733 0.116927 0.205710
H11   H     H_    0.192581 0.452199 0.969384 0.193854
H12   H     H_    0.807534 0.452517 0.030618 0.193962
C41   C     C_R   0.063859 0.372148 0.499979 -0.167728
C42   C     C_R   0.936141 0.627856 0.500021 -0.166800
C43   C     C_R   0.936140 0.372148 0.500021 -0.167755
C44   C     C_R   0.063860 0.627856 0.499979 -0.166794
H13   H     H_    0.111912 0.272200 0.499958 0.152507
H14   H     H_    0.888087 0.727804 0.500043 0.152561
H15   H     H_    0.888085 0.272201 0.500042 0.152499
H16   H     H_    0.111916 0.727803 0.499956 0.152568
C45   C     C_R   0.871795 0.500002 0.500029 -0.020811
C46   C     C_R   0.128205 0.500001 0.499970 -0.020811
C47   C     C_R   0.423433 0.074458 0.470130 -0.014839
C48   C     C_R   0.576559 0.925538 0.529873 -0.013498
C49   C     C_R   0.576567 0.074461 0.529870 -0.014820
C50   C     C_R   0.423440 0.925535 0.470127 -0.013519
N3    N     N_R   0.500000 0.852070 0.500000 -0.163178
N4    N     N_R   0.500000 0.147930 0.500000 -0.163114
H17   H     H_    0.362131 0.130673 0.446219 0.126978
H18   H     H_    0.637847 0.869320 0.553790 0.127798
H19   H     H_    0.637869 0.130679 0.553781 0.126928
H20   H     H_    0.362153 0.869314 0.446210 0.127801
N5    N     N_R   0.502991 0.766768 0.254285 0.139047
O13   O     O_R   0.458412 0.877538 0.275731 -0.350941
O14   O     O_R   0.554237 0.781859 0.212167 -0.325131
N6    N     N_R   0.496256 0.766829 0.745707 0.139149
O15   O     O_R   0.540010 0.877879 0.724180 -0.351232
O16   O     O_R   0.445409 0.781627 0.787910 -0.325072
N7    N     N_R   0.170438 0.625672 0.032246 0.130694
O17   O     O_R   0.180464 0.724076 0.999881 -0.272342
O18   O     O_R   0.062103 0.598139 0.050355 -0.310670
N8    N     N_R   0.829552 0.625988 0.967751 0.130690
O19   O     O_R   0.819468 0.724377 0.000121 -0.272464
O20   O     O_R   0.937902 0.598554 0.949638 -0.310379

loop_
_geom_bond_atom_site_label_1
_geom_bond_atom_site_label_2
_geom_bond_distance
_ccdc_geom_bond_type
C43   H15   1.083290 S    
C13   C15   1.402584 A    
N7    O17   1.301643 A    
Cu2   N4    2.009669 S    
C44   H16   1.083289 S    
O3    C2    1.289720 A    
N1    C17   1.434367 S    
C8    O11   1.349413 S    
C15   N5    1.441855 S    
C19   C34   1.416093 A    
C30   C36   1.411458 A    
C20   C33   1.416091 A    
C19   C25   1.409175 A    
C31   C40   1.426506 A    
C20   C26   1.409179 A    
C32   C39   1.426497 A    
C21   C23   1.397944 A    
C12   H5    1.083031 S    
C10   C12   1.392845 A    
C40   N8    1.437434 S    
C47   N4    1.366727 A    
C38   H10   1.083316 S    
C36   H12   1.079884 S    
C14   C28   1.404992 A    
C41   C43   1.383111 A    
O7    Cu1   1.948095 S    
C4    C28   1.474256 S    
C5    N1    1.367930 A    
C31   C33   1.418504 A    
C42   H14   1.083290 S    
C32   C34   1.418497 A    
C41   H13   1.083290 S    
N5    O14   1.301072 A    
O3    Cu1   1.964271 S    
C6    N2    1.367920 A    
C29   C35   1.411460 A    
Cu1   Cu2   2.674235 S    
C42   C45   1.400971 A    
C41   C46   1.400967 A    
O2    C2    1.289723 A    
C39   N7    1.437433 S    
C48   N3    1.366712 A    
C35   H11   1.079885 S    
C5    C21   1.403781 A    
C37   H9    1.083315 S    
C29   C32   1.420927 A    
C35   C37   1.391100 A    
C36   C38   1.391105 A    
C16   N6    1.441959 S    
O8    Cu2   1.948095 S    
C11   C27   1.402651 A    
O4    C1    1.289727 A    
C2    C45   1.449168 S    
C29   C33   1.418934 A    
C14   H2    1.082968 S    
C9    C17   1.400518 A    
O5    C3    1.295269 A    
C10   C18   1.400493 A    
C13   C27   1.405012 A    
C25   C38   1.399041 A    
C7    C25   1.403973 A    
C30   C34   1.418936 A    
O6    C4    1.296810 A    
C26   C37   1.399034 A    
C8    C26   1.403962 A    
N6    O16   1.301058 A    
C23   C39   1.399194 A    
C49   H19   1.081751 S    
C24   C40   1.399202 A    
C30   C31   1.420941 A    
N2    C8    1.367912 A    
C50   N3    1.366714 A    
C10   H7    1.083030 S    
N8    O20   1.301577 A    
O1    C1    1.289717 A    
O1    Cu1   1.964269 S    
C23   H3    1.083446 S    
C43   C45   1.400970 A    
C49   N4    1.366724 A    
C12   C28   1.402616 A    
N2    C18   1.434348 S    
C5    O9    1.349743 S    
C9    H8    1.083057 S    
O6    Cu2   1.948090 S    
N1    C7    1.367917 A    
C48   C49   1.415668 A    
C47   C50   1.415668 A    
N7    O18   1.301572 A    
Cu1   N3    2.009669 S    
C48   H18   1.081767 S    
C22   C24   1.397939 A    
N5    O13   1.301820 A    
C7    O12   1.349412 S    
C15   C17   1.414838 A    
C6    C22   1.403788 A    
C16   C18   1.414869 A    
C50   H20   1.081766 S    
C14   C16   1.402650 A    
N6    O15   1.301750 A    
C19   C21   1.405772 A    
C47   H17   1.081750 S    
C3    C27   1.474251 S    
C20   C22   1.405773 A    
C11   H6    1.083055 S    
C9    C11   1.392862 A    
O4    Cu2   1.964271 S    
O2    Cu2   1.964269 S    
O7    C4    1.295269 A    
C24   H4    1.083445 S    
O8    C3    1.296807 A    
C13   H1    1.083010 S    
O5    Cu1   1.948090 S    
C6    O10   1.349743 S    
N8    O19   1.301646 A    
C44   C46   1.400974 A    
C42   C44   1.383115 A    
C1    C46   1.449168 S    
