data_mof_unit_56941.cif
_audit_creation_date              2013-03-05T16:41:34-0500
_audit_creation_method            fapswitch 2.2
_symmetry_space_group_name_H-M    P1
_symmetry_Int_Tables_number       1
_space_group_crystal_system       triclinic
_cell_length_a                    12.837423
_cell_length_b                    10.702472
_cell_length_c                    9.907031
_cell_angle_alpha                 89.467705
_cell_angle_beta                  97.95317
_cell_angle_gamma                 90.551081
_cell_volume                      1347.95027968

loop_
_atom_site_label
_atom_site_type_symbol
_atom_site_description
_atom_site_fract_x
_atom_site_fract_y
_atom_site_fract_z
_atom_type_partial_charge
O1    O     O_R   0.500010 0.316790 0.614690 -0.620930
O2    O     O_R   0.500000 0.316760 0.385350 -0.627288
C1    C     C_R   0.503693 0.260059 0.501046 0.885301
O3    O     O_R   0.346360 0.499990 0.595720 -0.597198
O4    O     O_R   0.346350 0.499960 0.366370 -0.619894
C2    C     C_R   0.298203 0.500587 0.472316 0.896225
Zn1   Zn    Zn3+2 0.500010 0.500020 0.653130 1.018909
Zn2   Zn    Zn3+2 0.499990 0.499980 0.346870 0.957527
O5    O     O_R   0.500000 0.683240 0.614650 -0.583997
O6    O     O_R   0.499990 0.683210 0.385310 -0.624284
O7    O     O_R   0.653650 0.500040 0.633630 -0.574176
O8    O     O_R   0.653640 0.500010 0.404280 -0.634262
C3    C     C_R   0.503024 0.739837 0.499935 0.890918
C4    C     C_R   0.701905 0.500005 0.527292 0.893146
C5    C     C_R   0.814513 0.504004 0.543333 -0.073711
C6    C     C_R   0.185718 0.499287 0.453957 -0.056543
C7    C     C_R   0.020840 0.424322 0.336515 -0.164143
C8    C     C_R   0.128713 0.438687 0.342405 -0.170638
C9    C     C_R   0.135722 0.550815 0.556054 -0.159101
C10   C     C_R   0.028809 0.535722 0.552150 0.175951
C11   C     C_R   0.971025 0.470772 0.442265 0.165665
C12   C     C_R   0.864228 0.454101 0.439646 -0.248376
C13   C     C_R   0.871530 0.567924 0.652230 -0.150227
C14   C     C_R   0.979073 0.583330 0.657178 -0.138504
H1    H     H_    0.819322 0.404602 0.355383 0.163944
H2    H     H_    0.832733 0.610489 0.729653 0.237869
H3    H     H_    0.976935 0.375287 0.251384 0.163077
H4    H     H_    0.022834 0.633920 0.741256 0.178433
H5    H     H_    0.167864 0.398467 0.263344 0.162063
H6    H     H_    0.180661 0.599451 0.640782 0.183165
C15   C     C_R   0.525761 0.062351 0.626300 0.107438
C16   C     C_R   0.521016 0.128724 0.504164 -0.092645
C17   C     C_R   0.536094 0.066072 0.384420 -0.213213
H7    H     H_    0.541111 0.115830 0.289779 0.171381
C18   C     C_R   0.535360 0.936705 0.383581 -0.207569
H8    H     H_    0.540418 0.889063 0.288732 0.179228
C19   C     C_R   0.518799 0.871341 0.502178 -0.110486
C20   C     C_R   0.522415 0.934907 0.624703 0.148510
C21   C     C_3   0.454782 0.926787 0.736345 -0.207707
C22   C     C_3   0.458891 0.068605 0.738091 -0.533549
H9    H     H_    0.494936 0.882073 0.830929 0.186577
H10   H     H_    0.382254 0.114688 0.704144 0.235760
H11   H     H_    0.504016 0.105470 0.833472 0.196042
C23   C     C_R   0.411445 0.467963 0.055902 0.177820
N1    N     N_R   0.499290 0.499140 0.142710 -0.130329
C24   C     C_R   0.583807 0.543326 0.087567 -0.195988
H12   H     H_    0.651434 0.578163 0.154342 0.195968
C25   C     C_R   0.584153 0.544736 0.944259 0.333130
N2    N     N_R   0.499290 0.499180 0.857070 -0.190974
C26   C     C_R   0.410706 0.469573 0.913384 0.090268
C27   C     C_3   0.352203 0.348035 0.900656 0.126079
C28   C     C_3   0.354246 0.346327 0.054518 -0.541754
H13   H     H_    0.397953 0.272620 0.862453 0.103469
H14   H     H_    0.276021 0.355415 0.089000 0.229399
H15   H     H_    0.403823 0.270570 0.106193 0.183648
N3    N     N_R   0.673929 0.596517 0.893300 0.209900
O9    O     O_R   0.662870 0.696236 0.816976 -0.413042
O10   O     O_R   0.767344 0.568238 0.953867 -0.435012
N4    N     N_R   0.246071 0.360475 0.826353 0.244005
O11   O     O_R   0.214084 0.284663 0.727055 -0.396454
O12   O     O_R   0.181979 0.444412 0.860533 -0.413275
C29   C     C_1   0.348050 0.877602 0.691756 0.246830
N5    N     N_1   0.264195 0.839283 0.656648 -0.212375

loop_
_geom_bond_atom_site_label_1
_geom_bond_atom_site_label_2
_geom_bond_distance
_ccdc_geom_bond_type
O4    Zn2   2.008206 S    
C27   H13   1.102704 S    
C13   C14   1.382975 A    
C28   H15   1.112015 S    
C19   C20   1.391972 A    
N3    O10   1.301624 A    
C7    C11   1.398176 A    
C1    C16   1.424587 S    
C3    C19   1.419931 S    
C15   C16   1.391722 A    
C15   C20   1.364396 A    
C6    C8    1.399252 A    
Zn2   O8    1.975770 S    
C16   C17   1.405426 A    
C23   C28   1.487693 S    
C22   H10   1.113089 S    
C7    C8    1.385086 A    
C5    C12   1.394964 A    
N4    O11   1.300518 A    
C21   H9    1.111548 S    
C8    H5    1.082011 S    
O1    Zn1   2.001121 S    
N1    C24   1.359641 A    
C15   C22   1.494518 S    
C10   C14   1.396395 A    
Zn1   O7    2.008205 S    
C29   N5    1.156954 T    
O3    Zn1   1.975771 S    
O3    C2    1.291386 A    
C25   N2    1.381264 A    
C18   C19   1.402158 A    
C28   H14   1.109962 S    
O6    C3    1.287824 A    
O2    C1    1.287197 A    
Zn1   O5    1.994139 S    
C6    C9    1.391392 A    
O4    C2    1.289766 A    
C17   C18   1.384582 A    
O7    C4    1.293910 A    
C24   C25   1.420317 A    
N4    O12   1.302150 A    
C27   N4    1.462884 S    
Zn2   N1    2.021500 S    
C5    C13   1.397581 A    
C2    C6    1.430181 S    
C27   C28   1.520853 S    
C7    H3    1.084156 S    
C14   H4    1.084258 S    
C17   H7    1.083340 S    
N3    O9    1.299666 A    
Zn1   N2    2.021675 S    
Zn2   O6    2.001118 S    
N2    C26   1.367555 A    
C24   H12   1.081560 S    
C13   H2    1.077265 S    
C23   C26   1.410591 A    
C21   C22   1.518380 S    
C25   N3    1.426096 S    
C21   C29   1.473953 S    
O5    C3    1.288006 A    
C4    C5    1.432551 S    
C26   C27   1.493305 S    
C10   C11   1.413954 A    
C11   C12   1.377553 A    
C9    H6    1.084761 S    
C12   H1    1.085831 S    
C22   H11   1.111399 S    
O2    Zn2   1.994138 S    
C23   N1    1.361023 A    
C9    C10   1.375665 A    
O8    C4    1.288462 A    
O1    C1    1.290912 A    
C18   H8    1.083341 S    
C20   C21   1.499064 S    
