data_mof_unit_54897.cif
_audit_creation_date              2012-12-10T19:03:39-0500
_audit_creation_method            fapswitch 2.2
_symmetry_space_group_name_H-M    P1
_symmetry_Int_Tables_number       1
_space_group_crystal_system       triclinic
_cell_length_a                    15.871863
_cell_length_b                    10.808924
_cell_length_c                    9.538861
_cell_angle_alpha                 89.825044
_cell_angle_beta                  90.183298
_cell_angle_gamma                 89.861858
_cell_volume                      1636.44483603

loop_
_atom_site_label
_atom_site_type_symbol
_atom_type_description
_atom_site_fract_x
_atom_site_fract_y
_atom_site_fract_z
_atom_type_partial_charge
C1    C     C_R   0.501860 0.262410 0.500181 0.795865
C2    C     C_3   0.950076 0.480075 0.660811 -0.433046
C3    C     C_3   0.917060 0.498968 0.507850 0.183793
C4    C     C_3   0.953310 0.622672 0.446429 -0.130014
C5    C     C_3   0.050985 0.620725 0.462867 -0.535856
C6    C     C_1   0.824838 0.497109 0.503201 -0.080156
C7    C     C_1   0.175313 0.494725 0.505979 -0.065494
C8    C     C_1   0.250740 0.498310 0.501047 -0.190507
C9    C     C_R   0.507155 0.063716 0.626607 0.134213
C10   C     C_R   0.510481 0.129495 0.500715 -0.097248
C11   C     C_R   0.524079 0.065006 0.375223 -0.222585
C12   C     C_R   0.340248 0.500298 0.499987 0.833957
C13   C     C_R   0.522800 0.936288 0.375128 -0.216985
C14   C     C_R   0.507951 0.871144 0.500292 -0.092873
C15   C     C_R   0.505165 0.936337 0.626403 0.117785
C16   C     C_3   0.440880 0.932703 0.740801 -0.470218
C17   C     C_3   0.444497 0.072880 0.742349 -0.480808
C18   C     C_R   0.568051 0.542669 0.073536 0.169681
C19   C     C_R   0.438765 0.439063 0.074632 0.571663
C20   C     C_R   0.437858 0.443073 0.924603 -0.185351
C21   C     C_R   0.568490 0.541343 0.926502 0.246768
C22   C     C_3   0.607768 0.666146 0.918748 -0.486716
C23   C     C_R   0.500764 0.737813 0.499920 0.791700
C24   C     C_3   0.605829 0.668610 0.078019 -0.485062
C25   C     C_R   0.659762 0.499033 0.500150 0.822233
C26   C     C_3   0.047947 0.451181 0.665679 0.032859
C27   C     C_3   0.047721 0.399770 0.397437 0.361781
C28   C     C_3   0.950556 0.391368 0.414618 -0.436521
C29   C     C_1   0.749321 0.497364 0.500914 -0.190470
C30   C     C_3   0.083182 0.490599 0.512361 0.182472
Cu1   Cu    Cu3+1 0.500000 0.499980 0.640670 0.937626
Cu2   Cu    Cu3+1 0.500000 0.500020 0.359330 0.976955
H1    H     H_    0.910992 0.414626 0.720421 0.144441
H2    H     H_    0.936122 0.565188 0.719507 0.160346
H3    H     H_    0.939722 0.618400 0.331664 0.133382
H4    H     H_    0.531562 0.113396 0.276461 0.161128
H5    H     H_    0.529481 0.888834 0.276413 0.153584
H6    H     H_    0.379105 0.895979 0.704781 0.198093
H7    H     H_    0.465424 0.890654 0.839083 0.191788
H8    H     H_    0.385030 0.118317 0.708476 0.186393
H9    H     H_    0.472878 0.110820 0.839815 0.192082
H10   H     H_    0.386463 0.401805 0.866927 0.158651
H11   H     H_    0.672668 0.662343 0.875441 0.188304
H12   H     H_    0.566063 0.736230 0.869309 0.210921
H13   H     H_    0.669563 0.668399 0.126635 0.200326
H14   H     H_    0.561477 0.738730 0.119446 0.201611
H15   H     H_    0.058832 0.442144 0.291693 0.071956
H16   H     H_    0.932157 0.300817 0.460276 0.195557
H17   H     H_    0.920725 0.395298 0.308833 0.133601
H18   H     H_    0.075915 0.696676 0.527419 0.189564
H19   H     H_    0.078474 0.642558 0.358214 0.152625
N1    N     N_R   0.500530 0.500930 0.147930 -0.227584
N2    N     N_R   0.500530 0.500890 0.852020 -0.206521
O1    O     O_R   0.500000 0.319640 0.618810 -0.583865
O2    O     O_R   0.500010 0.319680 0.381230 -0.562330
O3    O     O_R   0.379430 0.499990 0.618840 -0.586947
O4    O     O_R   0.379440 0.500030 0.381260 -0.516328
O5    O     O_R   0.499990 0.680320 0.618770 -0.577182
O6    O     O_R   0.500000 0.680360 0.381190 -0.588732
O7    O     O_R   0.620560 0.499970 0.618740 -0.577373
O8    O     O_R   0.620570 0.500010 0.381160 -0.577548
C31   C     C_R   0.086351 0.527004 0.791983 0.102726
C32   C     C_R   0.075611 0.657204 0.802530 -0.151718
C33   C     C_R   0.108749 0.724608 0.914712 -0.150906
C34   C     C_R   0.151931 0.664797 0.022279 -0.109079
C35   C     C_R   0.159131 0.536796 0.020830 -0.132680
C36   C     C_R   0.125077 0.468599 0.910159 -0.175376
H20   H     H_    0.036372 0.708467 0.731178 0.128338
H21   H     H_    0.098775 0.823494 0.920289 0.118984
H22   H     H_    0.177134 0.717199 0.109309 0.119743
H23   H     H_    0.189663 0.489725 0.107509 0.146213
H24   H     H_    0.127798 0.369697 0.923123 0.120635
O9    O     O_3   0.374687 0.381439 0.148189 -0.550056
C37   C     C_3   0.363828 0.258343 0.102453 -0.381847
H25   H     H_    0.330617 0.206178 0.185928 0.191499
H26   H     H_    0.424969 0.210162 0.083775 0.148909
H27   H     H_    0.323449 0.255402 0.007129 0.151666
C38   C     C_R   0.067308 0.309093 0.688820 0.169630
C39   C     C_R   0.152531 0.268170 0.693542 -0.102052
C40   C     C_R   0.173656 0.143267 0.706187 -0.135653
C41   C     C_R   0.110980 0.054494 0.716473 -0.111285
C42   C     C_R   0.026945 0.090606 0.716185 -0.130460
C43   C     C_R   0.004824 0.215320 0.701015 -0.127034
H28   H     H_    0.203872 0.333141 0.693349 0.122792
H29   H     H_    0.238984 0.115317 0.709336 0.113249
H30   H     H_    0.127621 0.957704 0.725244 0.117540
H31   H     H_    0.978509 0.021100 0.726692 0.142382
H32   H     H_    0.938298 0.232804 0.695791 0.101312
O10   O     O_3   0.083512 0.279309 0.407557 -0.556485
C44   C     C_3   0.133805 0.251613 0.290045 -0.346448
H33   H     H_    0.160937 0.157716 0.304143 0.192299
H34   H     H_    0.187037 0.317693 0.280565 0.180357
H35   H     H_    0.095350 0.251205 0.192314 0.152909
C45   C     C_R   0.916008 0.747809 0.490677 0.136957
C46   C     C_R   0.855805 0.763854 0.598180 -0.146807
C47   C     C_R   0.820662 0.880308 0.624269 -0.159010
C48   C     C_R   0.844766 0.982609 0.544588 -0.133318
C49   C     C_R   0.905050 0.969169 0.439676 -0.117062
C50   C     C_R   0.940275 0.853043 0.412877 -0.164529
H36   H     H_    0.833742 0.688305 0.661846 0.125298
H37   H     H_    0.774131 0.891030 0.706132 0.130191
H38   H     H_    0.817355 0.072537 0.565044 0.122118
H39   H     H_    0.924294 0.048739 0.378536 0.144120
H40   H     H_    0.985930 0.844695 0.329211 0.122553

loop_
_geom_bond_atom_site_label_1
_geom_bond_atom_site_label_2
_ccdc_geom_bond_type
Cu1   O7    S    
C23   O5    A    
C18   C21   A    
O9    C37   S    
C46   C47   A    
C3    C6    S    
C48   C49   A    
C18   N1    A    
C7    C8    T    
C23   O6    A    
C26   C38   S    
C37   H26   S    
C31   C36   A    
C18   C24   S    
C24   H13   S    
Cu1   O5    S    
C3    C28   S    
Cu2   O8    S    
C39   H28   S    
C42   H31   S    
C36   H24   S    
Cu2   N1    S    
C38   C43   A    
C22   H12   S    
C22   H11   S    
C16   C17   S    
C37   H27   S    
C49   H39   S    
C27   O10   S    
C25   O7    A    
C13   C14   A    
Cu1   O3    S    
C9    C10   A    
Cu2   O2    S    
C13   H5    S    
C48   H38   S    
C2    H2    S    
C43   H32   S    
C26   C31   S    
C4    H3    S    
C7    C30   S    
C47   H37   S    
C27   C30   S    
Cu2   O4    S    
C19   N1    A    
C41   C42   A    
C25   C29   S    
C37   H25   S    
C19   O9    S    
C38   C39   A    
C20   N2    A    
C32   C33   A    
C17   H8    S    
C11   H4    S    
C14   C23   S    
C34   H22   S    
C1    O1    A    
C40   H29   S    
C28   H17   S    
C44   H34   S    
C35   H23   S    
C8    C12   S    
C47   C48   A    
C31   C32   A    
C2    C26   S    
C25   O8    A    
C33   H21   S    
Cu1   N2    S    
C12   O3    A    
C4    C45   S    
C12   O4    A    
C2    H1    S    
C9    C17   S    
C42   C43   A    
C22   C24   S    
C5    H18   S    
C3    C4    S    
C44   H35   S    
C5    C30   S    
C27   H15   S    
C32   H20   S    
C28   H16   S    
C50   H40   S    
C46   H36   S    
Cu1   Cu2   S    
C1    C10   S    
C41   H30   S    
C40   C41   A    
C20   H10   S    
C26   C30   S    
C24   H14   S    
C33   C34   A    
C19   C20   A    
C2    C3    S    
C9    C15   A    
C21   N2    A    
C11   C13   A    
C44   H33   S    
C45   C50   A    
C35   C36   A    
C34   C35   A    
Cu1   O1    S    
C1    O2    A    
C45   C46   A    
C17   H9    S    
C10   C11   A    
C16   H7    S    
C39   C40   A    
C4    C5    S    
C6    C29   T    
C49   C50   A    
C27   C28   S    
C14   C15   A    
C5    H19   S    
Cu2   O6    S    
O10   C44   S    
C21   C22   S    
C15   C16   S    
C16   H6    S    
