data_mof_unit_30323.cif
_audit_creation_date              2012-10-26T20:38:23-0400
_audit_creation_method            fapswitch 2.2
_symmetry_space_group_name_H-M    P1
_symmetry_Int_Tables_number       1
_space_group_crystal_system       triclinic
_cell_length_a                    15.869657
_cell_length_b                    10.780522
_cell_length_c                    9.792864
_cell_angle_alpha                 109.601384
_cell_angle_beta                  98.503472
_cell_angle_gamma                 90.452126
_cell_volume                      1557.97848003

loop_
_atom_site_label
_atom_site_type_symbol
_atom_type_description
_atom_site_fract_x
_atom_site_fract_y
_atom_site_fract_z
_atom_type_partial_charge
C1    C     C_R   0.497561 0.252856 0.442896 0.563000
C2    C     C_3   0.018272 0.516178 0.376383 -0.130771
C3    C     C_3   0.026619 0.386054 0.507016 0.039846
C4    C     C_3   0.973195 0.614747 0.492832 0.036669
C5    C     C_1   0.250442 0.500452 0.502889 0.029995
C6    C     C_1   0.749488 0.499915 0.497123 0.015092
C7    C     C_3   0.039168 0.599854 0.618103 -0.130886
C8    C     C_3   0.960668 0.400958 0.381753 -0.128189
C9    C     C_3   0.083148 0.499739 0.501746 0.045773
C10   C     C_3   0.916705 0.501043 0.498112 0.046638
C11   C     C_1   0.174934 0.500350 0.503015 0.018496
C12   C     C_R   0.509077 0.747160 0.556943 0.560984
C13   C     C_1   0.824964 0.500237 0.496928 0.019237
C14   C     C_2   0.504334 0.110770 0.418242 -0.043964
C15   C     C_2   0.520583 0.889316 0.581142 -0.039300
C16   C     C_2   0.054099 0.255817 0.515106 0.243882
C17   C     C_2   0.945494 0.744887 0.484669 0.247696
C18   C     C_2   0.623818 0.842868 0.402332 0.283237
C19   C     C_2   0.642568 0.158512 0.592605 0.281079
C20   C     C_2   0.476357 0.983553 0.693144 0.248289
C21   C     C_2   0.438182 0.015864 0.308249 0.255403
C22   C     C_2   0.567838 0.069695 0.500530 -0.043119
C23   C     C_2   0.567456 0.930945 0.496578 -0.042069
C24   C     C_2   0.507398 0.511036 0.080586 -0.004569
C25   C     C_2   0.492943 0.488365 0.919235 -0.001339
C26   C     C_R   0.339921 0.500136 0.500961 0.576338
C27   C     C_R   0.660062 0.499985 0.499055 0.518141
C28   C     C_3   0.981567 0.484628 0.623467 -0.131118
Cu1   Cu    Cu3+1 0.514700 0.521810 0.644910 1.003995
Cu2   Cu    Cu3+1 0.485300 0.478190 0.355090 1.000875
H1    H     H_    0.965716 0.470878 0.724366 0.128459
H2    H     H_    0.992538 0.817105 0.481779 0.114392
H3    H     H_    0.639581 0.748796 0.413601 0.130982
H4    H     H_    0.655913 0.253042 0.581443 0.122508
H5    H     H_    0.485297 0.089192 0.718151 0.121190
H6    H     H_    0.442400 0.910293 0.282513 0.124854
H7    H     H_    0.034103 0.529918 0.275469 0.126631
H8    H     H_    0.927780 0.318977 0.285287 0.134936
H9    H     H_    0.072038 0.681843 0.714577 0.134161
H10   H     H_    0.444318 0.414481 0.847547 0.155442
H11   H     H_    0.556304 0.584440 0.152092 0.156452
H12   H     H_    0.582489 0.624306 0.933148 0.233193
H13   H     H_    0.417238 0.376112 0.066981 0.228908
H14   H     H_    0.006957 0.183824 0.518192 0.117459
N1    N     N_2   0.463210 0.445420 0.137360 -0.344243
N2    N     N_2   0.536790 0.554580 0.862640 -0.341110
O1    O     O_R   0.507840 0.332340 0.577400 -0.531390
O2    O     O_2   0.870617 0.770448 0.481222 -0.465337
O3    O     O_2   0.654746 0.876391 0.312129 -0.477045
O4    O     O_2   0.691377 0.125033 0.680775 -0.472183
O5    O     O_2   0.429061 0.943688 0.759179 -0.456331
O6    O     O_2   0.377772 0.055084 0.244742 -0.447577
O7    O     O_R   0.492160 0.667660 0.422600 -0.532482
O8    O     O_R   0.483020 0.295500 0.332650 -0.431756
O9    O     O_R   0.516980 0.704500 0.667350 -0.432176
O10   O     O_R   0.391490 0.518400 0.622350 -0.481174
O11   O     O_R   0.608510 0.481600 0.377650 -0.506591
O12   O     O_R   0.366660 0.481570 0.377600 -0.475626
O13   O     O_R   0.633340 0.518430 0.622400 -0.499135
O14   O     O_2   0.128902 0.229914 0.518247 -0.474749

loop_
_geom_bond_atom_site_label_1
_geom_bond_atom_site_label_2
_ccdc_geom_bond_type
C2    C4    S    
C1    O8    A    
C17   O2    D    
Cu1   Cu2   S    
C3    C9    S    
Cu1   O10   S    
C5    C26   S    
Cu2   O8    S    
C16   H14   S    
Cu2   N1    S    
C12   O7    A    
C2    H7    S    
C12   C15   S    
Cu1   N2    S    
C14   C22   D    
C15   C23   D    
C10   C13   S    
C21   H6    S    
C27   O13   A    
C6    C13   T    
C24   H11   S    
H13   N1    S    
C19   O4    D    
C8    H8    S    
Cu1   O1    S    
C4    C7    S    
C4    C17   S    
Cu2   O12   S    
C14   C21   S    
C3    C28   S    
C18   H3    S    
C5    C11   T    
C20   O5    D    
C9    C11   S    
C25   H10   S    
C27   O11   A    
C15   C20   S    
Cu2   O7    S    
C12   O9    A    
C3    C16   S    
C24   N1    D    
Cu1   O13   S    
C4    C10   S    
C18   C23   S    
Cu2   O11   S    
H12   N2    S    
C21   O6    D    
C19   C22   S    
C24   C25   S    
C8    C10   S    
C3    C8    S    
C16   O14   D    
C10   C28   S    
C7    C9    S    
C17   H2    S    
C7    H9    S    
C22   C23   S    
C1    O1    A    
C20   H5    S    
C1    C14   S    
Cu1   O9    S    
C2    C9    S    
C25   N2    D    
C26   O12   A    
C28   H1    S    
C2    C8    S    
C7    C28   S    
C6    C27   S    
C18   O3    D    
C19   H4    S    
C26   O10   A    
