data_mof_unit_21338.cif
_audit_creation_date              2012-12-10T16:59:23-0500
_audit_creation_method            fapswitch 2.2
_symmetry_space_group_name_H-M    P1
_symmetry_Int_Tables_number       1
_space_group_crystal_system       triclinic
_cell_length_a                    19.334447
_cell_length_b                    10.90733
_cell_length_c                    9.754483
_cell_angle_alpha                 89.555358
_cell_angle_beta                  90.410409
_cell_angle_gamma                 91.837696
_cell_volume                      2055.9264296

loop_
_atom_site_label
_atom_site_type_symbol
_atom_type_description
_atom_site_fract_x
_atom_site_fract_y
_atom_site_fract_z
_atom_type_partial_charge
C1    C     C_R   0.504402 0.265309 0.500914 0.722094
C2    C     C_R   0.292314 0.517652 0.498578 -0.219949
C3    C     C_R   0.931259 0.524445 0.492430 0.422443
C4    C     C_R   0.071321 0.529990 0.490229 0.452978
C5    C     C_R   0.820267 0.457652 0.600246 -0.245794
C6    C     C_R   0.747647 0.452833 0.605694 0.426175
C7    C     C_R   0.709277 0.508963 0.499360 -0.180720
C8    C     C_R   0.745194 0.572872 0.392840 0.205793
C9    C     C_R   0.817317 0.576518 0.390776 -0.187198
C10   C     C_R   0.855190 0.519576 0.494214 -0.042631
C11   C     C_2   0.507829 0.933911 0.387799 -0.096342
C12   C     C_R   0.367866 0.505827 0.499790 0.873230
C13   C     C_2   0.493816 0.865965 0.499420 -0.243557
C14   C     C_2   0.501091 0.066858 0.390997 -0.237453
C15   C     C_2   0.517322 0.133117 0.503050 0.309486
C16   C     C_2   0.455317 0.437406 0.924601 0.320793
C17   C     C_2   0.453930 0.436842 0.080408 0.454788
C18   C     C_R   0.498971 0.734375 0.499486 0.839872
C19   C     C_R   0.632664 0.502238 0.500118 0.865927
C20   C     C_R   0.257809 0.585835 0.598326 0.209935
C21   C     C_R   0.185571 0.595302 0.590934 0.366235
C22   C     C_R   0.147266 0.530363 0.489625 -0.201999
C23   C     C_R   0.182050 0.463154 0.390420 0.419904
C24   C     C_R   0.254111 0.461736 0.392744 -0.305714
Cu1   Cu    Cu3+1 0.500010 0.500020 0.638630 1.075236
Cu2   Cu    Cu3+1 0.499990 0.499980 0.361370 1.016635
H1    H     H_    0.476483 0.907414 0.593201 0.161944
H2    H     H_    0.481269 0.108828 0.298818 0.111677
H3    H     H_    0.508455 0.586508 0.119392 0.234910
H4    H     H_    0.280179 0.413154 0.313451 0.211915
H5    H     H_    0.849801 0.410351 0.677340 0.162187
H6    H     H_    0.843867 0.626199 0.309071 0.188954
H7    H     H_    0.520294 0.891651 0.290942 0.179961
N1    N     N_R   0.034944 0.544042 0.371988 -0.185049
N2    N     N_R   0.966092 0.541796 0.373141 -0.238724
N3    N     N_R   0.967803 0.510447 0.610503 -0.239437
N4    N     N_R   0.036575 0.513520 0.609494 -0.187582
N5    N     N_2   0.499250 0.498660 0.846910 -0.096104
N6    N     N_2   0.499230 0.498630 0.153040 -0.302197
O1    O     O_R   0.500010 0.321960 0.617040 -0.564806
O2    O     O_R   0.499990 0.321920 0.382900 -0.607038
O3    O     O_R   0.400160 0.500010 0.617110 -0.502197
O4    O     O_R   0.400130 0.499970 0.382960 -0.546151
O5    O     O_R   0.500010 0.678080 0.617100 -0.532030
O6    O     O_R   0.499990 0.678040 0.382960 -0.582448
O7    O     O_R   0.599870 0.500030 0.617040 -0.525274
O8    O     O_R   0.599840 0.499990 0.382890 -0.539798
Br1   Br    Br    0.307035 0.675739 0.740125 -0.454959
O9    O     O_3   0.562306 0.083094 0.599411 -0.589155
C25   C     C_3   0.539923 0.094578 0.736359 0.053989
H8    H     H_    0.535809 0.000858 0.781609 0.173805
H9    H     H_    0.487857 0.133821 0.747641 0.162816
C26   C     C_3   0.595082 0.167618 0.817304 -0.274197
H10   H     H_    0.645789 0.124298 0.803883 0.237193
H11   H     H_    0.599250 0.262870 0.777016 0.271583
C27   C     C_3   0.578634 0.171312 0.969675 -0.915991
H12   H     H_    0.530126 0.220040 0.984883 0.245301
H13   H     H_    0.620862 0.221741 0.025235 0.265214
H14   H     H_    0.573240 0.077014 0.012936 0.267554
Br2   Br    Br    0.387838 0.330873 0.836502 -0.526360
Br3   Br    Br    0.577039 0.594166 0.906350 -0.457084
O10   O     O_3   0.393334 0.393742 0.143797 -0.561463
C28   C     C_3   0.390781 0.264467 0.159349 0.106270
H15   H     H_    0.400500 0.242704 0.268156 0.150518
H16   H     H_    0.429139 0.217260 0.095777 0.124839
C29   C     C_3   0.317531 0.212142 0.129161 -0.340881
H17   H     H_    0.283671 0.227805 0.218033 0.189592
H18   H     H_    0.294204 0.258437 0.039315 0.279812
C30   C     C_3   0.317747 0.074248 0.103681 -0.871378
H19   H     H_    0.348472 0.054712 0.011011 0.279155
H20   H     H_    0.263860 0.038790 0.087200 0.262696
H21   H     H_    0.340170 0.026035 0.193532 0.247819
O11   O     O_3   0.152476 0.666973 0.685066 -0.552225
C31   C     C_3   0.143450 0.784376 0.626368 0.084358
H22   H     H_    0.106146 0.778535 0.538921 0.136889
H23   H     H_    0.193626 0.825260 0.589316 0.149868
C32   C     C_3   0.114815 0.869017 0.734810 -0.279185
H24   H     H_    0.064796 0.829696 0.773256 0.233806
H25   H     H_    0.151819 0.876038 0.822385 0.240878
C33   C     C_3   0.103384 0.997159 0.676499 -0.932143
H26   H     H_    0.152782 0.038537 0.637635 0.260177
H27   H     H_    0.083594 0.056768 0.758223 0.266860
H28   H     H_    0.064815 0.992682 0.591620 0.257551
O12   O     O_3   0.146104 0.399356 0.289244 -0.570707
C34   C     C_3   0.135587 0.276479 0.333418 0.055094
H29   H     H_    0.096360 0.271708 0.416533 0.154543
H30   H     H_    0.184477 0.236468 0.372163 0.125254
C35   C     C_3   0.109185 0.199486 0.212616 -0.298808
H31   H     H_    0.059415 0.235695 0.174689 0.238496
H32   H     H_    0.147397 0.206165 0.128032 0.228209
C36   C     C_3   0.098201 0.064977 0.253629 -0.924579
H33   H     H_    0.147536 0.026555 0.290719 0.256119
H34   H     H_    0.079717 0.011490 0.163391 0.267122
H35   H     H_    0.058807 0.055722 0.335675 0.259832
O13   O     O_3   0.713918 0.381726 0.705073 -0.617990
C37   C     C_3   0.733420 0.418695 0.839575 0.093327
H36   H     H_    0.685253 0.433018 0.896938 0.218430
H37   H     H_    0.764092 0.507141 0.844151 0.154874
C38   C     C_3   0.771947 0.317038 0.914456 -0.399056
H38   H     H_    0.740073 0.230697 0.912976 0.234500
H39   H     H_    0.821471 0.299317 0.862841 0.222638
C39   C     C_3   0.787133 0.351668 0.063358 -0.830487
H40   H     H_    0.820042 0.436945 0.067976 0.268924
H41   H     H_    0.814999 0.276654 0.115137 0.259080
H42   H     H_    0.738148 0.366007 0.119060 0.270752
Br4   Br    Br    0.700155 0.664627 0.250450 -0.481971

loop_
_geom_bond_atom_site_label_1
_geom_bond_atom_site_label_2
_ccdc_geom_bond_type
C29   H18   S    
C28   H16   S    
C11   C13   D    
O11   C31   S    
O13   C37   S    
C2    C12   S    
C19   O7    A    
C7    C8    A    
C26   H10   S    
C31   H23   S    
C13   C18   S    
N3    N4    A    
C12   O4    A    
Cu1   O1    S    
C16   Br2   S    
C5    C6    A    
Cu1   N5    S    
C11   C14   S    
C19   O8    A    
Cu2   N6    S    
C34   C35   S    
C29   C30   S    
C37   C38   S    
C21   O11   S    
C27   H12   S    
C39   H42   S    
N1    N2    A    
C17   N6    D    
C30   H20   S    
C12   O3    A    
C9    H6    S    
C8    C9    A    
C31   C32   S    
C37   H37   S    
C25   H9    S    
C23   C24   A    
C1    C15   S    
C9    C10   A    
Cu2   O6    S    
N5    Br3   S    
C34   H30   S    
C29   H17   S    
C28   C29   S    
C21   C22   A    
C30   H19   S    
C33   H28   S    
Cu1   O5    S    
Cu2   O4    S    
C4    N4    A    
C26   H11   S    
C4    N1    A    
C25   C26   S    
C23   O12   S    
C2    C20   A    
C11   H7    S    
O12   C34   S    
C33   H27   S    
C31   H22   S    
C36   H33   S    
C16   C17   S    
Cu1   Cu2   S    
C32   H24   S    
C30   H21   S    
O10   C28   S    
C18   O5    A    
C17   O10   S    
C36   H34   S    
C4    C22   S    
C38   H38   S    
C35   C36   S    
C3    N2    A    
C37   H36   S    
H3    N6    S    
C25   H8    S    
C32   H25   S    
C35   H31   S    
C39   H41   S    
C34   H29   S    
C20   Br1   S    
Cu2   O8    S    
C1    O2    A    
C38   H39   S    
C35   H32   S    
O9    C25   S    
C7    C19   S    
C2    C24   A    
C18   O6    A    
C26   C27   S    
C14   C15   D    
C33   H26   S    
C8    Br4   S    
Cu1   O3    S    
C6    C7    A    
C27   H14   S    
C1    O1    A    
C5    C10   A    
C3    C10   S    
C36   H35   S    
C32   C33   S    
C3    N3    A    
C27   H13   S    
C15   O9    S    
C39   H40   S    
C24   H4    S    
C28   H15   S    
C38   C39   S    
C20   C21   A    
C6    O13   S    
C22   C23   A    
C13   H1    S    
C14   H2    S    
Cu1   O7    S    
Cu2   O2    S    
C16   N5    D    
C5    H5    S    
