data_mof_unit_65433.cif
_audit_creation_date              2012-12-10T17:53:02-0500
_audit_creation_method            fapswitch 2.2
_symmetry_space_group_name_H-M    P1
_symmetry_Int_Tables_number       1
_space_group_crystal_system       triclinic
_cell_length_a                    19.613117
_cell_length_b                    19.612929
_cell_length_c                    43.114799
_cell_angle_alpha                 89.834775
_cell_angle_beta                  90.175029
_cell_angle_gamma                 90.041315
_cell_volume                      16584.8481181

loop_
_atom_site_label
_atom_site_type_symbol
_atom_type_description
_atom_site_fract_x
_atom_site_fract_y
_atom_site_fract_z
_atom_type_partial_charge
C1    C     C_R   0.998896 0.500625 0.531473 0.453008
C2    C     C_R   0.999226 0.503333 0.468513 0.453736
C3    C     C_R   0.501002 0.000292 0.531485 0.453440
C4    C     C_R   0.498962 0.999662 0.468515 0.453450
C5    C     C_R   0.500835 0.996656 0.031486 0.453738
C6    C     C_R   0.501209 0.999358 0.968530 0.452713
C7    C     C_R   0.998662 0.496421 0.031303 0.438910
C8    C     C_R   0.997473 0.491682 0.968396 0.421796
C9    C     C_R   0.499763 0.000419 0.665584 0.916896
C10   C     C_R   0.500235 0.999573 0.334416 0.917092
C11   C     C_R   0.999596 0.500258 0.665584 0.916799
C12   C     C_R   0.000643 0.499712 0.334438 0.908703
C13   C     C_R   0.999703 0.500451 0.165551 0.913861
C14   C     C_R   0.000319 0.499074 0.834477 0.921584
C15   C     C_R   0.499303 0.000288 0.165558 0.907884
C16   C     C_R   0.500441 0.999743 0.834417 0.916599
C17   C     C_R   0.370655 0.129270 0.749970 0.816246
C18   C     C_R   0.629344 0.870730 0.250030 0.815791
C19   C     C_R   0.870728 0.370726 0.750000 0.802241
C20   C     C_R   0.129273 0.629274 0.250001 0.802977
C21   C     C_R   0.629268 0.870657 0.750030 0.816084
C22   C     C_R   0.370730 0.129342 0.249969 0.816183
C23   C     C_R   0.129326 0.629318 0.749999 0.840977
C24   C     C_R   0.870677 0.370678 0.249997 0.836526
C25   C     C_R   0.370729 0.870725 0.250000 0.802668
C26   C     C_R   0.629272 0.129274 0.750002 0.802840
C27   C     C_R   0.870655 0.629270 0.249969 0.815887
C28   C     C_R   0.129344 0.370730 0.750031 0.816799
C29   C     C_R   0.629321 0.129324 0.250005 0.836544
C30   C     C_R   0.370677 0.870678 0.749999 0.837898
C31   C     C_R   0.129270 0.370658 0.250031 0.816414
C32   C     C_R   0.870731 0.629342 0.749969 0.817681
C33   C     C_1   0.681040 0.181045 0.750007 -0.158601
C34   C     C_1   0.318966 0.818950 0.249999 -0.158967
C35   C     C_1   0.819029 0.681159 0.749931 -0.145006
C36   C     C_1   0.180972 0.318842 0.250069 -0.147902
C37   C     C_1   0.318934 0.818930 0.749995 -0.150298
C38   C     C_1   0.681071 0.181065 0.250011 -0.148855
C39   C     C_1   0.181161 0.319031 0.750071 -0.147522
C40   C     C_1   0.818839 0.680970 0.249931 -0.146443
C41   C     C_1   0.681160 0.819028 0.250068 -0.146324
C42   C     C_1   0.318839 0.180972 0.749933 -0.146577
C43   C     C_1   0.818925 0.318938 0.249994 -0.148380
C44   C     C_1   0.181076 0.681058 0.749997 -0.149463
C45   C     C_1   0.319028 0.181159 0.249931 -0.147823
C46   C     C_1   0.680969 0.818839 0.750068 -0.145649
C47   C     C_1   0.181044 0.681041 0.250002 -0.158671
C48   C     C_1   0.818961 0.318956 0.750003 -0.159241
C49   C     C_1   0.724529 0.224534 0.750009 -0.001518
C50   C     C_1   0.275478 0.775460 0.250001 -0.001583
C51   C     C_1   0.775508 0.724585 0.749965 0.000016
C52   C     C_1   0.224491 0.275415 0.250034 -0.001789
C53   C     C_1   0.275462 0.775452 0.749994 0.001285
C54   C     C_1   0.724544 0.224542 0.250009 0.000702
C55   C     C_1   0.224588 0.275512 0.750038 -0.002225
C56   C     C_1   0.775412 0.724489 0.249965 -0.001350
C57   C     C_1   0.724585 0.775508 0.250034 -0.001287
C58   C     C_1   0.275415 0.224493 0.749969 -0.001737
C59   C     C_1   0.775451 0.275462 0.249999 0.000686
C60   C     C_1   0.224551 0.724534 0.749995 0.001606
C61   C     C_1   0.275509 0.224586 0.249965 -0.001789
C62   C     C_1   0.724489 0.775412 0.750034 -0.000403
C63   C     C_1   0.224537 0.724525 0.250002 -0.001757
C64   C     C_1   0.775469 0.275470 0.750007 -0.002141
C65   C     C_R   0.503999 0.998584 0.868727 -0.382975
C66   C     C_R   0.495173 0.001280 0.131215 -0.411101
C67   C     C_R   0.001740 0.491908 0.868791 -0.401664
C68   C     C_R   0.998316 0.503321 0.131170 -0.384758
C69   C     C_R   0.004712 0.498712 0.368776 -0.410464
C70   C     C_R   0.996100 0.501420 0.631277 -0.382945
C71   C     C_R   0.501202 0.996076 0.368724 -0.383394
C72   C     C_R   0.498789 0.003896 0.631276 -0.383264
C73   C     C_R   0.537308 0.051421 0.885201 0.323654
C74   C     C_R   0.463680 0.946956 0.114963 0.329634
C75   C     C_R   0.946570 0.461025 0.884694 0.323385
C76   C     C_R   0.051974 0.534506 0.114390 0.325612
C77   C     C_R   0.474091 0.943995 0.885214 0.295561
C78   C     C_R   0.523525 0.056338 0.114338 0.332943
C79   C     C_R   0.059257 0.514476 0.885848 0.328421
C80   C     C_R   0.942620 0.474789 0.114897 0.294334
C81   C     C_R   0.036799 0.552688 0.385024 0.329449
C82   C     C_R   0.962418 0.448825 0.614803 0.323974
C83   C     C_R   0.448473 0.962382 0.385103 0.324044
C84   C     C_R   0.551510 0.037592 0.614892 0.324092
C85   C     C_R   0.975705 0.443999 0.385643 0.332095
C86   C     C_R   0.026452 0.555765 0.614796 0.295157
C87   C     C_R   0.555267 0.026647 0.385307 0.295073
C88   C     C_R   0.444726 0.973307 0.614698 0.294924
C89   C     C_R   0.535564 0.052114 0.917903 0.396669
C90   C     C_R   0.466348 0.945038 0.082293 0.397220
C91   C     C_R   0.945310 0.460836 0.917362 0.406062
C92   C     C_R   0.052409 0.531632 0.081683 0.392337
C93   C     C_R   0.469746 0.946377 0.917785 0.359301
C94   C     C_R   0.530026 0.051995 0.081938 0.386509
C95   C     C_R   0.059206 0.511265 0.918448 0.390228
C96   C     C_R   0.944595 0.469363 0.082350 0.362931
C97   C     C_R   0.034211 0.554605 0.417697 0.397485
C98   C     C_R   0.964160 0.448120 0.582100 0.396993
C99   C     C_R   0.447314 0.964384 0.417795 0.397207
C100  C     C_R   0.552663 0.035577 0.582201 0.397121
C101  C     C_R   0.969321 0.448373 0.418049 0.387030
C102  C     C_R   0.030807 0.553338 0.582224 0.360694
C103  C     C_R   0.552389 0.031253 0.417870 0.360908
C104  C     C_R   0.447595 0.968695 0.582135 0.360962
C105  C     C_R   0.501993 0.999444 0.934213 -0.280383
C106  C     C_R   0.499562 0.997559 0.065778 -0.296573
C107  C     C_R   0.000789 0.487575 0.934256 -0.295490
C108  C     C_R   0.998617 0.499187 0.065634 -0.276142
C109  C     C_R   0.000446 0.502437 0.434216 -0.296708
C110  C     C_R   0.998139 0.500531 0.565792 -0.281107
C111  C     C_R   0.499387 0.998654 0.434199 -0.281140
C112  C     C_R   0.500588 0.001300 0.565801 -0.281118
N1    N     N_R   0.444702 0.979761 0.984303 -0.150414
N2    N     N_R   0.557376 0.016201 0.015723 -0.150632
N3    N     N_R   0.018674 0.548658 0.983413 -0.126782
N4    N     N_R   0.977219 0.439637 0.016219 -0.153325
N5    N     N_R   0.557604 0.017371 0.984864 -0.167614
N6    N     N_R   0.444475 0.978570 0.015156 -0.168901
N7    N     N_R   0.976768 0.437238 0.985384 -0.178566
N8    N     N_R   0.019085 0.551000 0.014269 -0.164037
N9    N     N_R   0.942538 0.484272 0.484290 -0.150886
N10   N     N_R   0.055550 0.519744 0.515689 -0.150162
N11   N     N_R   0.517463 0.056542 0.484290 -0.150374
N12   N     N_R   0.482499 0.943413 0.515710 -0.150375
N13   N     N_R   0.055755 0.520937 0.484834 -0.168744
N14   N     N_R   0.942334 0.483096 0.515149 -0.168292
N15   N     N_R   0.481621 0.943069 0.484851 -0.168688
N16   N     N_R   0.518342 0.056885 0.515150 -0.168685
O1    O     O_3   0.500000 0.000000 0.750000 -0.489859
O2    O     O_3   0.500000 0.000000 0.250000 -0.488840
O3    O     O_3   0.000000 0.500000 0.750000 -0.488858
O4    O     O_3   0.000000 0.500000 0.250000 -0.488650
O5    O     O_R   0.555780 0.000000 0.680640 -0.602345
O6    O     O_R   0.444220 0.000000 0.319360 -0.602307
O7    O     O_R   0.000000 0.555780 0.680640 -0.625777
O8    O     O_R   0.000000 0.444220 0.319360 -0.643898
O9    O     O_R   0.444220 0.000000 0.680640 -0.625874
O10   O     O_R   0.555780 0.000000 0.319360 -0.625714
O11   O     O_R   0.000000 0.444220 0.680640 -0.602414
O12   O     O_R   0.000000 0.555780 0.319360 -0.597103
O13   O     O_R   0.055780 0.500000 0.180640 -0.602911
O14   O     O_R   0.944220 0.500000 0.819360 -0.598340
O15   O     O_R   0.500000 0.055780 0.180640 -0.643174
O16   O     O_R   0.500000 0.944220 0.819360 -0.624973
O17   O     O_R   0.944220 0.500000 0.180640 -0.622501
O18   O     O_R   0.055780 0.500000 0.819360 -0.632974
O19   O     O_R   0.500000 0.944220 0.180640 -0.597019
O20   O     O_R   0.500000 0.055780 0.819360 -0.602839
O21   O     O_R   0.365890 0.078400 0.731800 -0.646442
O22   O     O_R   0.634110 0.921600 0.268200 -0.646757
O23   O     O_R   0.921600 0.365890 0.731800 -0.635909
O24   O     O_R   0.078400 0.634110 0.268200 -0.636410
O25   O     O_R   0.634110 0.921600 0.731800 -0.626638
O26   O     O_R   0.365890 0.078400 0.268200 -0.625948
O27   O     O_R   0.078400 0.634110 0.731800 -0.638870
O28   O     O_R   0.921600 0.365890 0.268200 -0.633203
O29   O     O_R   0.365890 0.921600 0.268200 -0.635932
O30   O     O_R   0.634110 0.078400 0.731800 -0.635867
O31   O     O_R   0.921600 0.634110 0.268200 -0.626528
O32   O     O_R   0.078400 0.365890 0.731800 -0.626031
O33   O     O_R   0.634110 0.078400 0.268200 -0.640184
O34   O     O_R   0.365890 0.921600 0.731800 -0.639429
O35   O     O_R   0.078400 0.365890 0.268200 -0.650432
O36   O     O_R   0.921600 0.634110 0.731800 -0.646803
O37   O     O_R   0.865890 0.578400 0.231800 -0.647665
O38   O     O_R   0.134110 0.421600 0.768200 -0.650670
O39   O     O_R   0.421600 0.865890 0.231800 -0.636957
O40   O     O_R   0.578400 0.134110 0.768200 -0.636752
O41   O     O_R   0.134110 0.421600 0.231800 -0.625992
O42   O     O_R   0.865890 0.578400 0.768200 -0.625316
O43   O     O_R   0.578400 0.134110 0.231800 -0.632671
O44   O     O_R   0.421600 0.865890 0.768200 -0.639264
O45   O     O_R   0.865890 0.421600 0.768200 -0.639025
O46   O     O_R   0.134110 0.578400 0.231800 -0.637231
O47   O     O_R   0.421600 0.134110 0.768200 -0.627132
O48   O     O_R   0.578400 0.865890 0.231800 -0.626586
O49   O     O_R   0.134110 0.578400 0.768200 -0.645428
O50   O     O_R   0.865890 0.421600 0.231800 -0.639334
O51   O     O_R   0.578400 0.865890 0.768200 -0.646954
O52   O     O_R   0.421600 0.134110 0.231800 -0.650712
Zn1   Zn    Zn3+2 0.500000 0.079610 0.775930 0.989664
Zn2   Zn    Zn3+2 0.500000 0.920390 0.224070 0.990096
Zn3   Zn    Zn3+2 0.920390 0.500000 0.775930 0.991155
Zn4   Zn    Zn3+2 0.079610 0.500000 0.224070 0.989137
Zn5   Zn    Zn3+2 0.500000 0.920390 0.775930 0.967426
Zn6   Zn    Zn3+2 0.500000 0.079610 0.224070 0.962712
Zn7   Zn    Zn3+2 0.079610 0.500000 0.775930 0.959094
Zn8   Zn    Zn3+2 0.920390 0.500000 0.224070 0.967092
Zn9   Zn    Zn3+2 0.000000 0.579610 0.275930 0.990511
Zn10  Zn    Zn3+2 0.000000 0.420390 0.724070 0.990064
Zn11  Zn    Zn3+2 0.420390 0.000000 0.275930 0.990923
Zn12  Zn    Zn3+2 0.579610 0.000000 0.724070 0.990774
Zn13  Zn    Zn3+2 0.000000 0.420390 0.275930 0.962372
Zn14  Zn    Zn3+2 0.000000 0.579610 0.724070 0.968268
Zn15  Zn    Zn3+2 0.579610 0.000000 0.275930 0.966892
Zn16  Zn    Zn3+2 0.420390 0.000000 0.724070 0.967292
O53   O     O_3   0.568056 0.105242 0.869730 -0.537567
C113  C     C_3   0.632181 0.083983 0.858250 0.123818
H1    H     H_    0.626333 0.046334 0.839233 0.114404
H2    H     H_    0.664237 0.060508 0.876764 0.094724
C114  C     C_3   0.669916 0.145518 0.845264 -0.788890
H3    H     H_    0.678550 0.183733 0.863819 0.244791
H4    H     H_    0.719995 0.129389 0.835847 0.190711
H5    H     H_    0.639607 0.169320 0.826328 0.276219
O54   O     O_3   0.433663 0.893023 0.130652 -0.535906
C115  C     C_3   0.368959 0.913446 0.141774 0.124202
H6    H     H_    0.336848 0.935880 0.123011 0.093457
H7    H     H_    0.373811 0.951675 0.160610 0.115194
C116  C     C_3   0.332044 0.851591 0.154934 -0.787476
H8    H     H_    0.362457 0.828702 0.174065 0.276827
H9    H     H_    0.281566 0.867104 0.164125 0.190412
H10   H     H_    0.324313 0.812828 0.136535 0.245133
O55   O     O_3   0.890894 0.435248 0.868734 -0.532631
C117  C     C_3   0.907461 0.369963 0.857021 0.121399
H11   H     H_    0.928318 0.335854 0.875440 0.090109
H12   H     H_    0.945681 0.373568 0.838114 0.115131
C118  C     C_3   0.843440 0.337081 0.843781 -0.778449
H13   H     H_    0.821681 0.369710 0.825145 0.278252
H14   H     H_    0.856043 0.286394 0.833927 0.189460
H15   H     H_    0.804800 0.330361 0.862311 0.244265
O56   O     O_3   0.106733 0.564234 0.129589 -0.537354
C119  C     C_3   0.087329 0.629341 0.140607 0.122919
H16   H     H_    0.049261 0.625278 0.159544 0.114460
H17   H     H_    0.065093 0.661507 0.121820 0.094660
C120  C     C_3   0.149838 0.665563 0.153526 -0.785441
H18   H     H_    0.188562 0.672316 0.135033 0.245605
H19   H     H_    0.135171 0.716463 0.162527 0.190412
H20   H     H_    0.172384 0.635187 0.172756 0.276307
O57   O     O_3   0.444068 0.890573 0.869300 -0.580871
C121  C     C_3   0.488440 0.833859 0.870150 0.163994
H21   H     H_    0.492749 0.812974 0.894092 0.174099
H22   H     H_    0.540296 0.847587 0.861601 0.126919
C122  C     C_3   0.459993 0.778191 0.849307 -0.778803
H23   H     H_    0.456230 0.797049 0.825051 0.280203
H24   H     H_    0.494194 0.733107 0.849913 0.199493
H25   H     H_    0.408548 0.762683 0.857408 0.250208
O58   O     O_3   0.550110 0.112640 0.129488 -0.590533
C123  C     C_3   0.498324 0.162137 0.133801 0.186850
H26   H     H_    0.507790 0.187219 0.156477 0.179415
H27   H     H_    0.445700 0.140464 0.134993 0.101415
C124  C     C_3   0.501396 0.216978 0.108712 -0.818100
H28   H     H_    0.481918 0.196669 0.086397 0.274853
H29   H     H_    0.468913 0.260812 0.115464 0.203664
H30   H     H_    0.554640 0.235100 0.105719 0.273474
O59   O     O_3   0.112853 0.546479 0.870793 -0.545379
C125  C     C_3   0.167183 0.499821 0.867146 0.160718
H31   H     H_    0.149302 0.449137 0.858677 0.110800
H32   H     H_    0.194953 0.492902 0.889348 0.155228
C126  C     C_3   0.217585 0.528264 0.843684 -0.757377
H33   H     H_    0.236999 0.578546 0.851569 0.251193
H34   H     H_    0.261254 0.492714 0.841187 0.190920
H35   H     H_    0.192484 0.534464 0.820770 0.287362
O60   O     O_3   0.888226 0.447164 0.131009 -0.579984
C127  C     C_3   0.833310 0.493734 0.130097 0.163232
H36   H     H_    0.812354 0.498372 0.106177 0.173100
H37   H     H_    0.849174 0.545182 0.138404 0.125332
C128  C     C_3   0.776813 0.467940 0.151178 -0.778873
H38   H     H_    0.795796 0.463929 0.175409 0.280637
H39   H     H_    0.733114 0.503889 0.150525 0.199366
H40   H     H_    0.759190 0.416983 0.143326 0.248502
O61   O     O_3   0.067313 0.606332 0.369329 -0.535879
C129  C     C_3   0.131759 0.585268 0.358146 0.123866
H41   H     H_    0.126440 0.547168 0.339284 0.115092
H42   H     H_    0.163696 0.562429 0.376871 0.093470
C130  C     C_3   0.169275 0.646778 0.345006 -0.787752
H43   H     H_    0.177444 0.685410 0.363424 0.245426
H44   H     H_    0.219570 0.630775 0.335783 0.190309
H45   H     H_    0.139053 0.670028 0.325902 0.276697
O62   O     O_3   0.931291 0.395225 0.630275 -0.536820
C131  C     C_3   0.867345 0.416952 0.641780 0.122155
H46   H     H_    0.835440 0.440688 0.623280 0.093957
H47   H     H_    0.873501 0.454528 0.660807 0.113871
C132  C     C_3   0.829169 0.355688 0.654762 -0.786753
H48   H     H_    0.859317 0.331653 0.673690 0.276133
H49   H     H_    0.779216 0.372178 0.664187 0.190181
H50   H     H_    0.820243 0.317550 0.636202 0.245571
O63   O     O_3   0.395128 0.931030 0.369535 -0.536771
C133  C     C_3   0.417170 0.867110 0.358123 0.122298
H51   H     H_    0.440873 0.835372 0.376692 0.094035
H52   H     H_    0.454865 0.873323 0.339152 0.113850
C134  C     C_3   0.356140 0.828656 0.345074 -0.787769
H53   H     H_    0.332125 0.858642 0.326088 0.276078
H54   H     H_    0.372883 0.778729 0.335711 0.190263
H55   H     H_    0.317901 0.819658 0.363580 0.245393
O64   O     O_3   0.604852 0.068958 0.630456 -0.536725
C135  C     C_3   0.582804 0.132880 0.641863 0.122073
H56   H     H_    0.545100 0.126673 0.660830 0.113846
H57   H     H_    0.559111 0.164613 0.623290 0.094071
C136  C     C_3   0.643828 0.171338 0.654916 -0.787308
H58   H     H_    0.627079 0.221267 0.664276 0.190231
H59   H     H_    0.667834 0.141356 0.673905 0.276071
H60   H     H_    0.682074 0.180334 0.636413 0.245564
O65   O     O_3   0.948339 0.388103 0.370468 -0.591193
C137  C     C_3   0.999373 0.337809 0.366209 0.186428
H61   H     H_    0.052404 0.358562 0.365345 0.101747
H62   H     H_    0.989991 0.313285 0.343399 0.179656
C138  C     C_3   0.994760 0.282602 0.391077 -0.815636
H63   H     H_    0.941131 0.265402 0.393766 0.272645
H64   H     H_    0.026588 0.238302 0.384309 0.204001
H65   H     H_    0.014117 0.302160 0.413551 0.275972
O66   O     O_3   0.056926 0.608916 0.630723 -0.581677
C139  C     C_3   0.013113 0.666059 0.629826 0.163403
H66   H     H_    0.961140 0.652868 0.638401 0.127039
H67   H     H_    0.008968 0.686882 0.605868 0.173577
C140  C     C_3   0.042132 0.721546 0.650607 -0.782471
H68   H     H_    0.093719 0.736503 0.642479 0.248044
H69   H     H_    0.008380 0.766965 0.649963 0.200062
H70   H     H_    0.045736 0.702771 0.674880 0.280600
O67   O     O_3   0.608555 0.057094 0.369477 -0.581651
C141  C     C_3   0.665670 0.013262 0.370499 0.162715
H71   H     H_    0.652537 0.961272 0.361922 0.127009
H72   H     H_    0.686273 0.009180 0.394502 0.173412
C142  C     C_3   0.721343 0.042204 0.349807 -0.781218
H73   H     H_    0.736287 0.093786 0.357952 0.248819
H74   H     H_    0.766723 0.008408 0.350532 0.199931
H75   H     H_    0.702754 0.045803 0.325502 0.280253
O68   O     O_3   0.391458 0.942833 0.630534 -0.581805
C143  C     C_3   0.334314 0.986626 0.629513 0.163292
H76   H     H_    0.313729 0.990732 0.605508 0.173350
H77   H     H_    0.347407 0.038610 0.638108 0.127115
C144  C     C_3   0.278638 0.957616 0.650186 -0.782566
H78   H     H_    0.297204 0.953993 0.674493 0.280329
H79   H     H_    0.233237 0.991384 0.649462 0.200104
H80   H     H_    0.263732 0.906038 0.642021 0.248092
O69   O     O_3   0.558513 0.108818 0.933966 -0.551988
C145  C     C_3   0.630281 0.107313 0.936665 -0.216704
H81   H     H_    0.653398 0.139579 0.918354 0.180662
H82   H     H_    0.652556 0.054976 0.936110 0.111412
H83   H     H_    0.644667 0.130088 0.959283 0.185424
O70   O     O_3   0.444772 0.887391 0.066537 -0.550910
C146  C     C_3   0.373048 0.887530 0.063512 -0.212485
H84   H     H_    0.349836 0.939476 0.063596 0.110030
H85   H     H_    0.350100 0.855498 0.081950 0.180610
H86   H     H_    0.359565 0.863736 0.040999 0.186910
O71   O     O_3   0.886134 0.442855 0.932831 -0.544641
C147  C     C_3   0.882457 0.371275 0.936093 -0.219999
H87   H     H_    0.933154 0.345478 0.936830 0.107375
H88   H     H_    0.850664 0.349571 0.917254 0.178668
H89   H     H_    0.856468 0.359444 0.958285 0.188234
O72   O     O_3   0.109757 0.552145 0.065433 -0.559071
C148  C     C_3   0.110402 0.623799 0.062111 -0.213926
H90   H     H_    0.143197 0.646732 0.080282 0.180759
H91   H     H_    0.058740 0.647625 0.062364 0.114679
H92   H     H_    0.133774 0.636530 0.039421 0.191159
O73   O     O_3   0.438152 0.893938 0.933847 -0.588919
C149  C     C_3   0.366768 0.901815 0.931438 -0.207595
H93   H     H_    0.348185 0.888161 0.907909 0.195357
H94   H     H_    0.350073 0.954411 0.937481 0.145325
H95   H     H_    0.342209 0.866407 0.948120 0.179139
O74   O     O_3   0.561762 0.103960 0.065645 -0.577867
C150  C     C_3   0.633073 0.097050 0.068898 -0.215539
H96   H     H_    0.650718 0.044727 0.062940 0.143857
H97   H     H_    0.650139 0.110654 0.092675 0.192882
H98   H     H_    0.658105 0.132959 0.052588 0.174978
O75   O     O_3   0.115100 0.536669 0.934450 -0.550855
C151  C     C_3   0.151506 0.482319 0.948419 -0.298043
H99   H     H_    0.205459 0.498209 0.951215 0.196399
H100  H     H_    0.151324 0.434721 0.934312 0.106581
H101  H     H_    0.131571 0.471230 0.971939 0.189130
O76   O     O_3   0.890976 0.439078 0.066557 -0.585792
C152  C     C_3   0.896119 0.367543 0.069570 -0.215617
H102  H     H_    0.881153 0.350429 0.093155 0.193937
H103  H     H_    0.948193 0.348611 0.063967 0.144643
H104  H     H_    0.860240 0.343670 0.052884 0.175961
O77   O     O_3   0.056463 0.611990 0.433456 -0.550597
C153  C     C_3   0.128190 0.611057 0.436437 -0.214680
H105  H     H_    0.151435 0.642839 0.417987 0.180757
H106  H     H_    0.150824 0.558856 0.436334 0.110098
H107  H     H_    0.142004 0.634692 0.458943 0.185633
O78   O     O_3   0.940764 0.391603 0.566034 -0.550802
C154  C     C_3   0.869006 0.393654 0.563353 -0.215421
H108  H     H_    0.847132 0.446159 0.563915 0.109697
H109  H     H_    0.845668 0.361563 0.581669 0.180965
H110  H     H_    0.854421 0.370991 0.540739 0.185676
O79   O     O_3   0.390664 0.940913 0.433735 -0.550768
C155  C     C_3   0.392903 0.869176 0.436504 -0.215835
H111  H     H_    0.445486 0.847467 0.436128 0.109819
H112  H     H_    0.361157 0.845626 0.418117 0.180925
H113  H     H_    0.369959 0.854649 0.459064 0.185499
O80   O     O_3   0.609312 0.059039 0.566256 -0.550773
C156  C     C_3   0.607085 0.130776 0.563487 -0.215404
H114  H     H_    0.638841 0.154322 0.581871 0.181031
H115  H     H_    0.554507 0.152494 0.563865 0.109719
H116  H     H_    0.630025 0.145297 0.540925 0.185559
O81   O     O_3   0.936967 0.396787 0.434337 -0.577563
C157  C     C_3   0.865743 0.404595 0.431112 -0.215862
H117  H     H_    0.848463 0.391220 0.407340 0.192867
H118  H     H_    0.848766 0.457132 0.437083 0.143225
H119  H     H_    0.840294 0.368993 0.447427 0.175269
O82   O     O_3   0.062849 0.605506 0.566163 -0.587839
C158  C     C_3   0.134162 0.597032 0.568581 -0.217788
H120  H     H_    0.150417 0.544307 0.562522 0.147017
H121  H     H_    0.152843 0.610491 0.592118 0.193619
H122  H     H_    0.159028 0.632261 0.551915 0.175706
O83   O     O_3   0.604298 0.063466 0.434037 -0.587590
C159  C     C_3   0.595760 0.134751 0.431501 -0.217335
H123  H     H_    0.542940 0.150978 0.437400 0.146927
H124  H     H_    0.609483 0.153289 0.407975 0.193687
H125  H     H_    0.630750 0.159777 0.448225 0.175733
O84   O     O_3   0.395684 0.936476 0.565971 -0.587594
C160  C     C_3   0.404226 0.865192 0.568508 -0.217580
H126  H     H_    0.390502 0.846653 0.592033 0.193570
H127  H     H_    0.457047 0.848967 0.562608 0.146963
H128  H     H_    0.369237 0.840164 0.551783 0.175706

loop_
_geom_bond_atom_site_label_1
_geom_bond_atom_site_label_2
_ccdc_geom_bond_type
C158  H122  S    
C12   C69   S    
C50   C63   S    
C23   O27   A    
C97   O77   S    
O26   Zn11  S    
O4    Zn8   S    
O10   Zn15  S    
C3    N12   A    
C134  H55   S    
O48   Zn2   S    
C46   C62   T    
C16   O16   A    
C159  H124  S    
O1    Zn5   S    
C52   C61   S    
O21   Zn16  S    
O1    Zn12  S    
C120  H20   S    
C56   C57   S    
C138  H64   S    
C1    N10   A    
C127  H37   S    
C72   C88   A    
C141  H71   S    
C122  H24   S    
C145  H81   S    
C146  H86   S    
C143  C144  S    
C155  H113  S    
C28   O38   A    
C25   C34   S    
C54   C59   S    
O50   Zn8   S    
C10   C71   S    
C96   C108  A    
C24   O50   A    
O59   C125  S    
C114  H5    S    
C82   C98   A    
C42   C58   T    
C125  H32   S    
C152  H104  S    
C123  H27   S    
C65   C77   A    
O70   C146  S    
O17   Zn8   S    
C84   C100  A    
C91   C107  A    
O18   Zn7   S    
C67   C79   A    
O72   C148  S    
O2    Zn15  S    
O46   Zn4   S    
C115  H6    S    
O66   C139  S    
C15   C66   S    
C151  H101  S    
C157  H118  S    
O29   Zn11  S    
O57   C121  S    
O30   Zn12  S    
C1    C110  S    
O75   C151  S    
C3    C112  S    
C145  H83   S    
C121  H22   S    
C72   C84   A    
C27   O37   A    
N12   N15   A    
C87   C103  A    
C126  H34   S    
C35   C51   T    
C156  H114  S    
C131  H47   S    
C157  H119  S    
C30   O34   A    
C2    N9    A    
C135  C136  S    
C19   C48   S    
C147  H87   S    
C83   O63   S    
O79   C155  S    
C77   O57   S    
C127  C128  S    
C74   C90   A    
O77   C153  S    
C135  H57   S    
C78   C94   A    
C26   O30   A    
O74   C150  S    
C70   C82   A    
C23   O49   A    
C20   C47   S    
C73   C89   A    
O71   C147  S    
C21   O51   A    
C22   C45   S    
C144  H78   S    
C24   C43   S    
C21   O25   A    
C31   C36   S    
C113  H2    S    
C16   C65   S    
C10   O10   A    
C124  H29   S    
C18   O22   A    
C33   C49   T    
C116  H10   S    
C24   O28   A    
O80   C156  S    
C9    O5    A    
C87   O67   S    
C102  O82   S    
C2    C109  S    
C81   O61   S    
C103  O83   S    
C89   O69   S    
C150  H96   S    
C9    C72   S    
C13   O17   A    
O11   Zn10  S    
C132  H50   S    
O78   C154  S    
C150  H98   S    
C126  H33   S    
O56   C119  S    
O61   C129  S    
O36   Zn14  S    
C142  H74   S    
C27   O31   A    
C66   C74   A    
C28   O32   A    
C128  H38   S    
C77   C93   A    
C143  H77   S    
C153  H105  S    
C92   C108  A    
C20   O46   A    
O20   Zn1   S    
C140  H69   S    
C29   C38   S    
C156  H116  S    
C19   O23   A    
C14   C67   S    
C122  H23   S    
C27   C40   S    
C36   C52   T    
C75   C91   A    
O47   Zn1   S    
C37   C53   T    
C144  H80   S    
C85   O65   S    
C49   C64   S    
O63   C133  S    
O12   Zn9   S    
C114  H4    S    
O69   C145  S    
C51   C62   S    
O3    Zn3   S    
C147  H89   S    
O76   C152  S    
C88   C104  A    
C53   C60   S    
C155  H112  S    
C116  H8    S    
C71   C83   A    
O16   Zn5   S    
C148  H91   S    
C139  H67   S    
C1    N14   A    
C104  C112  A    
C3    N16   A    
C119  C120  S    
C118  H13   S    
C75   O55   S    
C7    N4    A    
O41   Zn4   S    
O65   C137  S    
C97   C109  A    
C26   C33   S    
C149  H94   S    
O44   Zn5   S    
C154  H110  S    
C99   C111  A    
C151  H100  S    
C136  H58   S    
C29   O43   A    
C119  H17   S    
C130  H44   S    
C153  H107  S    
C30   O44   A    
O52   Zn6   S    
C15   O15   A    
C4    C111  S    
O40   Zn1   S    
O4    Zn13  S    
C140  H70   S    
C95   O75   S    
C67   C75   A    
C86   C102  A    
C8    C107  S    
C160  H128  S    
C69   C85   A    
C149  H95   S    
C158  H121  S    
C125  H31   S    
C116  H9    S    
C126  H35   S    
O84   C160  S    
C104  O84   S    
C129  H41   S    
C76   O56   S    
C68   C76   A    
C5    N6    A    
C124  H30   S    
N10   N13   A    
O32   Zn10  S    
O27   Zn14  S    
O7    Zn14  S    
C32   O36   A    
C132  H49   S    
O53   C113  S    
C122  H25   S    
O22   Zn15  S    
N2    N5    A    
C2    N13   A    
C17   O47   A    
O6    Zn11  S    
C12   O8    A    
C89   C105  A    
C133  H51   S    
C145  H82   S    
C8    N7    A    
C18   O48   A    
C100  O80   S    
C125  C126  S    
C84   O64   S    
C98   C110  A    
C129  C130  S    
C14   O14   A    
O55   C117  S    
C118  H15   S    
C152  H103  S    
C123  C124  S    
C82   O62   S    
O3    Zn7   S    
C79   O59   S    
C47   C63   T    
C137  H61   S    
O42   Zn3   S    
C13   C68   S    
C115  H7    S    
C48   C64   T    
O39   Zn2   S    
C101  C109  A    
C154  H108  S    
C136  H60   S    
O33   Zn15  S    
O64   C135  S    
C103  C111  A    
C114  H3    S    
C11   O11   A    
C17   C42   S    
O1    Zn1   S    
C9    O9    A    
O23   Zn10  S    
C39   C55   T    
C40   C56   T    
C133  C134  S    
C12   O12   A    
C13   O13   A    
C6    N5    A    
O14   Zn3   S    
O9    Zn16  S    
C83   C99   A    
O62   C131  S    
C131  C132  S    
C160  H126  S    
C141  H72   S    
C5    C106  S    
C66   C78   A    
C11   C70   S    
O37   Zn8   S    
C80   O60   S    
O38   Zn7   S    
C159  H123  S    
C90   C106  A    
C137  C138  S    
C22   O52   A    
C31   O41   A    
C28   C39   S    
O67   C141  S    
C23   C44   S    
C20   O24   A    
C30   C37   S    
C146  H84   S    
C19   O45   A    
C79   C95   A    
O24   Zn9   S    
C11   O7    A    
C38   C54   T    
C95   C107  A    
C71   C87   A    
O19   Zn2   S    
C147  H88   S    
C100  C112  A    
C78   O58   S    
O15   Zn6   S    
C98   O78   S    
C134  H54   S    
O1    Zn16  S    
O2    Zn11  S    
O81   C157  S    
O3    Zn10  S    
C94   O74   S    
C123  H26   S    
O43   Zn6   S    
C7    N8    A    
C90   O70   S    
O83   C159  S    
C150  H97   S    
O82   C158  S    
O51   Zn5   S    
O49   Zn7   S    
C128  H40   S    
C157  H117  S    
C41   C57   T    
O4    Zn4   S    
C15   O19   A    
C142  H73   S    
O60   C127  S    
C44   C60   T    
C45   C61   T    
C6    C105  S    
C117  H12   S    
C121  H21   S    
C69   C81   A    
O8    Zn13  S    
O45   Zn3   S    
C140  H68   S    
C55   C58   S    
O34   Zn16  S    
C156  H115  S    
C131  H46   S    
O4    Zn9   S    
C4    N15   A    
O5    Zn12  S    
C141  C142  S    
C68   C80   A    
C5    N2    A    
C138  H63   S    
O31   Zn9   S    
C159  H125  S    
C149  H93   S    
C158  H120  S    
O54   C115  S    
C25   O39   A    
C139  C140  S    
C26   O40   A    
C127  H36   S    
C124  H28   S    
C96   O76   S    
C135  H56   S    
O35   Zn13  S    
C65   C73   A    
C121  C122  S    
C8    N3    A    
C120  H19   S    
C154  H109  S    
C73   O53   S    
C113  H1    S    
C80   C96   A    
C130  H43   S    
C93   C105  A    
O68   C143  S    
C160  H127  S    
C31   O35   A    
C34   C50   T    
C99   O79   S    
C32   C35   S    
C29   O33   A    
C93   O73   S    
O2    Zn2   S    
C18   C41   S    
C117  H11   S    
C142  H75   S    
C129  H42   S    
C144  H79   S    
C134  H53   S    
C4    N11   A    
C128  H39   S    
C101  O81   S    
C91   O71   S    
C6    N1    A    
C143  H76   S    
C86   O66   S    
C113  C114  S    
C120  H18   S    
C146  H85   S    
C76   C92   A    
C25   O29   A    
C88   O68   S    
C138  H65   S    
C133  H52   S    
O3    Zn14  S    
C70   C86   A    
C85   C101  A    
C155  H111  S    
C21   C46   S    
C22   O26   A    
C148  H92   S    
C32   O42   A    
C139  H66   S    
C94   C106  A    
C17   O21   A    
C10   O6    A    
C117  C118  S    
O2    Zn6   S    
C43   C59   T    
C118  H14   S    
C152  H102  S    
C14   O18   A    
N4    N7    A    
C16   O20   A    
O13   Zn4   S    
O28   Zn13  S    
N9    N14   A    
C137  H62   S    
C115  C116  S    
N11   N16   A    
C81   C97   A    
C151  H99   S    
C136  H59   S    
C119  H16   S    
C130  H45   S    
C153  H106  S    
C92   O72   S    
C102  C110  A    
N1    N6    A    
N3    N8    A    
C148  H90   S    
C7    C108  S    
O73   C149  S    
O58   C123  S    
C74   O54   S    
O25   Zn12  S    
C132  H48   S    
