data_mof_unit_5330.cif
_audit_creation_date              2012-12-10T17:57:48-0500
_audit_creation_method            fapswitch 2.2
_symmetry_space_group_name_H-M    P1
_symmetry_Int_Tables_number       1
_space_group_crystal_system       triclinic
_cell_length_a                    11.063403
_cell_length_b                    9.498836
_cell_length_c                    15.076593
_cell_angle_alpha                 90.080863
_cell_angle_beta                  90.392403
_cell_angle_gamma                 90.106356
_cell_volume                      1584.34938285

loop_
_atom_site_label
_atom_site_type_symbol
_atom_type_description
_atom_site_fract_x
_atom_site_fract_y
_atom_site_fract_z
_atom_type_partial_charge
C1    C     C_R   0.261903 0.499762 0.501183 0.866796
C2    C     C_R   0.737846 0.500129 0.498700 0.867554
C3    C     C_R   0.279737 0.551079 0.045507 -0.045614
C4    C     C_R   0.719269 0.547461 0.954013 -0.046980
C5    C     C_R   0.062380 0.371608 0.489619 -0.190538
C6    C     C_R   0.936634 0.626627 0.514803 -0.092524
C7    C     C_R   0.935849 0.373168 0.483619 -0.093706
C8    C     C_R   0.063067 0.626773 0.514022 -0.053613
C9    C     C_R   0.871671 0.500303 0.498065 -0.199931
C10   C     C_R   0.127649 0.499128 0.502580 -0.170880
C11   C     C_R   0.442110 0.074196 0.434409 0.026895
C12   C     C_R   0.558047 0.925805 0.565504 0.046248
C13   C     C_R   0.558696 0.074716 0.565235 0.038132
C14   C     C_R   0.442886 0.925307 0.434077 0.011539
C15   C     C_R   0.500968 0.500286 0.328955 0.862188
C16   C     C_R   0.500166 0.500165 0.671017 0.869883
C17   C     C_R   0.607360 0.488026 0.815153 -0.062768
C18   C     C_R   0.391607 0.494433 0.185381 -0.054792
C19   C     C_R   0.498568 0.502881 0.767794 -0.200858
C20   C     C_R   0.501541 0.504142 0.232072 -0.195874
C21   C     C_R   0.388957 0.526919 0.811898 -0.051670
C22   C     C_R   0.610674 0.529112 0.187614 -0.052016
C23   C     C_R   0.388831 0.540881 0.905538 0.019488
C24   C     C_R   0.610267 0.542389 0.093983 0.012082
C25   C     C_R   0.499365 0.529955 0.952987 0.050830
C26   C     C_R   0.499453 0.531027 0.046817 0.051397
C27   C     C_R   0.610244 0.518124 0.907133 -0.013936
C28   C     C_R   0.388511 0.522054 0.092933 -0.014854
C29   C     C_R   0.283238 0.573905 0.953522 -0.093922
C30   C     C_R   0.715928 0.573863 0.045559 -0.094250
Cu1   Cu    Cu3+1 0.500000 0.640660 0.500000 1.070658
Cu2   Cu    Cu3+1 0.500000 0.359340 0.500000 1.033976
H1    H     H_    0.395105 0.130038 0.382139 0.171784
H2    H     H_    0.604119 0.869843 0.618100 0.143500
H3    H     H_    0.606167 0.130991 0.617297 0.149880
H4    H     H_    0.396819 0.869028 0.381368 0.172961
N1    N     N_R   0.500000 0.852070 0.500000 -0.176005
N2    N     N_R   0.500000 0.147930 0.500000 -0.182525
O1    O     O_R   0.319640 0.618740 0.499990 -0.554999
O2    O     O_R   0.680360 0.381260 0.500010 -0.579850
O3    O     O_R   0.680360 0.618740 0.500010 -0.555153
O4    O     O_R   0.319640 0.381260 0.499990 -0.576027
O5    O     O_R   0.499970 0.618800 0.370260 -0.549419
O6    O     O_R   0.500030 0.381200 0.629740 -0.591191
O7    O     O_R   0.500030 0.618800 0.629740 -0.554999
O8    O     O_R   0.499970 0.381200 0.370260 -0.592251
C31   C     C_2   0.712846 0.425165 0.769678 0.842071
O9    O     O_2   0.752842 0.312155 0.795090 -0.536820
O10   O     O_R   0.767746 0.496172 0.699690 -0.739112
H5    H     H_    0.842408 0.445411 0.677931 0.336176
C32   C     C_2   0.283508 0.444067 0.233328 0.827972
O11   O     O_2   0.239966 0.329247 0.214872 -0.538991
O12   O     O_R   0.230075 0.529503 0.297405 -0.736366
H6    H     H_    0.151222 0.488729 0.319536 0.323982
C33   C     C_2   0.274449 0.515573 0.760314 0.823090
O13   O     O_2   0.252129 0.600282 0.701614 -0.559454
O14   O     O_R   0.192562 0.407761 0.779341 -0.719699
H7    H     H_    0.118574 0.410191 0.739287 0.348930
C34   C     C_2   0.725376 0.524506 0.239167 0.823515
O15   O     O_2   0.797257 0.429041 0.226622 -0.542421
O16   O     O_R   0.752092 0.631476 0.299899 -0.723508
H8    H     H_    0.835746 0.621120 0.326847 0.347071
C35   C     C_1   0.187669 0.656732 0.912856 0.289396
N3    N     N_1   0.112754 0.724992 0.880740 -0.137270
C36   C     C_1   0.811241 0.659459 0.084645 0.289459
N4    N     N_1   0.885903 0.730042 0.115424 -0.155673
C37   C     C_2   0.163214 0.571523 0.091044 0.866223
O17   O     O_2   0.146912 0.676434 0.136436 -0.524074
O18   O     O_R   0.074130 0.467772 0.083528 -0.668485
H9    H     H_    0.003748 0.484506 0.124689 0.365975
C38   C     C_2   0.836068 0.564075 0.908122 0.866259
O19   O     O_2   0.851382 0.661829 0.856716 -0.519183
O20   O     O_R   0.926643 0.464363 0.922423 -0.673334
H10   H     H_    0.997406 0.476717 0.881056 0.359480
C39   C     C_2   0.124083 0.233986 0.477539 0.918398
O21   O     O_2   0.163163 0.171189 0.542238 -0.494429
O22   O     O_R   0.134662 0.173648 0.393405 -0.725498
H11   H     H_    0.095646 0.232890 0.345350 0.337654
C40   C     C_2   0.875349 0.761974 0.534463 0.925776
O23   O     O_2   0.840792 0.837140 0.473626 -0.536060
O24   O     O_R   0.862142 0.804811 0.622544 -0.674557
H12   H     H_    0.824148 0.901429 0.627765 0.350630
C41   C     C_2   0.872776 0.239140 0.461167 0.908871
O25   O     O_2   0.873155 0.141933 0.514232 -0.558444
O26   O     O_R   0.813387 0.225076 0.379512 -0.699090
H13   H     H_    0.773067 0.129770 0.372274 0.362358
C42   C     C_2   0.124744 0.765080 0.520409 0.939340
O27   O     O_2   0.147473 0.816805 0.592926 -0.479604
O28   O     O_R   0.153217 0.836842 0.442597 -0.702055
H14   H     H_    0.194392 0.929923 0.455035 0.366860

loop_
_geom_bond_atom_site_label_1
_geom_bond_atom_site_label_2
_ccdc_geom_bond_type
C7    C41   S    
C33   O13   D    
C29   C35   S    
O20   H10   S    
C42   O27   D    
C6    C9    A    
O24   H12   S    
O14   H7    S    
C21   C33   S    
C31   O10   S    
O12   H6    S    
Cu1   O5    S    
C23   C29   A    
C3    C28   A    
C19   C21   A    
C24   C26   A    
C13   H3    S    
C14   H4    S    
C11   C14   A    
C2    O3    A    
C12   N1    A    
C3    C29   A    
C41   O25   D    
Cu2   N2    S    
C16   O6    A    
Cu2   O2    S    
C34   O15   D    
O18   H9    S    
C18   C32   S    
C15   C20   S    
C34   O16   S    
C32   O11   D    
C17   C27   A    
C31   O9    D    
C11   H1    S    
C18   C28   A    
C22   C34   S    
C40   O24   S    
C6    C8    A    
C25   C26   A    
O22   H11   S    
C37   O17   D    
C32   O12   S    
C5    C39   S    
C11   N2    A    
C39   O21   D    
C2    O2    A    
Cu1   Cu2   S    
Cu2   O6    S    
C39   O22   S    
C13   N2    A    
C41   O26   S    
C20   C22   A    
O10   H5    S    
C33   O14   S    
C22   C24   A    
C12   H2    S    
C4    C27   A    
C5    C7    A    
C7    C9    A    
Cu1   O3    S    
Cu2   O8    S    
C3    C37   S    
C1    C10   S    
C17   C31   S    
C35   N3    T    
O26   H13   S    
C16   O7    A    
C25   C27   A    
C26   C28   A    
C8    C42   S    
C21   C23   A    
C15   O5    A    
C5    C10   A    
C14   N1    A    
C6    C40   S    
C16   C19   S    
C17   C19   A    
Cu1   O1    S    
C18   C20   A    
C23   C25   A    
O16   H8    S    
C24   C30   A    
C30   C36   S    
C1    O1    A    
C40   O23   D    
Cu1   N1    S    
C1    O4    A    
C38   O19   D    
C12   C13   A    
C8    C10   A    
C36   N4    T    
Cu1   O7    S    
C38   O20   S    
C42   O28   S    
Cu2   O4    S    
C15   O8    A    
C37   O18   S    
O28   H14   S    
C2    C9    S    
C4    C38   S    
C4    C30   A    
