data_mof_unit_30681.cif
_audit_creation_date              2012-12-10T19:03:36-0500
_audit_creation_method            fapswitch 2.2
_symmetry_space_group_name_H-M    P1
_symmetry_Int_Tables_number       1
_space_group_crystal_system       triclinic
_cell_length_a                    15.896733
_cell_length_b                    10.897275
_cell_length_c                    9.578737
_cell_angle_alpha                 90.42527
_cell_angle_beta                  89.977847
_cell_angle_gamma                 91.103263
_cell_volume                      1658.98150998

loop_
_atom_site_label
_atom_site_type_symbol
_atom_type_description
_atom_site_fract_x
_atom_site_fract_y
_atom_site_fract_z
_atom_type_partial_charge
C1    C     C_R   0.502393 0.262665 0.498888 0.810840
C2    C     C_3   0.950686 0.408704 0.609983 0.341757
C3    C     C_3   0.916997 0.506762 0.502631 -0.002172
C4    C     C_3   0.952261 0.640943 0.542260 0.228810
C5    C     C_3   0.052164 0.645446 0.520034 0.242370
C6    C     C_1   0.824318 0.503488 0.500966 -0.046951
C7    C     C_1   0.175586 0.504357 0.500766 -0.016725
C8    C     C_1   0.250945 0.501731 0.500260 -0.125332
C9    C     C_R   0.505057 0.062692 0.617789 0.071829
C10   C     C_R   0.505278 0.129403 0.494564 -0.149810
C11   C     C_R   0.508146 0.060453 0.367202 -0.028413
C12   C     C_R   0.340383 0.499893 0.500079 0.843742
C13   C     C_R   0.505291 0.931793 0.370596 -0.241602
C14   C     C_R   0.502783 0.869019 0.498455 -0.093985
C15   C     C_R   0.503984 0.938882 0.619588 0.108227
C16   C     C_3   0.511385 0.931664 0.774302 -0.488467
C17   C     C_3   0.512597 0.073306 0.772698 -0.214598
C18   C     C_R   0.549945 0.581099 0.074062 0.219131
C19   C     C_R   0.444282 0.428547 0.073986 0.009819
C20   C     C_R   0.444400 0.428338 0.924876 0.001388
C21   C     C_R   0.549927 0.581105 0.927108 0.213008
C22   C     C_3   0.643533 0.591995 0.921388 -0.440259
C23   C     C_R   0.501073 0.736931 0.500259 0.813263
C24   C     C_3   0.643554 0.592012 0.079785 -0.450028
C25   C     C_R   0.659567 0.500152 0.499950 0.821139
C26   C     C_3   0.048155 0.426043 0.621640 -0.382135
C27   C     C_3   0.048743 0.454418 0.361621 -0.431609
C28   C     C_3   0.951458 0.466062 0.355317 -0.231602
C29   C     C_1   0.748945 0.501554 0.500139 -0.145556
C30   C     C_3   0.083362 0.508781 0.501730 0.032928
Cu1   Cu    Cu3+1 0.500000 0.499980 0.640670 0.970331
Cu2   Cu    Cu3+1 0.500000 0.500020 0.359330 0.972267
H1    H     H_    0.066662 0.464493 0.725121 0.117973
H2    H     H_    0.506969 0.881121 0.272733 0.169121
H3    H     H_    0.453818 0.891178 0.822837 0.204435
H4    H     H_    0.571428 0.889687 0.807133 0.197324
H5    H     H_    0.457318 0.114950 0.823720 0.178243
H6    H     H_    0.078311 0.334647 0.616424 0.231282
H7    H     H_    0.673345 0.509378 0.875821 0.238417
H8    H     H_    0.665205 0.680852 0.876353 0.201390
H9    H     H_    0.673392 0.509428 0.123929 0.231481
H10   H     H_    0.665236 0.680887 0.126244 0.203498
H11   H     H_    0.079959 0.498878 0.270436 0.182487
H12   H     H_    0.065001 0.355617 0.354138 0.225053
H13   H     H_    0.924354 0.374202 0.327647 0.207803
N1    N     N_R   0.500530 0.500930 0.147930 -0.208043
N2    N     N_R   0.500530 0.500890 0.852020 -0.208024
O1    O     O_R   0.500000 0.319640 0.618810 -0.579667
O2    O     O_R   0.500010 0.319680 0.381230 -0.574967
O3    O     O_R   0.379430 0.499990 0.618840 -0.574047
O4    O     O_R   0.379440 0.500030 0.381260 -0.577596
O5    O     O_R   0.499990 0.680320 0.618770 -0.581176
O6    O     O_R   0.500000 0.680360 0.381190 -0.590036
O7    O     O_R   0.620560 0.499970 0.618740 -0.577962
O8    O     O_R   0.620570 0.500010 0.381160 -0.582717
O9    O     O_3   0.934093 0.288072 0.560930 -0.714180
H14   H     H_    0.872173 0.275529 0.553567 0.330180
C31   C     C_1   0.911756 0.418635 0.750545 0.269576
N3    N     N_1   0.881225 0.425951 0.859942 -0.247927
C32   C     C_1   0.909745 0.735970 0.458625 0.362112
N4    N     N_1   0.876436 0.810264 0.394250 -0.254617
C33   C     C_1   0.519254 0.115521 0.231723 0.304986
N5    N     N_1   0.528866 0.158711 0.122826 -0.303736
C34   C     C_1   0.593990 0.128748 0.814375 0.341528
N6    N     N_1   0.657949 0.172657 0.846954 -0.259431
C35   C     C_1   0.385374 0.349507 0.147118 0.332592
N7    N     N_1   0.337878 0.285664 0.204421 -0.282687
C36   C     C_1   0.385213 0.349775 0.850575 0.298960
N8    N     N_1   0.337215 0.286735 0.792259 -0.291528
C37   C     C_1   0.926027 0.545802 0.239267 0.231798
N9    N     N_1   0.906093 0.607669 0.147801 -0.216590
O10   O     O_3   0.091789 0.709128 0.632123 -0.696514
H15   H     H_    0.116064 0.650939 0.699110 0.327215
C38   C     C_1   0.077307 0.716311 0.393968 0.311571
N10   N     N_1   0.097025 0.771456 0.296052 -0.254777
O11   O     O_3   0.930077 0.670275 0.681286 -0.685084
H16   H     H_    0.970789 0.635179 0.747247 0.350678

loop_
_geom_bond_atom_site_label_1
_geom_bond_atom_site_label_2
_ccdc_geom_bond_type
C18   C21   A    
C24   H10   S    
C19   C20   A    
Cu1   O5    S    
C3    C6    S    
C19   N1    A    
C7    C8    T    
C18   C24   S    
C3    C28   S    
C5    O10   S    
C16   H3    S    
C15   C16   S    
O9    H14   S    
C19   C35   S    
C5    C38   S    
C36   N8    T    
C27   H12   S    
C16   C17   S    
C37   N9    T    
C9    C10   A    
Cu2   O8    S    
C11   C33   S    
C35   N7    T    
C7    C30   S    
Cu1   N2    S    
C21   C22   S    
C27   C30   S    
C24   H9    S    
C18   N1    A    
C23   O6    A    
C25   C29   S    
C28   H13   S    
C38   N10   T    
C25   O7    A    
C4    C5    S    
C31   N3    T    
C32   N4    T    
C14   C23   S    
Cu2   O4    S    
C33   N5    T    
C26   H1    S    
Cu1   Cu2   S    
C8    C12   S    
C22   H8    S    
C4    C32   S    
C2    C26   S    
C17   H5    S    
O11   H16   S    
C9    C17   S    
C26   C30   S    
Cu1   O1    S    
C22   C24   S    
Cu1   O3    S    
C3    C4    S    
Cu2   O6    S    
C12   O4    A    
C5    C30   S    
Cu2   N1    S    
C20   C36   S    
C28   C37   S    
C1    C10   S    
C25   O8    A    
O10   H15   S    
C12   O3    A    
C2    C31   S    
C1    O1    A    
C26   H6    S    
C34   N6    T    
C2    C3    S    
C9    C15   A    
C13   H2    S    
C17   C34   S    
C2    O9    S    
C16   H4    S    
C11   C13   A    
C23   O5    A    
C22   H7    S    
Cu1   O7    S    
Cu2   O2    S    
C4    O11   S    
C20   N2    A    
C10   C11   A    
C27   H11   S    
C6    C29   T    
C27   C28   S    
C14   C15   A    
C13   C14   A    
C1    O2    A    
C21   N2    A    
