data_mof_unit_25307.cif
_audit_creation_date              2013-03-05T15:53:41-0500
_audit_creation_method            fapswitch 2.2
_symmetry_space_group_name_H-M    P1
_symmetry_Int_Tables_number       1
_space_group_crystal_system       triclinic
_cell_length_a                    12.93555
_cell_length_b                    13.301479
_cell_length_c                    27.752619
_cell_angle_alpha                 94.705681
_cell_angle_beta                  89.869112
_cell_angle_gamma                 118.974835
_cell_volume                      4159.54892813

loop_
_atom_site_label
_atom_site_type_symbol
_atom_site_description
_atom_site_fract_x
_atom_site_fract_y
_atom_site_fract_z
_atom_type_partial_charge
O1    O     O_R   0.296680 0.802170 0.437540 -0.535675
O2    O     O_R   0.525380 0.838530 0.443500 -0.503523
C1    C     C_R   0.625944 0.898929 0.426284 0.540522
O3    O     O_R   0.702130 0.995190 0.446810 -0.505184
O4    O     O_R   0.661770 0.181390 0.458760 -0.507760
C2    C     C_R   0.601371 0.222349 0.440603 0.535306
O5    O     O_R   0.499820 0.198480 0.455280 -0.465492
O6    O     O_R   0.311660 0.976250 0.449080 -0.423629
C3    C     C_R   0.271358 0.877554 0.424952 0.568197
O7    O     O_R   0.297580 0.804960 0.544440 -0.506276
O8    O     O_R   0.526220 0.841130 0.542590 -0.493024
C4    C     C_R   0.626855 0.898960 0.565078 0.547601
O9    O     O_R   0.703030 0.997990 0.553710 -0.501719
O10   O     O_R   0.662610 0.183990 0.557860 -0.503169
C5    C     C_R   0.602198 0.226112 0.578229 0.531686
O11   O     O_R   0.500730 0.201280 0.562180 -0.521348
O12   O     O_R   0.312500 0.978850 0.548170 -0.496655
C6    C     C_R   0.270923 0.878989 0.563185 0.536278
Cr1   Cr    Cr6+3 0.416430 0.829200 0.492370 1.031845
Cr2   Cr    Cr6+3 0.674630 0.087020 0.504170 1.037717
Cr3   Cr    Cr6+3 0.408920 0.083740 0.503490 1.093009
O13   O     O_3   0.499990 0.999990 0.500010 -0.265227
C7    C     C_1   0.634193 0.270239 0.394965 0.036750
C8    C     C_R   0.779620 0.372345 0.284612 0.343672
C9    C     C_R   0.791843 0.383996 0.234616 0.130601
C10   C     C_R   0.577103 0.286810 0.223458 0.417594
C11   C     C_R   0.566248 0.274611 0.272970 0.349511
C12   C     C_R   0.667102 0.318282 0.303753 -0.054415
C13   C     C_R   0.689216 0.342918 0.203990 -0.026751
C14   C     C_1   0.696847 0.365506 0.153654 0.011462
C15   C     C_1   0.653214 0.297605 0.354168 0.070621
C16   C     C_1   0.703875 0.393375 0.112953 -0.007010
C17   C     C_R   0.206119 0.762231 0.346322 -0.161464
C18   C     C_R   0.198203 0.758500 0.296350 0.023923
C19   C     C_R   0.184442 0.751510 0.195861 0.016327
C20   C     C_R   0.195383 0.665730 0.217611 -0.098822
C21   C     C_R   0.199757 0.667790 0.267633 -0.069711
C22   C     C_R   0.162898 0.739582 0.146423 -0.153926
H1    H     H_    0.153364 0.662460 0.125790 0.136741
H2    H     H_    0.210737 0.692467 0.362088 0.154147
H3    H     H_    0.198009 0.595802 0.195798 0.092430
H4    H     H_    0.205520 0.599124 0.283826 0.115068
C23   C     C_R   0.138241 0.817227 0.124582 -0.020809
C24   C     C_R   0.214508 0.949533 0.354417 0.376080
C25   C     C_R   0.202413 0.944845 0.303928 -0.027466
C26   C     C_R   0.195684 0.849759 0.274827 -0.017087
C27   C     C_R   0.204528 0.036699 0.281866 -0.000800
C28   C     C_R   0.198287 0.034306 0.231558 0.427281
C29   C     C_R   0.183234 0.936043 0.201820 0.053776
C30   C     C_R   0.187325 0.845816 0.224142 -0.019803
C31   C     C_R   0.161282 0.922688 0.150923 0.152652
C32   C     C_R   0.221151 0.860016 0.375585 0.012141
H5    H     H_    0.213755 0.112404 0.303523 0.220783
C33   C     C_R   0.667457 0.969057 0.346483 -0.110270
C34   C     C_R   0.659104 0.949855 0.296430 -0.041037
C35   C     C_R   0.662926 0.916872 0.195362 0.039616
C36   C     C_R   0.682806 0.023981 0.218141 0.369603
C37   C     C_R   0.684255 0.040579 0.268256 -0.081097
C38   C     C_R   0.683131 0.902212 0.145713 0.129840
H6    H     H_    0.693252 0.054913 0.363353 0.138231
H7    H     H_    0.706380 0.125217 0.285155 0.136346
C39   C     C_R   0.673135 0.796498 0.127101 0.008492
C40   C     C_R   0.594625 0.765394 0.353600 -0.121154
C41   C     C_R   0.587549 0.744226 0.303029 0.024739
C42   C     C_R   0.623402 0.838244 0.274397 0.004378
C43   C     C_R   0.545625 0.631596 0.280635 0.161997
C44   C     C_R   0.551306 0.615007 0.230194 0.136385
C45   C     C_R   0.599005 0.711490 0.202479 -0.017499
C46   C     C_R   0.627310 0.821936 0.223989 -0.049052
C47   C     C_R   0.624374 0.701049 0.154257 -0.169546
C48   C     C_R   0.636658 0.877476 0.375020 0.005947
H8    H     H_    0.613596 0.619576 0.138119 0.145767
H9    H     H_    0.567508 0.695725 0.376682 0.148724
C49   C     C_R   0.735981 0.350999 0.648755 0.117212
C50   C     C_R   0.751201 0.374157 0.699391 0.048200
C51   C     C_R   0.778237 0.421088 0.800087 0.041940
C52   C     C_R   0.872851 0.482769 0.770727 -0.082445
C53   C     C_R   0.859756 0.459154 0.720919 -0.133971
C54   C     C_R   0.791117 0.448945 0.849505 0.339174
H10   H     H_    0.957590 0.549983 0.786157 0.181170
H11   H     H_    0.934971 0.508366 0.699501 0.152559
C55   C     C_R   0.697889 0.387334 0.879463 0.041594
C56   C     C_R   0.532681 0.202348 0.658806 -0.125437
C57   C     C_R   0.545824 0.225782 0.708381 -0.016078
C58   C     C_R   0.655339 0.310969 0.729175 -0.034316
C59   C     C_R   0.449605 0.166522 0.737015 0.363676
C60   C     C_R   0.460603 0.190650 0.787167 0.171108
C61   C     C_R   0.572210 0.271059 0.809511 -0.015559
C62   C     C_R   0.668569 0.333892 0.779674 -0.067323
C63   C     C_R   0.590527 0.293911 0.860436 0.096070
C64   C     C_R   0.625816 0.263861 0.629120 -0.003192
H12   H     H_    0.448981 0.133855 0.642845 0.197956
C65   C     C_1   0.218273 0.859555 0.609376 -0.003968
C66   C     C_R   0.251135 0.830670 0.730781 -0.112372
C67   C     C_R   0.236534 0.823141 0.780377 -0.199857
C68   C     C_R   0.046998 0.817042 0.771227 0.394695
C69   C     C_R   0.061361 0.825085 0.721119 0.168984
C70   C     C_R   0.164669 0.832408 0.701013 0.059737
C71   C     C_R   0.135453 0.817877 0.800819 0.003665
C72   C     C_1   0.120111 0.809040 0.851932 0.031316
C73   C     C_1   0.187411 0.845502 0.650414 0.014617
C74   C     C_1   0.098665 0.795140 0.893876 0.062283
H13   H     H_    0.330968 0.836507 0.715620 0.141001
H14   H     H_    0.304599 0.822549 0.802845 0.132092
C75   C     C_1   0.641992 0.865783 0.611348 -0.015310
C76   C     C_R   0.695982 0.927994 0.736294 -0.102639
C77   C     C_R   0.697894 0.918493 0.785927 0.399069
C78   C     C_R   0.616626 0.711644 0.770153 -0.108563
C79   C     C_R   0.615629 0.719821 0.719741 0.152669
C80   C     C_R   0.655212 0.830007 0.703049 -0.024764
C81   C     C_R   0.657759 0.810245 0.803006 0.035452
C82   C     C_1   0.668183 0.800619 0.853921 0.035290
C83   C     C_1   0.649720 0.845932 0.652436 -0.067268
C84   C     C_1   0.684658 0.790993 0.895649 0.029745
H15   H     H_    0.726076 0.012426 0.723690 0.144032
H16   H     H_    0.585717 0.628752 0.784213 0.120872
O14   O     O_R   0.820790 0.857990 0.068830 -0.523408
O15   O     O_R   0.016700 0.827330 0.062850 -0.508964
C85   C     C_R   0.067860 0.774213 0.078382 0.532543
O16   O     O_R   0.041970 0.673520 0.060040 -0.528104
O17   O     O_R   0.817980 0.483660 0.048840 -0.504951
C86   C     C_R   0.716979 0.441059 0.067291 0.534340
O18   O     O_R   0.637200 0.461990 0.052510 -0.516052
O19   O     O_R   0.664790 0.681920 0.057970 -0.512947
C87   C     C_R   0.718761 0.781835 0.080485 0.570662
O20   O     O_R   0.815840 0.852920 0.961840 -0.489417
O21   O     O_R   0.012100 0.822630 0.963670 -0.502366
C88   C     C_R   0.056590 0.766037 0.941229 0.570503
O22   O     O_R   0.037010 0.668460 0.953040 -0.457351
O23   O     O_R   0.813390 0.478970 0.949660 -0.435862
C89   C     C_R   0.711032 0.434097 0.929452 0.605236
O24   O     O_R   0.632250 0.456930 0.945520 -0.534091
O25   O     O_R   0.660200 0.677230 0.958780 -0.502630
C90   C     C_R   0.716760 0.776290 0.942961 0.558390
Cr4   Cr    Cr6+3 0.914010 0.832750 0.013970 1.014190
Cr5   Cr    Cr6+3 0.922310 0.578600 0.003000 1.066902
Cr6   Cr    Cr6+3 0.656280 0.574630 0.003870 1.016226
O26   O     O_3   0.830870 0.661990 0.006950 -0.248217
F1    F     F_    0.877401 0.413776 0.314506 -0.625579
F2    F     F_    0.208962 0.129720 0.212946 -0.606795
F3    F     F_    0.227193 0.044001 0.382383 -0.613325
N1    N     N_2   0.705905 0.988043 0.113415 -0.477988
H17   H     H_    0.642019 0.013087 0.112209 0.299059
C91   C     C_3   0.826261 0.081832 0.113133 -0.237661
H18   H     H_    0.826488 0.165594 0.114243 0.162857
H19   H     H_    0.866747 0.072020 0.079074 0.148918
H20   H     H_    0.880674 0.084533 0.144633 0.143130
F4    F     F_    0.704263 0.114512 0.192914 -0.681248
N2    N     N_2   0.508084 0.500520 0.208153 -0.497791
H21   H     H_    0.569850 0.487486 0.189283 0.255580
C92   C     C_3   0.394549 0.451811 0.182365 -0.241343
H22   H     H_    0.402283 0.496341 0.149332 0.116913
H23   H     H_    0.328617 0.459630 0.205765 0.140863
H24   H     H_    0.362086 0.358919 0.171426 0.242869
N3    N     N_2   0.502870 0.535700 0.309107 -0.511529
H25   H     H_    0.521078 0.471219 0.296295 0.303111
C93   C     C_3   0.381330 0.491341 0.322585 -0.269240
H26   H     H_    0.320492 0.450965 0.290188 0.163662
H27   H     H_    0.367211 0.561302 0.340472 0.135771
H28   H     H_    0.359759 0.424914 0.348323 0.184292
N4    N     N_2   0.907333 0.436252 0.215952 -0.462210
H29   H     H_    0.915811 0.476121 0.184733 0.240734
C94   C     C_3   0.961810 0.363236 0.213443 -0.244639
H30   H     H_    0.909481 0.285187 0.188288 0.177410
H31   H     H_    0.969048 0.337224 0.249744 0.213485
H32   H     H_    0.051905 0.410080 0.199709 0.099973
F5    F     F_    0.893729 0.540505 0.868282 -0.629130
N5    N     N_2   0.829461 0.416827 0.618276 -0.529972
H33   H     H_    0.838166 0.370218 0.588560 0.273344
C95   C     C_3   0.832716 0.521977 0.606083 -0.313654
H34   H     H_    0.751493 0.501485 0.584503 0.144309
H35   H     H_    0.911042 0.570582 0.584403 0.159630
H36   H     H_    0.840123 0.577822 0.639367 0.161120
N6    N     N_2   0.513411 0.213585 0.892451 -0.499984
H37   H     H_    0.482965 0.127614 0.881355 0.275366
C96   C     C_3   0.428799 0.238380 0.917608 -0.251498
H38   H     H_    0.338117 0.164188 0.910982 0.139521
H39   H     H_    0.429519 0.316410 0.905631 0.168849
H40   H     H_    0.449832 0.251287 0.957120 0.164629
N7    N     N_2   0.356518 0.141203 0.814039 -0.505259
H41   H     H_    0.306287 0.053274 0.806389 0.284057
C97   C     C_3   0.285925 0.198372 0.811914 -0.277479
H42   H     H_    0.212161 0.160878 0.836897 0.151843
H43   H     H_    0.247831 0.186268 0.774677 0.194925
H44   H     H_    0.340580 0.292144 0.823083 0.139893
F6    F     F_    0.342143 0.089510 0.716027 -0.681750
F7    F     F_    0.477881 0.244577 0.194428 -0.566042
F8    F     F_    0.947780 0.809851 0.791120 -0.637391
N8    N     N_2   0.971891 0.824634 0.691207 -0.526636
H45   H     H_    0.887204 0.772897 0.701945 0.282642
C98   C     C_3   0.991978 0.938380 0.682646 -0.267076
H46   H     H_    0.988970 0.985541 0.717136 0.181335
H47   H     H_    0.921996 0.930334 0.657033 0.143016
H48   H     H_    0.079068 0.988493 0.666473 0.186102
F9    F     F_    0.739567 0.015030 0.817249 -0.623672
N9    N     N_2   0.571230 0.618248 0.686458 -0.511305
H49   H     H_    0.572583 0.630587 0.650245 0.260055
C99   C     C_3   0.603378 0.531541 0.696472 -0.293532
H50   H     H_    0.577750 0.466393 0.664748 0.149724
H51   H     H_    0.555455 0.485262 0.727714 0.156854
H52   H     H_    0.700344 0.571830 0.703753 0.154918
F10   F     F_    0.456992 0.220446 0.291089 -0.599046
N10   N     N_2   0.168385 0.015521 0.126099 -0.425519
H53   H     H_    0.205439 0.023668 0.092706 0.246241
C100  C     C_3   0.067052 0.034420 0.127609 -0.215434
H54   H     H_    0.028640 0.021807 0.090509 0.140107
H55   H     H_    0.095954 0.125117 0.141416 0.178623
H56   H     H_    0.997810 0.975511 0.150996 0.152862

loop_
_geom_bond_atom_site_label_1
_geom_bond_atom_site_label_2
_geom_bond_distance
_ccdc_geom_bond_type
Cr4   O26   1.978720 S    
N10   H53   1.031733 S    
C94   H30   1.107130 S    
O25   Cr6   1.908887 S    
C93   H26   1.109343 S    
N3    C93   1.447272 S    
C11   F10   1.356097 S    
C68   F8    1.359272 S    
C19   C20   1.398606 A    
C51   C54   1.379800 A    
C60   C61   1.418451 A    
C88   O22   1.267722 A    
C49   N5    1.426682 S    
C69   C70   1.409274 A    
O4    Cr2   1.911647 S    
C33   H6    1.085600 S    
C25   C26   1.409091 A    
N7    H41   1.028984 S    
C17   C32   1.404107 A    
C56   H12   1.085722 S    
N10   C100  1.449274 S    
O8    Cr1   1.933659 S    
C10   C11   1.395631 A    
O11   Cr3   2.073615 S    
O4    C2    1.272954 A    
C75   C83   1.206447 T    
C20   C21   1.386999 A    
C94   H31   1.110148 S    
O21   Cr4   1.924406 S    
C74   C88   1.431504 S    
N2    C92   1.447659 S    
C4    C75   1.435202 S    
C67   C71   1.396719 A    
C52   H10   1.083548 S    
C44   N2    1.424651 S    
C95   H34   1.111548 S    
C66   C70   1.402307 A    
C5    O11   1.260471 A    
C18   C21   1.398947 A    
C68   C71   1.405095 A    
C78   C79   1.412735 A    
C39   C47   1.398817 A    
C79   N9    1.433296 S    
O18   Cr6   2.024845 S    
C92   H24   1.109753 S    
C21   H4    1.084084 S    
N8    C98   1.446009 S    
C35   C38   1.417230 A    
N6    H37   1.031534 S    
C34   C42   1.406868 A    
C60   N7    1.421074 S    
O15   C85   1.275634 A    
N5    H33   1.029809 S    
C50   C58   1.423692 A    
C96   H40   1.109574 S    
C33   C48   1.398754 A    
C27   C28   1.395546 A    
C38   N1    1.426377 S    
C9    N4    1.425731 S    
C24   F3    1.359810 S    
C29   C31   1.421000 A    
C92   H22   1.110198 S    
C8    C9    1.408835 A    
C99   H50   1.110771 S    
C18   C26   1.410228 A    
C51   C62   1.407273 A    
C27   H5    1.083561 S    
C61   C62   1.427364 A    
C24   C32   1.408687 A    
C37   H7    1.082193 S    
C69   N8    1.423177 S    
C43   C44   1.406504 A    
C93   H27   1.110954 S    
Cr3   O13   1.972661 S    
C20   H3    1.082086 S    
C66   C67   1.394046 A    
C3    C32   1.469079 S    
C99   H52   1.110609 S    
C91   H20   1.110899 S    
C77   F9    1.357728 S    
N4    C94   1.447925 S    
N7    C97   1.447752 S    
C17   C18   1.385920 A    
N6    C96   1.450043 S    
C25   C27   1.399538 A    
C8    F1    1.358776 S    
C9    C13   1.417570 A    
C22   H1    1.084797 S    
O1    Cr1   2.055648 S    
C17   H2    1.084699 S    
C23   C85   1.476640 S    
C49   C50   1.407092 A    
C28   F2    1.354269 S    
C98   H46   1.111842 S    
O10   Cr2   1.945762 S    
O19   Cr6   1.949364 S    
C94   H32   1.106864 S    
O1    C3    1.269243 A    
C57   C58   1.401812 A    
C91   H19   1.108358 S    
C65   C73   1.204979 T    
C35   C46   1.427362 A    
C58   C62   1.402425 A    
C59   C60   1.394213 A    
O6    C3    1.279798 A    
C40   H9    1.083335 S    
O24   Cr6   2.069988 S    
C52   C53   1.384330 A    
O12   Cr3   1.905413 S    
C1    O3    1.263141 A    
C44   C45   1.418433 A    
O16   Cr5   2.070205 S    
C97   H44   1.111257 S    
C7    C15   1.206018 T    
C49   C64   1.403840 A    
C1    C48   1.447604 S    
C98   H47   1.110314 S    
C13   C14   1.446031 S    
C16   C86   1.436544 S    
C54   C55   1.402448 A    
O22   Cr5   2.024061 S    
C10   F7    1.357904 S    
C56   C57   1.377804 A    
O7    Cr1   2.035145 S    
C85   O16   1.272606 A    
C68   C69   1.408480 A    
Cr1   O13   1.979180 S    
C19   C30   1.408613 A    
C72   C74   1.204300 T    
O12   C6    1.274726 A    
C84   C90   1.434589 S    
C51   C52   1.402591 A    
C80   C83   1.444578 S    
O17   C86   1.271812 A    
C31   N10   1.427298 S    
C82   C84   1.206145 T    
Cr5   O26   1.972824 S    
C96   H38   1.110563 S    
C40   C48   1.393696 A    
C66   H13   1.084065 S    
C59   F6    1.359101 S    
C93   H28   1.110228 S    
O25   C90   1.274232 A    
N1    C91   1.449152 S    
C36   F4    1.353100 S    
C35   C36   1.411931 A    
O21   C88   1.275502 A    
O14   Cr4   2.045678 S    
N3    H25   1.030947 S    
C67   H14   1.083556 S    
C76   C80   1.402548 A    
C100  H56   1.112810 S    
O5    Cr3   2.022673 S    
C100  H54   1.108324 S    
C33   C34   1.386450 A    
C28   C29   1.415835 A    
C38   C39   1.402069 A    
C61   C63   1.416757 A    
O9    Cr2   2.029423 S    
O2    Cr1   1.921069 S    
N1    H17   1.031348 S    
C77   C81   1.397858 A    
C45   C46   1.408765 A    
C12   C15   1.442114 S    
O23   Cr5   1.952266 S    
C24   C25   1.403199 A    
C8    C12   1.401007 A    
Cr2   O13   1.975441 S    
N9    H49   1.030275 S    
O6    Cr3   1.954204 S    
O20   Cr4   2.044460 S    
C39   C87   1.458338 S    
C47   H8    1.081074 S    
O8    C4    1.276955 A    
C78   C81   1.401589 A    
C2    O5    1.267682 A    
C70   C73   1.441318 S    
C56   C64   1.396664 A    
Cr6   O26   1.974855 S    
C26   C30   1.405777 A    
C55   C63   1.405508 A    
C71   C72   1.438351 S    
C76   H15   1.084185 S    
C91   H18   1.110632 S    
C41   C42   1.417694 A    
C78   H16   1.081929 S    
O2    C1    1.270249 A    
C55   C89   1.448285 S    
C98   H48   1.110926 S    
C22   C23   1.399480 A    
N4    H29   1.030805 S    
C89   O24   1.266965 A    
C14   C16   1.207153 T    
C53   H11   1.082868 S    
C23   C31   1.420812 A    
C36   C37   1.388963 A    
C43   N3    1.427301 S    
C95   H35   1.110394 S    
C81   C82   1.441701 S    
O7    C6    1.266196 A    
C42   C46   1.402563 A    
C2    C7    1.434627 S    
N5    C95   1.446738 S    
O23   C89   1.267552 A    
C92   H23   1.110075 S    
O17   Cr5   1.907643 S    
N8    H45   1.031617 S    
C50   C53   1.400675 A    
C97   H43   1.111233 S    
N9    C99   1.448504 S    
C63   N6    1.430120 S    
C5    C64   1.441251 S    
C40   C41   1.402915 A    
O3    Cr2   2.062042 S    
O19   C87   1.269221 A    
C4    O9    1.270770 A    
O20   C90   1.267225 A    
C10   C13   1.402154 A    
C45   C47   1.389129 A    
C29   C30   1.417947 A    
C76   C77   1.394873 A    
C34   C37   1.395273 A    
C79   C80   1.417078 A    
C11   C12   1.399541 A    
C6    C65   1.433117 S    
O10   C5    1.270579 A    
C57   C59   1.396317 A    
C99   H51   1.109220 S    
C54   F5    1.359952 S    
C86   O18   1.268787 A    
N2    H21   1.029601 S    
C100  H55   1.108987 S    
O14   C87   1.276372 A    
O15   Cr4   1.930544 S    
C97   H42   1.110211 S    
C41   C43   1.409413 A    
C96   H39   1.111337 S    
C19   C22   1.381511 A    
C95   H36   1.110424 S    
