data_mof_unit_8790.cif
_audit_creation_date              2013-03-05T15:45:13-0500
_audit_creation_method            fapswitch 2.2
_symmetry_space_group_name_H-M    P1
_symmetry_Int_Tables_number       1
_space_group_crystal_system       triclinic
_cell_length_a                    11.54295
_cell_length_b                    11.530426
_cell_length_c                    19.580272
_cell_angle_alpha                 90.566796
_cell_angle_beta                  90.266459
_cell_angle_gamma                 59.851831
_cell_volume                      2253.40824267

loop_
_atom_site_label
_atom_site_type_symbol
_atom_site_description
_atom_site_fract_x
_atom_site_fract_y
_atom_site_fract_z
_atom_type_partial_charge
O1    O     O_R   0.267740 0.231990 0.575440 -0.503056
O2    O     O_R   0.527280 0.186680 0.570530 -0.487139
C1    C     C_R   0.640542 0.117382 0.599303 0.551584
O3    O     O_R   0.728090 0.003480 0.576380 -0.502678
O4    O     O_R   0.682970 0.789220 0.570490 -0.497242
C2    C     C_R   0.612612 0.746079 0.598687 0.549194
O5    O     O_R   0.499290 0.771920 0.575530 -0.492338
O6    O     O_R   0.285330 0.030900 0.569730 -0.496150
C3    C     C_R   0.241299 0.145280 0.598294 0.541559
O7    O     O_R   0.270980 0.227040 0.423900 -0.500870
O8    O     O_R   0.530280 0.182090 0.430050 -0.484461
C4    C     C_R   0.643444 0.113696 0.402515 0.551450
O9    O     O_R   0.731330 0.998530 0.424830 -0.521148
O10   O     O_R   0.685970 0.784630 0.430010 -0.520364
C5    C     C_R   0.620414 0.733368 0.404601 0.570469
O11   O     O_R   0.502530 0.766960 0.423990 -0.449944
O12   O     O_R   0.288330 0.026310 0.429250 -0.502910
C6    C     C_R   0.242768 0.140551 0.401879 0.539168
Cr1   Cr    Cr6+3 0.404720 0.198220 0.499960 1.081169
Cr2   Cr    Cr6+3 0.698290 0.897110 0.500380 1.041241
Cr3   Cr    Cr6+3 0.396970 0.904720 0.499610 1.083661
O13   O     O_3   0.499990 0.000020 0.499980 -0.275374
C7    C     C_1   0.669957 0.646432 0.860037 0.005837
C8    C     C_1   0.654897 0.683826 0.728454 -0.028565
C9    C     C_1   0.663184 0.666689 0.799661 -0.029204
C10   C     C_1   0.641587 0.704088 0.668057 0.008411
C11   C     C_1   0.126296 0.198868 0.859186 0.005837
C12   C     C_1   0.171684 0.170415 0.727714 -0.028218
C13   C     C_1   0.149939 0.182394 0.798893 -0.028726
C14   C     C_1   0.195664 0.161015 0.667459 0.006638
C15   C     C_1   0.678331 0.191649 0.860682 0.005194
C16   C     C_1   0.658620 0.167276 0.729019 -0.028295
C17   C     C_1   0.665541 0.181180 0.800272 -0.028773
C18   C     C_1   0.653156 0.149607 0.668674 0.007878
C19   C     C_R   0.593404 0.610154 0.308881 0.192146
C20   C     C_R   0.595535 0.599935 0.238882 -0.106598
H1    H     H_    0.535814 0.561926 0.215417 0.171277
C21   C     C_R   0.676062 0.633633 0.199839 -0.006167
C22   C     C_R   0.761703 0.669741 0.231591 -0.167808
H2    H     H_    0.829134 0.689475 0.202174 0.142063
C23   C     C_R   0.757347 0.684187 0.301846 -0.181480
H3    H     H_    0.816829 0.722489 0.325234 0.156889
C24   C     C_R   0.666454 0.663303 0.340125 0.012545
C25   C     C_R   0.109494 0.292655 0.310399 -0.123545
H4    H     H_    0.076627 0.378202 0.344460 0.152179
C26   C     C_R   0.083494 0.314444 0.241520 -0.135054
H5    H     H_    0.025686 0.417148 0.224248 0.147520
C27   C     C_R   0.128784 0.205759 0.195731 0.012232
C28   C     C_R   0.198060 0.073209 0.220263 -0.038211
C29   C     C_R   0.224983 0.052087 0.289846 -0.137935
H6    H     H_    0.284942 0.950324 0.308387 0.161628
C30   C     C_R   0.183478 0.161805 0.334588 0.010434
C31   C     C_R   0.785709 0.084762 0.305414 -0.147937
H7    H     H_    0.871981 0.009859 0.333250 0.149062
C32   C     C_R   0.800018 0.101477 0.237352 -0.129700
H8    H     H_    0.898958 0.041442 0.215293 0.156596
C33   C     C_R   0.689548 0.194080 0.198643 0.010565
C34   C     C_R   0.566277 0.275213 0.229453 -0.149979
H9    H     H_    0.482836 0.350104 0.199871 0.132203
C35   C     C_R   0.549851 0.258398 0.298055 -0.008173
C36   C     C_R   0.660432 0.158407 0.336093 0.024592
O14   O     O_R   0.821500 0.119550 0.952820 -0.502050
O15   O     O_R   0.037130 0.162750 0.957360 -0.490457
C37   C     C_R   0.081452 0.231355 0.928470 0.548446
O16   O     O_R   0.056440 0.344950 0.951330 -0.502839
O17   O     O_R   0.797900 0.560570 0.957460 -0.493393
C38   C     C_R   0.683739 0.604435 0.929391 0.549294
O18   O     O_R   0.596140 0.579600 0.952720 -0.497324
O19   O     O_R   0.639070 0.321380 0.958660 -0.493075
C39   C     C_R   0.708174 0.206893 0.930056 0.546380
O20   O     O_R   0.821240 0.124490 0.104360 -0.519315
O21   O     O_R   0.036900 0.167320 0.097830 -0.491877
C40   C     C_R   0.081785 0.236930 0.125718 0.543583
O22   O     O_R   0.056190 0.349890 0.102870 -0.519482
O23   O     O_R   0.797670 0.565150 0.097930 -0.506438
C41   C     C_R   0.685822 0.604679 0.127806 0.556963
O24   O     O_R   0.595880 0.584540 0.104260 -0.505797
O25   O     O_R   0.638830 0.325960 0.099140 -0.507878
C42   C     C_R   0.712198 0.213610 0.128446 0.547178
Cr4   Cr    Cr6+3 0.926180 0.152240 0.028110 1.054064
Cr5   Cr    Cr6+3 0.921340 0.452070 0.027460 1.037509
Cr6   Cr    Cr6+3 0.626260 0.447120 0.028700 1.049461
O26   O     O_3   0.824590 0.350480 0.028090 -0.267247
N1    N     N_R   0.508977 0.576058 0.346907 0.079404
O27   O     O_R   0.386202 0.619595 0.327261 -0.345310
O28   O     O_R   0.552725 0.505895 0.402447 -0.333452
C43   C     C_1   0.417304 0.343434 0.325783 0.307888
N2    N     N_1   0.310894 0.412874 0.347393 -0.224263
C44   C     C_1   0.247291 0.958009 0.175213 0.210425
N3    N     N_1   0.286845 0.865563 0.139232 -0.273575

loop_
_geom_bond_atom_site_label_1
_geom_bond_atom_site_label_2
_geom_bond_distance
_ccdc_geom_bond_type
C32   H8    1.083793 S    
O11   Cr3   2.055788 S    
C11   C13   1.204465 T    
C23   H3    1.083443 S    
C33   C42   1.441135 S    
C19   C20   1.373770 A    
C43   N2    1.157184 T    
O20   C42   1.248742 A    
C6    C30   1.447039 S    
C22   C23   1.382132 A    
O4    Cr2   1.928826 S    
C21   C41   1.437986 S    
C31   H7    1.083982 S    
O8    Cr1   1.936899 S    
O14   Cr4   2.050683 S    
C12   C13   1.410356 S    
C8    C10   1.201847 T    
O4    C2    1.275620 A    
C34   C35   1.386462 A    
C5    O11   1.272098 A    
O14   C39   1.266588 A    
C40   O22   1.267923 A    
C7    C38   1.427416 S    
O19   Cr6   1.936966 S    
C31   C36   1.391972 A    
N1    O27   1.300973 A    
C15   C39   1.430538 S    
O6    C3    1.274842 A    
C29   C30   1.403794 A    
C15   C17   1.203722 T    
C19   C24   1.402731 A    
C25   C30   1.395038 A    
O17   C38   1.274219 A    
Cr3   O13   1.983412 S    
C23   C24   1.408957 A    
Cr4   O26   1.976747 S    
O20   Cr4   2.052877 S    
Cr5   O26   1.983409 S    
C35   C43   1.444755 S    
C25   C26   1.378142 A    
O12   C6    1.270610 A    
O15   Cr4   1.936399 S    
C31   C32   1.370955 A    
C26   C27   1.404159 A    
O1    Cr1   2.056169 S    
C38   O18   1.269180 A    
O10   Cr2   1.936202 S    
Cr1   O13   1.976780 S    
O1    C3    1.268712 A    
C8    C9    1.406186 S    
C28   C44   1.445221 S    
C22   H2    1.083517 S    
O25   C42   1.277826 A    
O23   Cr5   1.937750 S    
C1    C18   1.430669 S    
C29   H6    1.085334 S    
C34   H9    1.085419 S    
O5    Cr3   2.039981 S    
O12   Cr3   1.921526 S    
C35   C36   1.429398 A    
C16   C18   1.203762 T    
O23   C41   1.275711 A    
O25   Cr6   1.925532 S    
O16   Cr5   2.056676 S    
O7    Cr1   2.045643 S    
O8    C4    1.257882 A    
O6    Cr3   1.938068 S    
C2    C10   1.427358 S    
C41   O24   1.256955 A    
C3    C14   1.431862 S    
C27   C28   1.410458 A    
Cr2   O13   1.979703 S    
C28   C29   1.392400 A    
C32   C33   1.407104 A    
O22   Cr5   2.040126 S    
C1    O3    1.267660 A    
C25   H4    1.084045 S    
C26   H5    1.083560 S    
C20   H1    1.083934 S    
O9    Cr2   2.046642 S    
O2    Cr1   1.929968 S    
C27   C40   1.452499 S    
N1    O28   1.301565 A    
O21   C40   1.271706 A    
C19   N1    1.433891 S    
C2    O5    1.269285 A    
O18   Cr6   2.043096 S    
C37   O16   1.268480 A    
C12   C14   1.204454 T    
O2    C1    1.271934 A    
C5    C24   1.443509 S    
O21   Cr4   1.931190 S    
C16   C17   1.409228 S    
O17   Cr5   1.923322 S    
C4    C36   1.453577 S    
C33   C34   1.386896 A    
C21   C22   1.392725 A    
O24   Cr6   2.054955 S    
O7    C6    1.266047 A    
C20   C21   1.405227 A    
C7    C9    1.201860 T    
O19   C39   1.274518 A    
C11   C37   1.431895 S    
O15   C37   1.274971 A    
O3    Cr2   2.054252 S    
C4    O9    1.279689 A    
Cr6   O26   1.979988 S    
O10   C5    1.268634 A    
C44   N3    1.157732 T    
