data_mof_unit_50888.cif
_audit_creation_date              2013-03-05T16:11:04-0500
_audit_creation_method            fapswitch 2.2
_symmetry_space_group_name_H-M    P1
_symmetry_Int_Tables_number       1
_space_group_crystal_system       triclinic
_cell_length_a                    10.731061
_cell_length_b                    9.420698
_cell_length_c                    10.62188
_cell_angle_alpha                 90.213955
_cell_angle_beta                  89.807064
_cell_angle_gamma                 90.031065
_cell_volume                      1073.79551312

loop_
_atom_site_label
_atom_site_type_symbol
_atom_site_description
_atom_site_fract_x
_atom_site_fract_y
_atom_site_fract_z
_atom_type_partial_charge
O1    O     O_R   0.317570 0.620260 0.500070 -0.573468
O2    O     O_R   0.317570 0.379740 0.500070 -0.586090
C1    C     C_R   0.259898 0.499968 0.495318 0.835692
O3    O     O_R   0.499850 0.620240 0.316900 -0.608262
O4    O     O_R   0.499850 0.379760 0.316900 -0.581505
C2    C     C_R   0.500038 0.499649 0.259318 0.812005
Cu1   Cu    Cu3+1 0.499860 0.642410 0.500060 0.921599
Cu2   Cu    Cu3+1 0.499860 0.357590 0.500060 0.924617
O5    O     O_R   0.682190 0.620260 0.500030 -0.602039
O6    O     O_R   0.682190 0.379740 0.500030 -0.600125
O7    O     O_R   0.499910 0.620280 0.683200 -0.578392
O8    O     O_R   0.499910 0.379720 0.683200 -0.602802
C3    C     C_R   0.739903 0.499932 0.495615 0.791402
C4    C     C_R   0.499865 0.500297 0.740809 0.835288
C5    C     C_3   0.395660 0.562517 0.042905 -0.085854
C6    C     C_3   0.504333 0.364771 0.040199 -0.151638
C7    C     C_3   0.399788 0.428609 0.958309 -0.079507
H1    H     H_    0.317873 0.370196 0.920997 0.162470
H2    H     H_    0.310260 0.613552 0.081210 0.161118
H3    H     H_    0.507812 0.254144 0.075729 0.140043
C8    C     C_3   0.499883 0.500881 0.877741 -0.000620
C9    C     C_3   0.495775 0.634876 0.960094 -0.134785
C10   C     C_3   0.604440 0.437096 0.957350 -0.189548
C11   C     C_3   0.600351 0.570978 0.041987 -0.186432
C12   C     C_3   0.500200 0.498806 0.122488 -0.010151
H4    H     H_    0.492184 0.745508 0.924590 0.140882
H5    H     H_    0.689783 0.385972 0.919022 0.138831
H6    H     H_    0.682342 0.629036 0.079578 0.138363
C13   C     C_3   0.070684 0.509772 0.631069 0.176334
C14   C     C_3   0.071181 0.357871 0.434500 0.178163
H7    H     H_    0.098657 0.410592 0.680557 0.080213
H8    H     H_    0.101063 0.268906 0.496459 0.086716
C15   C     C_3   0.926387 0.514567 0.629927 -0.428762
C16   C     C_3   0.927324 0.358575 0.435414 -0.425800
H9    H     H_    0.889078 0.426651 0.688921 0.132861
H10   H     H_    0.894089 0.266517 0.491800 0.144580
H11   H     H_    0.890874 0.615105 0.672070 0.209056
H12   H     H_    0.889160 0.344398 0.338874 0.205656
H13   H     H_    0.103802 0.729941 0.453810 0.207277
H14   H     H_    0.108703 0.624820 0.317292 0.198660
H15   H     H_    0.892991 0.727856 0.450654 0.181496
H16   H     H_    0.894711 0.614576 0.314434 0.175602
C17   C     C_3   0.071478 0.627048 0.414807 -0.327829
C18   C     C_3   0.121858 0.499995 0.492960 -0.089596
C19   C     C_3   0.877726 0.499492 0.493430 0.042674
C20   C     C_3   0.928072 0.624808 0.413179 -0.359783
C21   C     C_3   0.605519 0.084148 0.576986 -0.189401
C22   C     C_3   0.605486 0.916545 0.577027 -0.191580
H17   H     H_    0.601073 0.123993 0.675584 0.144964
H18   H     H_    0.600875 0.877559 0.675636 0.143310
H19   H     H_    0.695776 0.121405 0.537680 0.145105
H20   H     H_    0.695777 0.878907 0.537829 0.149378
H21   H     H_    0.371973 0.123988 0.656564 0.143248
H22   H     H_    0.371633 0.876731 0.656286 0.178563
C23   C     C_3   0.384143 0.083806 0.558674 -0.190771
C24   C     C_3   0.384057 0.916404 0.558515 -0.153740
C25   C     C_3   0.511489 0.083059 0.373686 -0.184194
C26   C     C_3   0.511311 0.915969 0.373660 -0.195331
N1    N     N_3   0.500250 0.143650 0.502780 -0.123784
N2    N     N_3   0.500250 0.856350 0.502780 -0.134057
H23   H     H_    0.433096 0.121051 0.314538 0.189573
H24   H     H_    0.432521 0.877707 0.314726 0.154673
H25   H     H_    0.598680 0.121998 0.328471 0.136470
H26   H     H_    0.598337 0.876609 0.328221 0.143753
H27   H     H_    0.301799 0.120469 0.504876 0.180012
H28   H     H_    0.301790 0.879365 0.504297 0.165176
N3    N     N_R   0.122604 0.630252 0.702132 0.137225
O9    O     O_R   0.088660 0.760147 0.678926 -0.404075
O10   O     O_R   0.196756 0.606541 0.796331 -0.401601
N4    N     N_R   0.120384 0.329399 0.307343 0.132053
O11   O     O_R   0.082318 0.401361 0.210437 -0.391670
O12   O     O_R   0.192773 0.220589 0.288588 -0.401908

loop_
_geom_bond_atom_site_label_1
_geom_bond_atom_site_label_2
_geom_bond_distance
_ccdc_geom_bond_type
C26   H24   1.112758 S    
C3    C19   1.479096 S    
C23   C24   1.577043 S    
C23   N1    1.489786 S    
C15   C19   1.548683 S    
Cu1   Cu2   2.683202 S    
C21   H17   1.112095 S    
C19   C20   1.554337 S    
Cu1   O7    1.957208 S    
C4    C8    1.454470 S    
C5    C9    1.545938 S    
Cu2   N1    2.015786 S    
O4    C2    1.286419 A    
O7    C4    1.287339 A    
C5    C12   1.531084 S    
C2    C12   1.453376 S    
C26   N2    1.488336 S    
C13   C15   1.549241 S    
C5    C7    1.546646 S    
H16   C20   1.113235 S    
O5    C3    1.292639 A    
C23   H27   1.109903 S    
C13   N3    1.471110 S    
H14   C17   1.109021 S    
C6    C7    1.545344 S    
H15   C20   1.113143 S    
C25   H25   1.112918 S    
N4    O11   1.301662 A    
C10   H5    1.110378 S    
C6    H3    1.110428 S    
C22   H18   1.112172 S    
O1    Cu1   1.967149 S    
C8    C9    1.533669 S    
C14   C18   1.571398 S    
O3    Cu1   1.955907 S    
C14   N4    1.472284 S    
C22   N2    1.490241 S    
H21   C23   1.112506 S    
C26   H26   1.112913 S    
H22   C24   1.112599 S    
C1    C18   1.481610 S    
C14   C16   1.543749 S    
N3    O9    1.301622 A    
C11   C12   1.531605 S    
O3    C2    1.288218 A    
H13   C17   1.108662 S    
C15   H11   1.112981 S    
C24   N2    1.489474 S    
N3    O10   1.300560 A    
C5    H2    1.110423 S    
C17   C18   1.557303 S    
C21   C22   1.578935 S    
Cu2   O8    1.955659 S    
C7    H1    1.110319 S    
C16   C19   1.554937 S    
O8    C4    1.288236 A    
C6    C10   1.545962 S    
C8    C10   1.531638 S    
C13   C18   1.567065 S    
C9    C11   1.545832 S    
Cu1   N2    2.015566 S    
C6    C12   1.533601 S    
Cu1   O5    1.967801 S    
C16   H12   1.113023 S    
O2    Cu2   1.967374 S    
C11   H6    1.110364 S    
O6    C3    1.291239 A    
O4    Cu2   1.957458 S    
C21   H19   1.110677 S    
C25   H23   1.111786 S    
O2    C1    1.292214 A    
C13   H7    1.115553 S    
C14   H8    1.115444 S    
C25   C26   1.574104 S    
C24   H28   1.111012 S    
C15   H9    1.113889 S    
C16   H10   1.113621 S    
C17   C20   1.539184 S    
C7    C8    1.532008 S    
C25   N1    1.487860 S    
C10   C11   1.546681 S    
C21   N1    1.490497 S    
C22   H20   1.111045 S    
Cu2   O6    1.967576 S    
C9    H4    1.110422 S    
N4    O12   1.300836 A    
O1    C1    1.291823 A    
