data_mof_unit_35271.cif
_audit_creation_date              2013-03-05T15:58:27-0500
_audit_creation_method            fapswitch 2.2
_symmetry_space_group_name_H-M    P1
_symmetry_Int_Tables_number       1
_space_group_crystal_system       orthorhombic
_cell_length_a                    7.256
_cell_length_b                    14.481
_cell_length_c                    15.802153
_cell_angle_alpha                 90.0
_cell_angle_beta                  90.0
_cell_angle_gamma                 90.0
_cell_volume                      1660.39757341

loop_
_atom_site_label
_atom_site_type_symbol
_atom_site_description
_atom_site_fract_x
_atom_site_fract_y
_atom_site_fract_z
_atom_type_partial_charge
O1    O     O_R   0.388780 0.834790 0.412340 -0.542078
O2    O     O_R   0.111220 0.165210 0.912340 -0.542078
O3    O     O_R   0.888780 0.665210 0.587660 -0.542078
O4    O     O_R   0.611220 0.334790 0.087660 -0.542078
O5    O     O_R   0.059040 0.845930 0.587040 -0.593813
O6    O     O_R   0.440960 0.154070 0.087040 -0.593813
O7    O     O_R   0.559040 0.654070 0.412960 -0.593813
O8    O     O_R   0.940960 0.345930 0.912960 -0.593813
C1    C     C_R   0.227839 0.869134 0.613901 0.920890
C2    C     C_R   0.272161 0.130866 0.113901 0.920891
C3    C     C_R   0.727839 0.630866 0.386099 0.920891
C4    C     C_R   0.772161 0.369134 0.886099 0.920891
O9    O     O_R   0.059070 0.845930 0.412970 -0.557832
O10   O     O_R   0.440930 0.154070 0.912970 -0.557832
O11   O     O_R   0.559070 0.654070 0.587030 -0.557831
O12   O     O_R   0.940930 0.345930 0.087030 -0.557831
O13   O     O_R   0.888760 0.665210 0.412340 -0.592227
O14   O     O_R   0.611240 0.334790 0.912340 -0.592228
O15   O     O_R   0.388760 0.834790 0.587660 -0.592227
O16   O     O_R   0.111240 0.165210 0.087660 -0.592227
C5    C     C_R   0.228298 0.866163 0.383223 0.829672
C6    C     C_R   0.271702 0.133837 0.883223 0.829672
C7    C     C_R   0.728298 0.633837 0.616777 0.829671
C8    C     C_R   0.771702 0.366163 0.116777 0.829671
O17   O     O_3   0.222280 0.690700 0.500000 -0.253007
O18   O     O_3   0.277720 0.309300 0.000000 -0.253007
O19   O     O_3   0.722280 0.809300 0.500000 -0.253007
O20   O     O_3   0.777720 0.190700 0.000000 -0.253007
V1    V     V_3+5 0.947430 0.761000 0.500000 1.239548
V2    V     V_3+5 0.552570 0.239000 0.000000 1.239548
V3    V     V_3+5 0.447430 0.739000 0.500000 1.239548
V4    V     V_3+5 0.052570 0.261000 0.000000 1.239548
C9    C     C_3   0.916841 0.581073 0.747556 0.325424
C10   C     C_3   0.583159 0.418927 0.247556 0.325424
C11   C     C_3   0.416840 0.918926 0.252444 0.325425
C12   C     C_3   0.083160 0.081074 0.752444 0.325426
H1    H     H_    0.897067 0.648991 0.779601 0.029190
H2    H     H_    0.602932 0.351009 0.279601 0.029190
H3    H     H_    0.397066 0.851009 0.220399 0.029189
H4    H     H_    0.102934 0.148991 0.720399 0.029189
C13   C     C_3   0.931263 0.506391 0.817845 -0.477782
C14   C     C_3   0.568737 0.493609 0.317845 -0.477782
C15   C     C_3   0.431262 0.993609 0.182154 -0.477781
C16   C     C_3   0.068738 0.006391 0.682154 -0.477781
H5    H     H_    0.940068 0.540649 0.880791 0.130604
H6    H     H_    0.559932 0.459351 0.380790 0.130604
H7    H     H_    0.440065 0.959350 0.119209 0.130603
H8    H     H_    0.059935 0.040650 0.619209 0.130603
H9    H     H_    0.060212 0.465580 0.810130 0.196466
H10   H     H_    0.439788 0.534420 0.310130 0.196466
H11   H     H_    0.560212 0.034419 0.189869 0.196466
H12   H     H_    0.939788 0.965581 0.689869 0.196466
H13   H     H_    0.856054 0.453383 0.608681 0.189155
H14   H     H_    0.643946 0.546617 0.108681 0.189155
H15   H     H_    0.356055 0.046617 0.391319 0.189155
H16   H     H_    0.143945 0.953383 0.891319 0.189155
H17   H     H_    0.886476 0.350792 0.719603 0.170411
H18   H     H_    0.613524 0.649208 0.219603 0.170411
H19   H     H_    0.386479 0.149207 0.280397 0.170411
H20   H     H_    0.113521 0.850792 0.780397 0.170411
C17   C     C_3   0.743205 0.463841 0.655031 -0.362166
C18   C     C_3   0.756795 0.536159 0.155031 -0.362166
C19   C     C_3   0.243206 0.036159 0.344969 -0.362164
C20   C     C_3   0.256794 0.963841 0.844969 -0.362164
C21   C     C_3   0.574019 0.571990 0.749686 -0.366828
C22   C     C_3   0.925981 0.428010 0.249686 -0.366829
C23   C     C_3   0.074018 0.928010 0.250314 -0.366829
C24   C     C_3   0.425982 0.071990 0.750314 -0.366829
C25   C     C_3   0.742771 0.564308 0.689786 -0.050968
C26   C     C_3   0.757229 0.435692 0.189786 -0.050968
C27   C     C_3   0.242770 0.935692 0.310213 -0.050970
C28   C     C_3   0.257229 0.064308 0.810213 -0.050970
H21   H     H_    0.448712 0.556502 0.713158 0.268455
H22   H     H_    0.051288 0.443498 0.213158 0.268455
H23   H     H_    0.948712 0.943499 0.286842 0.268455
H24   H     H_    0.551288 0.056501 0.786842 0.268455
H25   H     H_    0.560896 0.643413 0.774985 0.154401
H26   H     H_    0.939104 0.356587 0.274985 0.154401
H27   H     H_    0.060895 0.856587 0.225015 0.154402
H28   H     H_    0.439105 0.143413 0.725015 0.154402
C29   C     C_3   0.762163 0.440822 0.815679 0.045629
C30   C     C_3   0.737837 0.559178 0.315679 0.045629
C31   C     C_3   0.262163 0.059178 0.184321 0.045629
C32   C     C_3   0.237837 0.940822 0.684321 0.045628
C33   C     C_3   0.758797 0.392379 0.728049 -0.296531
C34   C     C_3   0.741203 0.607621 0.228049 -0.296530
C35   C     C_3   0.258799 0.107621 0.271950 -0.296531
C36   C     C_3   0.241201 0.892379 0.771950 -0.296531
C37   C     C_3   0.586423 0.501804 0.823636 -0.380669
C38   C     C_3   0.913577 0.498196 0.323636 -0.380669
C39   C     C_3   0.086422 0.998196 0.176365 -0.380668
C40   C     C_3   0.413578 0.001804 0.676365 -0.380668
H29   H     H_    0.588325 0.539545 0.884981 0.151371
H30   H     H_    0.911675 0.460455 0.384981 0.151371
H31   H     H_    0.088322 0.960456 0.115019 0.151371
H32   H     H_    0.411677 0.039544 0.615019 0.151371
H33   H     H_    0.460515 0.457888 0.823132 0.187534
H34   H     H_    0.039485 0.542112 0.323132 0.187534
H35   H     H_    0.960514 0.042114 0.176869 0.187534
H36   H     H_    0.539485 0.957886 0.676869 0.187534
H37   H     H_    0.613172 0.451049 0.619529 0.160640
H38   H     H_    0.886828 0.548951 0.119529 0.160640
H39   H     H_    0.113173 0.048951 0.380470 0.160640
H40   H     H_    0.386827 0.951049 0.880471 0.160640
H41   H     H_    0.640207 0.343743 0.724886 0.156913
H42   H     H_    0.859793 0.656257 0.224886 0.156912
H43   H     H_    0.140210 0.156257 0.275114 0.156912
H44   H     H_    0.359790 0.843743 0.775114 0.156912
N1    N     N_R   0.089969 0.585770 0.700107 0.232720
O21   O     O_R   0.184798 0.662073 0.700321 -0.454717
O22   O     O_R   0.148152 0.515681 0.656006 -0.460406
N2    N     N_R   0.410030 0.414229 0.200107 0.232720
O23   O     O_R   0.315202 0.337927 0.200321 -0.454717
O24   O     O_R   0.351847 0.484319 0.156005 -0.460406
N3    N     N_R   0.589969 0.914229 0.299892 0.232720
O25   O     O_R   0.684797 0.837927 0.299678 -0.454718
O26   O     O_R   0.648152 0.984319 0.343994 -0.460406
N4    N     N_R   0.910031 0.085771 0.799892 0.232720
O27   O     O_R   0.815203 0.162073 0.799678 -0.454717
O28   O     O_R   0.851848 0.015681 0.843994 -0.460406

loop_
_geom_bond_atom_site_label_1
_geom_bond_atom_site_label_2
_geom_bond_distance
_ccdc_geom_bond_type
C24   H28   1.112923 S    
C31   C35   1.552484 S    
O1    C5    1.331937 A    
O19   V1    1.777116 S    
O13   V1    2.006042 S    
C7    C25   1.534870 S    
C17   H37   1.113226 S    
C14   C30   1.551842 S    
C40   H32   1.112920 S    
O4    V2    2.006009 S    
O15   V3    2.006040 S    
N4    O28   1.301563 A    
N2    O24   1.301563 A    
H20   C36   1.113007 S    
C21   H21   1.100088 S    
C22   C38   1.551330 S    
O7    C3    1.339116 A    
C18   C34   1.554045 S    
C5    C27   1.534870 S    
O9    V1    2.014975 S    
N1    O22   1.301563 A    
C36   H44   1.113088 S    
C21   C25   1.551655 S    
N3    O25   1.301664 A    
C22   H22   1.100087 S    
C2    C31   1.523557 S    
O1    V3    2.006011 S    
C15   C31   1.551842 S    
C18   C26   1.555081 S    
O2    V4    2.006012 S    
C14   H6    1.113361 S    
C6    C28   1.534870 S    
O3    V1    2.006010 S    
N4    O27   1.301664 A    
H13   C17   1.108995 S    
C1    O15   1.335168 A    
C2    O16   1.335168 A    
C10   C14   1.553784 S    
N3    O26   1.301563 A    
H15   C19   1.108995 S    
O2    C6    1.331937 A    
H16   C20   1.108995 S    
C11   N3    1.464553 S    
O14   V2    2.006041 S    
C12   N4    1.464552 S    
C10   C26   1.577213 S    
C9    C25   1.577213 S    
C29   C37   1.556185 S    
C16   H12   1.113358 S    
O11   C7    1.347063 A    
C11   C27   1.577212 S    
O12   C8    1.347063 A    
C34   H42   1.113089 S    
O10   V2    2.014976 S    
C33   H41   1.113088 S    
H18   C34   1.113006 S    
C13   H9    1.113358 S    
N2    O23   1.301663 A    
C38   H30   1.112919 S    
O5    V1    2.014994 S    
C3    C30   1.523557 S    
C22   H26   1.112923 S    
O7    V3    2.014996 S    
C8    C26   1.534870 S    
O8    V4    2.014996 S    
C10   N2    1.464553 S    
C12   H4    1.115483 S    
C21   H25   1.112923 S    
C19   H39   1.113226 S    
O18   V4    1.777116 S    
H14   C18   1.108995 S    
O3    C7    1.331938 A    
C30   C34   1.552485 S    
C9    H1    1.115484 S    
C37   H33   1.113175 S    
C24   C28   1.551655 S    
C11   H3    1.115483 S    
O5    C1    1.339116 A    
O8    C4    1.339116 A    
C13   C29   1.551842 S    
C23   C39   1.551330 S    
O9    C5    1.347063 A    
C17   C33   1.554045 S    
C14   H10   1.113358 S    
O6    V2    2.014995 S    
C19   C27   1.555083 S    
C12   C16   1.553785 S    
C23   H23   1.100087 S    
C11   C15   1.553785 S    
C40   H36   1.113175 S    
O16   V4    2.006041 S    
C17   C25   1.555081 S    
C20   H40   1.113226 S    
C3    O13   1.335168 A    
C19   C35   1.554046 S    
C10   H2    1.115484 S    
O17   V3    1.777117 S    
C32   C36   1.552484 S    
C38   H34   1.113175 S    
C16   C32   1.551842 S    
O6    C2    1.339116 A    
O11   V3    2.014975 S    
C24   H24   1.100087 S    
C31   C39   1.556186 S    
C21   C37   1.551330 S    
C30   C38   1.556185 S    
C9    C13   1.553784 S    
O10   C6    1.347063 A    
O20   V2    1.777117 S    
N1    O21   1.301663 A    
C15   H11   1.113358 S    
C22   C26   1.551655 S    
O4    C8    1.331938 A    
O12   V4    2.014974 S    
C24   C40   1.551330 S    
H17   C33   1.113006 S    
C4    C29   1.523557 S    
C9    N1    1.464553 S    
C23   C27   1.551655 S    
C20   C28   1.555083 S    
C37   H29   1.112919 S    
H19   C35   1.113007 S    
C1    C32   1.523557 S    
C39   H31   1.112920 S    
C16   H8    1.113362 S    
C35   H43   1.113088 S    
C4    O14   1.335168 A    
C13   H5    1.113361 S    
C32   C40   1.556186 S    
C39   H35   1.113175 S    
C15   H7    1.113362 S    
C20   C36   1.554046 S    
C23   H27   1.112923 S    
C29   C33   1.552485 S    
C12   C28   1.577212 S    
C18   H38   1.113226 S    
