data_mof_unit_58974.cif
_audit_creation_date              2013-03-05T15:55:04-0500
_audit_creation_method            fapswitch 2.2
_symmetry_space_group_name_H-M    P1
_symmetry_Int_Tables_number       1
_space_group_crystal_system       triclinic
_cell_length_a                    15.005407
_cell_length_b                    14.858333
_cell_length_c                    14.856068
_cell_angle_alpha                 109.223819
_cell_angle_beta                  110.22692
_cell_angle_gamma                 109.253732
_cell_volume                      2540.38167244

loop_
_atom_site_label
_atom_site_type_symbol
_atom_site_description
_atom_site_fract_x
_atom_site_fract_y
_atom_site_fract_z
_atom_type_partial_charge
C1    C     C_R   0.186229 0.278337 0.253078 -0.140457
H1    H     H_    0.126672 0.303430 0.249795 0.102956
N1    N     N_R   0.291070 0.347930 0.293870 -0.043147
C2    C     C_R   0.524115 0.431109 0.745354 -0.142962
H2    H     H_    0.551024 0.373193 0.747653 0.101370
N2    N     N_R   0.554050 0.497220 0.706150 -0.040250
C3    C     C_R   0.505197 0.201034 0.408132 -0.126501
H3    H     H_    0.485754 0.154112 0.324311 0.136159
N3    N     N_R   0.497240 0.291100 0.443210 -0.042479
C4    C     C_R   0.297208 0.601433 0.592213 -0.146343
H4    H     H_    0.336159 0.666167 0.676642 0.107107
N4    N     N_R   0.347890 0.554050 0.556810 -0.041305
C5    C     C_R   0.595915 0.290752 0.591460 -0.147433
H5    H     H_    0.657418 0.323559 0.676106 0.090986
N5    N     N_R   0.554050 0.347900 0.556830 -0.041170
C6    C     C_R   0.201036 0.506430 0.408995 -0.152315
H6    H     H_    0.145491 0.476685 0.323439 0.115970
N6    N     N_R   0.291070 0.497250 0.443190 -0.041275
C7    C     C_R   0.434766 0.525228 0.748850 -0.090914
H7    H     H_    0.381239 0.556608 0.758316 0.096726
N7    N     N_R   0.497240 0.554030 0.706140 -0.040117
C8    C     C_R   0.276111 0.184706 0.249903 -0.122368
H8    H     H_    0.297375 0.120835 0.240073 0.091415
N8    N     N_R   0.347890 0.291110 0.293870 -0.041891
C9    C     C_R   0.173191 0.174317 0.224601 0.067278
C10   C     C_R   0.449013 0.446378 0.773379 0.056190
C11   C     C_R   0.566572 0.197729 0.499288 0.072428
C12   C     C_R   0.203990 0.573674 0.501678 0.076112
C13   C     C_R   0.474886 0.721490 0.407042 -0.144430
H9    H     H_    0.447905 0.697036 0.321466 0.113734
N9    N     N_R   0.445950 0.652100 0.443170 -0.041187
C14   C     C_R   0.811673 0.571881 0.592585 -0.181593
H10   H     H_    0.868943 0.637164 0.676512 0.151201
N10   N     N_R   0.708930 0.502750 0.556810 -0.059650
C15   C     C_R   0.494145 0.403445 0.195206 -0.109954
H11   H     H_    0.510546 0.337635 0.165972 0.164844
N11   N     N_R   0.502760 0.445970 0.293860 -0.054623
C16   C     C_R   0.707577 0.798897 0.805275 -0.151048
H12   H     H_    0.671275 0.845563 0.832534 0.136427
N12   N     N_R   0.652110 0.708890 0.706130 -0.042297
C17   C     C_R   0.799624 0.709102 0.806416 -0.136812
H13   H     H_    0.850400 0.676006 0.835356 0.108268
N13   N     N_R   0.708930 0.652070 0.706130 -0.042166
C18   C     C_R   0.404732 0.495960 0.194502 -0.135051
H14   H     H_    0.343513 0.518482 0.165149 0.090062
N14   N     N_R   0.445950 0.502780 0.293850 -0.044898
C19   C     C_R   0.564508 0.815508 0.591955 -0.116230
H15   H     H_    0.617721 0.879590 0.677781 0.104557
N15   N     N_R   0.502760 0.708900 0.556790 -0.041478
C20   C     C_R   0.724660 0.464425 0.409174 0.348838
N16   N     N_R   0.652110 0.445950 0.443190 -0.080994
Ni1   Ni    Ni4+2 0.369690 0.500010 0.369700 0.207935
Ni2   Ni    Ni4+2 0.630310 0.499990 0.630300 0.211013
Ni3   Ni    Ni4+2 0.500000 0.369720 0.369720 0.254731
Ni4   Ni    Ni4+2 0.500000 0.630280 0.630280 0.231078
C21   C     C_R   0.549329 0.825725 0.498667 0.067570
C22   C     C_R   0.827843 0.547289 0.503681 -0.105364
C23   C     C_R   0.433871 0.433872 0.130583 0.046018
C24   C     C_R   0.801067 0.801998 0.870864 0.067258
H16   H     H_    0.047800 0.526396 0.045598 0.098648
C25   C     C_R   0.127801 0.638448 0.220495 -0.118006
H17   H     H_    0.194560 0.697790 0.222279 0.104272
C26   C     C_R   0.125371 0.657286 0.318100 -0.136917
H18   H     H_    0.191587 0.731065 0.395532 0.116219
C27   C     C_R   0.038456 0.579844 0.315572 0.101347
C28   C     C_R   0.953595 0.484768 0.213963 -0.151926
H19   H     H_    0.886950 0.423415 0.210460 0.181808
C29   C     C_R   0.956931 0.465915 0.116999 -0.125204
H20   H     H_    0.892370 0.391431 0.039472 0.126209
C30   C     C_R   0.044427 0.542271 0.120434 -0.108802
C31   C     C_R   0.946678 0.590658 0.425766 -0.176313
H21   H     H_    0.881819 0.585608 0.359327 0.174281
C32   C     C_R   0.936513 0.588036 0.515262 0.087755
C33   C     C_R   0.030835 0.619168 0.612252 0.028948
C34   C     C_R   0.124294 0.632844 0.608816 -0.236788
H22   H     H_    0.191871 0.649376 0.682000 0.133237
C35   C     C_R   0.124161 0.606571 0.509440 0.058439
C36   C     C_R   0.038279 0.594629 0.419016 0.003859
C37   C     C_R   0.092915 0.736046 0.810112 -0.158754
H23   H     H_    0.128485 0.808624 0.804064 0.123888
C38   C     C_R   0.102032 0.748241 0.910726 -0.109739
H24   H     H_    0.144292 0.829738 0.981786 0.114676
C39   C     C_R   0.056267 0.655340 0.919558 -0.125601
H25   H     H_    0.062615 0.665542 0.997391 0.108110
C40   C     C_R   0.002463 0.549888 0.828129 -0.125700
H26   H     H_    0.967469 0.478023 0.835316 0.105554
C41   C     C_R   0.993889 0.537229 0.727380 -0.130730
H27   H     H_    0.952462 0.455364 0.657037 0.125532
C42   C     C_R   0.037313 0.630488 0.717374 0.099697
C43   C     C_R   0.434883 0.331921 0.865619 0.088381
C44   C     C_R   0.399934 0.395084 0.826079 0.039492
C45   C     C_R   0.332876 0.427326 0.859297 -0.177271
H28   H     H_    0.294187 0.466594 0.823882 0.126692
C46   C     C_R   0.331380 0.427418 0.953075 -0.186171
H29   H     H_    0.291584 0.466470 0.985509 0.122521
C47   C     C_R   0.395661 0.393785 0.012507 0.062085
C48   C     C_R   0.434642 0.333776 0.959288 0.065933
C49   C     C_3   0.539822 0.332641 0.002899 -0.426947
C50   C     C_3   0.539436 0.327027 0.899397 -0.199027
H30   H     H_    0.607884 0.412047 0.078282 0.223041
H31   H     H_    0.529674 0.257640 0.008990 0.227580
H32   H     H_    0.612234 0.399322 0.918760 0.158344
C51   C     C_R   0.556396 0.929135 0.396444 0.175267
C52   C     C_R   0.596290 0.927588 0.496036 0.023839
C53   C     C_R   0.666944 0.029606 0.595319 -0.191026
H33   H     H_    0.707456 0.034234 0.674033 0.133004
C54   C     C_R   0.670512 0.125179 0.595931 -0.202741
H34   H     H_    0.713475 0.199470 0.675101 0.128398
C55   C     C_R   0.604251 0.118360 0.497023 0.029599
C56   C     C_R   0.560634 0.023563 0.397038 0.204464
C57   C     C_3   0.451930 0.960183 0.292094 -0.521105
C58   C     C_3   0.446805 0.857175 0.291691 -0.532261
H35   H     H_    0.387169 0.973951 0.303543 0.188015
H36   H     H_    0.459440 0.967268 0.222532 0.220915
H37   H     H_    0.379845 0.814425 0.304060 0.191496
H38   H     H_    0.450257 0.804241 0.221354 0.208364
C59   C     C_R   0.967659 0.068377 0.136181 0.094512
C60   C     C_R   0.069420 0.072113 0.172134 0.037351
C61   C     C_R   0.067035 0.970475 0.138010 -0.191671
H39   H     H_    0.141076 0.966181 0.170833 0.119364
C62   C     C_R   0.971601 0.874682 0.046535 -0.173117
H40   H     H_    0.976350 0.801044 0.013519 0.125855
C63   C     C_R   0.878759 0.880633 0.989391 0.019318
C64   C     C_R   0.873746 0.973677 0.045293 0.079501
C65   C     C_3   0.825519 0.036757 0.006447 0.167357
C66   C     C_3   0.927592 0.141121 0.107643 -0.341779
H41   H     H_    0.818650 0.028554 0.926804 0.029900
H42   H     H_    0.976124 0.194173 0.084733 0.127002
N17   N     N_R   0.705432 0.382121 0.309568 0.219863
O1    O     O_R   0.729524 0.408043 0.242524 -0.489818
O2    O     O_R   0.645334 0.278748 0.275956 -0.418570
N18   N     N_3   0.523189 0.220957 0.826641 -0.176347
H43   H     H_    0.451893 0.156194 0.808685 0.145068
H44   H     H_    0.510669 0.216140 0.751187 0.104734
N19   N     N_R   0.724024 0.018174 0.008277 0.258621
O3    O     O_R   0.678668 0.946531 0.033500 -0.388945
O4    O     O_R   0.675103 0.069667 0.978214 -0.393195
N20   N     N_3   0.904771 0.199349 0.189791 -0.136817
H45   H     H_    0.877704 0.248192 0.165246 0.166236
H46   H     H_    0.977792 0.252947 0.266064 0.117171

loop_
_geom_bond_atom_site_label_1
_geom_bond_atom_site_label_2
_geom_bond_distance
_ccdc_geom_bond_type
C25   C30   1.397538 A    
C6    C12   1.385192 A    
C28   C29   1.396202 A    
C41   H27   1.083109 S    
C26   C27   1.405094 A    
C54   C55   1.408283 A    
C17   H13   1.080281 S    
C7    H7    1.078966 S    
N9    Ni1   1.847745 S    
C9    C60   1.469725 S    
C38   H24   1.082475 S    
N6    Ni1   1.863757 S    
C63   C64   1.400831 A    
C19   N15   1.339020 A    
C35   C36   1.411369 A    
C53   C54   1.400174 A    
N10   N16   1.371339 A    
C50   N18   1.467718 S    
C51   C56   1.380315 A    
N5    Ni2   1.847745 S    
C33   C42   1.479157 S    
C15   N11   1.330133 A    
C59   C64   1.383590 A    
C16   H12   1.076213 S    
N8    Ni3   1.854806 S    
N14   Ni1   1.863331 S    
C3    C11   1.376845 A    
C3    N3    1.328851 A    
C1    H1    1.068477 S    
C32   C33   1.418622 A    
C22   C32   1.463373 S    
C25   C26   1.399390 A    
C7    C10   1.394121 A    
C23   C47   1.466898 S    
C56   C57   1.496583 S    
C60   C61   1.409442 A    
N13   Ni2   1.847564 S    
N12   N13   1.383626 A    
C15   H11   1.076242 S    
C18   C23   1.385713 A    
C6    H6    1.077088 S    
C8    C9    1.397624 A    
C54   H34   1.081138 S    
N19   O3    1.303066 A    
C59   C66   1.504500 S    
C43   C48   1.384008 A    
C29   C30   1.395242 A    
C65   N19   1.467194 S    
C61   C62   1.399890 A    
C28   H19   1.079529 S    
C5    H5    1.080659 S    
C1    C9    1.385201 A    
C17   N13   1.340103 A    
N1    N8    1.383628 A    
C25   H17   1.079514 S    
C14   C22   1.378068 A    
N9    N15   1.371340 A    
C52   C53   1.408465 A    
C38   C39   1.396633 A    
C18   N14   1.341683 A    
C48   C49   1.492860 S    
C40   C41   1.399148 A    
C24   C63   1.467043 S    
C64   C65   1.499973 S    
C62   C63   1.407905 A    
C33   C34   1.370761 A    
C26   H18   1.083113 S    
C3    H3    1.079247 S    
C17   C24   1.384923 A    
C2    N2    1.331371 A    
N20   H45   1.044440 S    
C44   C45   1.411075 A    
C31   C32   1.401044 A    
C29   H20   1.082510 S    
C10   C44   1.468899 S    
C40   H26   1.082306 S    
N2    N7    1.383382 A    
C37   H23   1.083179 S    
C51   C58   1.498126 S    
C1    N1    1.329152 A    
C14   N10   1.320576 A    
C34   H22   1.080811 S    
C13   H9    1.074736 S    
C20   N17   1.431366 S    
C19   H15   1.079363 S    
H16   C30   1.080886 S    
C61   H39   1.081123 S    
N12   Ni4   1.854805 S    
C47   C48   1.400635 A    
C45   C46   1.400644 A    
C20   N16   1.338114 A    
C57   H35   1.112479 S    
C46   C47   1.406861 A    
C12   C35   1.460021 S    
C34   C35   1.396386 A    
C21   C52   1.464046 S    
C62   H40   1.079354 S    
C4    N4    1.317775 A    
N11   Ni3   1.843232 S    
C6    N6    1.339572 A    
C39   C40   1.399188 A    
C49   C50   1.510106 S    
C49   H30   1.110667 S    
C15   C23   1.378097 A    
C65   C66   1.522137 S    
C8    N8    1.340419 A    
C39   H25   1.080718 S    
N2    Ni2   1.863331 S    
C43   C50   1.507759 S    
C58   H38   1.111868 S    
C18   H14   1.080659 S    
N7    Ni4   1.843234 S    
N17   O1    1.296481 A    
C4    C12   1.374405 A    
N19   O4    1.300945 A    
C66   N20   1.464317 S    
C66   H42   1.112214 S    
C27   C36   1.480153 S    
C57   C58   1.504812 S    
C7    N7    1.337940 A    
C20   C22   1.409137 A    
C2    H2    1.069426 S    
C2    C10   1.387669 A    
N1    Ni1   1.847564 S    
N20   H46   1.044270 S    
C13   C21   1.385157 A    
C49   H31   1.112311 S    
C53   H33   1.081508 S    
C37   C38   1.396304 A    
N16   Ni3   1.855307 S    
C14   H10   1.070928 S    
C5    N5    1.340264 A    
N3    N5    1.371339 A    
C31   H21   1.079753 S    
C13   N9    1.330379 A    
N15   Ni4   1.843229 S    
C59   C60   1.407339 A    
C16   N12   1.331077 A    
C43   C44   1.405504 A    
C45   H28   1.081005 S    
N18   H43   1.047066 S    
C57   H36   1.111803 S    
C31   C36   1.395894 A    
C46   H29   1.081115 S    
C37   C42   1.404759 A    
N4    Ni4   1.855307 S    
C4    H4    1.080661 S    
C16   C24   1.379193 A    
C50   H32   1.111415 S    
C11   C55   1.462268 S    
N10   Ni2   1.863760 S    
N18   H44   1.043846 S    
C27   C28   1.405701 A    
N4    N6    1.371339 A    
C51   C52   1.402493 A    
C65   H41   1.112567 S    
C41   C42   1.404961 A    
C8    H8    1.079068 S    
C5    C11   1.383725 A    
N3    Ni3   1.843230 S    
N11   N14   1.383380 A    
C55   C56   1.400253 A    
C58   H37   1.109226 S    
C19   C21   1.392364 A    
N17   O2    1.300693 A    
