data_mof_unit_59223.cif
_audit_creation_date              2012-12-10T20:30:15-0500
_audit_creation_method            fapswitch 2.2
_symmetry_space_group_name_H-M    P1
_symmetry_Int_Tables_number       1
_space_group_crystal_system       triclinic
_cell_length_a                    9.887207
_cell_length_b                    10.749229
_cell_length_c                    13.160402
_cell_angle_alpha                 89.987041
_cell_angle_beta                  69.291873
_cell_angle_gamma                 89.133329
_cell_volume                      1308.1526448

loop_
_atom_site_label
_atom_site_type_symbol
_atom_type_description
_atom_site_fract_x
_atom_site_fract_y
_atom_site_fract_z
_atom_type_partial_charge
C1    C     C_R   0.499670 0.740283 0.499300 0.932214
C2    C     C_R   0.364209 0.507842 0.823372 -0.065211
C3    C     C_R   0.366773 0.939725 0.536991 0.120791
C4    C     C_R   0.418876 0.504683 0.704520 0.881462
C5    C     C_R   0.496966 0.872861 0.507733 -0.129446
C6    C     C_R   0.624472 0.934828 0.499560 -0.126523
C7    C     C_R   0.624439 0.063019 0.504069 -0.223323
C8    C     C_R   0.496953 0.129295 0.515598 -0.110923
C9    C     C_R   0.367106 0.066981 0.540720 0.126913
C10   C     C_3   0.250921 0.081101 0.493765 -0.451319
C11   C     C_3   0.251022 0.940722 0.488620 -0.490332
C12   C     C_R   0.433600 0.496241 0.982719 0.064980
C13   C     C_R   0.967981 0.547483 0.415008 0.142244
C14   C     C_R   0.890727 0.443842 0.581954 -0.098471
C15   C     C_R   0.034458 0.443954 0.581996 -0.139382
C16   C     C_R   0.499891 0.260357 0.502559 0.879014
C17   C     C_R   0.110822 0.546695 0.415271 0.230564
C18   C     C_3   0.135037 0.677152 0.378576 -0.558978
C19   C     C_3   0.981439 0.680478 0.379359 -0.256903
C20   C     C_R   0.580613 0.495729 0.295601 0.881227
C21   C     C_R   0.784139 0.586434 0.009547 -0.179867
C22   C     C_R   0.630129 0.497325 0.177552 -0.071614
C23   C     C_R   0.454923 0.546965 0.879287 0.015613
C24   C     C_R   0.233804 0.448913 0.879606 -0.209903
C25   C     C_R   0.200812 0.416551 0.987561 -0.130231
C26   C     C_R   0.301462 0.435073 0.037764 -0.105801
C27   C     C_2   0.973593 0.700340 0.268512 0.945160
C28   C     C_2   0.557417 0.733005 0.760004 0.935676
C29   C     C_R   0.544704 0.509976 0.026549 0.084296
C30   C     C_R   0.673070 0.574016 0.967197 0.138675
C31   C     C_R   0.683309 0.635294 0.871826 -0.307609
C32   C     C_R   0.569123 0.631783 0.833175 -0.032196
C33   C     C_R   0.530146 0.466285 0.129594 -0.240419
C34   C     C_R   0.761758 0.548970 0.115350 -0.175266
H1    H     H_    0.841895 0.567879 0.150938 0.187528
H2    H     H_    0.222411 0.685025 0.297778 0.235348
H3    H     H_    0.909083 0.743397 0.442953 0.168100
H4    H     H_    0.774380 0.695233 0.833376 0.185179
H5    H     H_    0.883459 0.633259 0.964054 0.150153
H6    H     H_    0.436046 0.416649 0.178587 0.146707
H7    H     H_    0.161213 0.421590 0.838560 0.152306
H8    H     H_    0.271252 0.400937 0.119528 0.134498
H9    H     H_    0.100434 0.370132 0.030702 0.151167
H10   H     H_    0.725672 0.885579 0.484423 0.193605
H11   H     H_    0.064170 0.669268 0.106886 0.341694
H12   H     H_    0.725752 0.109395 0.490840 0.177187
H13   H     H_    0.425288 0.857266 0.725371 0.335054
H14   H     H_    0.149710 0.121743 0.553101 0.203001
H15   H     H_    0.288846 0.125267 0.412247 0.210854
H16   H     H_    0.148609 0.901545 0.545068 0.211166
H17   H     H_    0.290341 0.904770 0.403746 0.210067
H18   H     H_    0.806674 0.399938 0.647979 0.153573
H19   H     H_    0.058277 0.400459 0.648021 0.140455
H20   H     H_    0.148092 0.735272 0.443038 0.207235
N1    N     N_R   0.856940 0.500860 0.500710 -0.113170
N2    N     N_R   0.142580 0.500820 0.500710 -0.105993
O1    O     O_R   0.385310 0.683210 0.499990 -0.614150
O2    O     O_R   0.073741 0.641264 0.177635 -0.826246
O3    O     O_2   0.666195 0.781506 0.697507 -0.648488
O4    O     O_R   0.420614 0.778491 0.768455 -0.826404
O5    O     O_R   0.614650 0.683240 0.500000 -0.598015
O6    O     O_R   0.328390 0.499940 0.653610 -0.610957
O7    O     O_R   0.557730 0.499980 0.653620 -0.626429
O8    O     O_R   0.385350 0.316760 0.500000 -0.623175
O9    O     O_R   0.614690 0.316790 0.500010 -0.624096
O10   O     O_R   0.442270 0.500020 0.346380 -0.616301
O11   O     O_R   0.671610 0.500060 0.346390 -0.613027
O12   O     O_2   0.881926 0.771481 0.257910 -0.644918
Zn1   Zn    Zn3+2 0.346870 0.499980 0.499990 0.949305
Zn2   Zn    Zn3+2 0.653130 0.500020 0.500010 0.972073

loop_
_geom_bond_atom_site_label_1
_geom_bond_atom_site_label_2
_ccdc_geom_bond_type
O5    Zn2   S    
C2    C4    S    
O7    Zn2   S    
C6    C7    A    
C3    C9    A    
C1    O1    A    
C12   C29   A    
C19   C27   S    
C21   C30   A    
C20   O11   A    
C31   C32   A    
C21   H5    S    
C31   H4    S    
C13   C17   A    
C3    C5    A    
O11   Zn2   S    
C23   C32   A    
C25   H9    S    
C14   N1    A    
C25   C26   A    
C7    C8    A    
C8    C16   S    
C11   H16   S    
C6    H10   S    
O8    Zn1   S    
C15   N2    A    
C10   H14   S    
C24   H7    S    
C17   N2    A    
C29   C30   A    
C19   H3    S    
C1    C5    S    
C5    C6    A    
C15   H19   S    
C4    O7    A    
C20   C22   S    
C17   C18   S    
O6    Zn1   S    
C28   O4    S    
C2    C24   A    
C30   C31   A    
C22   C34   A    
H11   O2    S    
O10   Zn1   S    
C11   H17   S    
C10   C11   S    
C18   H20   S    
O9    Zn2   S    
N1    Zn2   S    
C7    H12   S    
C4    O6    A    
C28   C32   S    
C3    C11   S    
C24   C25   A    
C26   H8    S    
C34   H1    S    
C9    C10   S    
C28   O3    D    
C20   O10   A    
C2    C23   A    
N2    Zn1   S    
C22   C33   A    
C33   H6    S    
C14   C15   A    
C18   C19   S    
C13   C19   S    
C12   C23   A    
C16   O9    A    
C16   O8    A    
C27   O12   D    
O1    Zn1   S    
H13   O4    S    
C10   H15   S    
C18   H2    S    
C21   C34   A    
C14   H18   S    
C29   C33   A    
C12   C26   A    
C8    C9    A    
C13   N1    A    
C27   O2    S    
C1    O5    A    
