data_mof_unit_50342.cif
_audit_creation_date              2013-03-05T15:51:40-0500
_audit_creation_method            fapswitch 2.2
_symmetry_space_group_name_H-M    P1
_symmetry_Int_Tables_number       1
_space_group_crystal_system       triclinic
_cell_length_a                    10.63763
_cell_length_b                    10.88207
_cell_length_c                    9.609085
_cell_angle_alpha                 91.670732
_cell_angle_beta                  89.271273
_cell_angle_gamma                 93.338956
_cell_volume                      1109.9142222

loop_
_atom_site_label
_atom_site_type_symbol
_atom_site_description
_atom_site_fract_x
_atom_site_fract_y
_atom_site_fract_z
_atom_type_partial_charge
O1    O     O_R   0.499990 0.319640 0.618810 -0.551461
O2    O     O_R   0.500000 0.319660 0.381240 -0.518537
C1    C     C_R   0.507479 0.263055 0.497361 0.848085
O3    O     O_R   0.316850 0.499960 0.618770 -0.555378
O4    O     O_R   0.316860 0.499980 0.381190 -0.576174
C2    C     C_R   0.259675 0.499861 0.500855 0.871977
Cu1   Cu    Cu3+1 0.499990 0.499990 0.640660 0.988179
Cu2   Cu    Cu3+1 0.500010 0.500010 0.359340 1.022542
O5    O     O_R   0.500000 0.680340 0.618760 -0.623828
O6    O     O_R   0.500010 0.680360 0.381190 -0.614636
O7    O     O_R   0.683140 0.500020 0.618810 -0.596400
O8    O     O_R   0.683150 0.500040 0.381230 -0.567194
C3    C     C_R   0.496627 0.737867 0.503115 0.780750
C4    C     C_R   0.740371 0.499277 0.499166 0.786341
C5    C     C_3   0.039073 0.512849 0.632971 -0.081439
C6    C     C_3   0.951163 0.404718 0.575903 -0.182281
H1    H     H_    0.909003 0.327615 0.637357 0.191738
H2    H     H_    0.073190 0.524588 0.741528 0.203002
C7    C     C_3   0.877063 0.498217 0.497914 -0.132438
C8    C     C_3   0.962998 0.606232 0.554972 -0.221055
C9    C     C_3   0.049500 0.593322 0.424482 -0.254796
C10   C     C_3   0.962777 0.485076 0.370764 0.336265
C11   C     C_3   0.037353 0.392075 0.446152 0.224314
C12   C     C_3   0.123057 0.499556 0.502434 -0.121896
H3    H     H_    0.929587 0.693730 0.600168 0.159930
H4    H     H_    0.091706 0.669718 0.361932 0.188057
C13   C     C_R   0.640515 0.137468 0.711237 -0.191617
H5    H     H_    0.684131 0.227138 0.689059 0.170721
C14   C     C_R   0.661929 0.087200 0.840522 0.382855
C15   C     C_R   0.604208 0.972144 0.869573 -0.183179
H6    H     H_    0.609368 0.935283 0.972621 0.189209
C16   C     C_R   0.541270 0.902172 0.765124 -0.223682
H7    H     H_    0.494458 0.817142 0.796672 0.192640
C17   C     C_R   0.533137 0.946405 0.628650 0.103783
C18   C     C_R   0.565365 0.072141 0.610119 0.013539
C19   C     C_R   0.520800 0.129634 0.491830 -0.193918
C20   C     C_R   0.473495 0.056704 0.377764 0.357011
H8    H     H_    0.433472 0.875356 0.296256 0.192358
C21   C     C_R   0.464699 0.929779 0.387003 -0.252467
C22   C     C_R   0.493764 0.872756 0.510070 -0.148049
H9    H     H_    0.352552 0.365215 0.128931 0.207922
C23   C     C_R   0.674499 0.658523 0.146371 -0.089044
H10   H     H_    0.679606 0.669267 0.256325 0.183607
C24   C     C_R   0.762988 0.732387 0.075231 -0.116959
H11   H     H_    0.830189 0.792476 0.132201 0.181631
C25   C     C_R   0.764062 0.730918 0.931715 -0.176124
H12   H     H_    0.831302 0.790711 0.876478 0.166668
C26   C     C_R   0.674985 0.657475 0.858599 -0.138836
H13   H     H_    0.676889 0.670636 0.749475 0.194181
C27   C     C_R   0.586067 0.577439 0.926452 0.160422
C28   C     C_R   0.585984 0.577572 0.075941 0.210618
N1    N     N_R   0.501210 0.501210 0.147910 -0.228321
C29   C     C_R   0.418818 0.425859 0.073677 0.014538
C30   C     C_R   0.418498 0.425148 0.926382 0.346293
N2    N     N_R   0.501250 0.501290 0.852040 -0.236021
Br1   Br    Br    0.297846 0.312131 0.837921 -0.381555
N3    N     N_R   0.920955 0.467073 0.227558 0.148292
O9    O     O_R   0.965398 0.539972 0.131631 -0.350860
O10   O     O_R   0.847185 0.371890 0.193197 -0.228645
Br2   Br    Br    0.093180 0.238219 0.367783 -0.357151
N4    N     N_R   0.436309 0.108632 0.250224 0.126382
O11   O     O_R   0.326250 0.076708 0.198848 -0.310178
O12   O     O_R   0.521734 0.160606 0.169740 -0.305643
N5    N     N_R   0.738770 0.154147 0.942588 0.160339
O13   O     O_R   0.771909 0.101278 0.055144 -0.293550
O14   O     O_R   0.780855 0.266802 0.921016 -0.300878

loop_
_geom_bond_atom_site_label_1
_geom_bond_atom_site_label_2
_geom_bond_distance
_ccdc_geom_bond_type
C5    H2    1.110230 S    
C20   N4    1.434045 S    
C11   C12   1.530722 S    
C14   C15   1.396078 A    
O4    Cu2   1.956888 S    
C19   C20   1.414650 A    
Cu2   N1    2.031944 S    
C7    C8    1.538795 S    
Cu1   N2    2.031015 S    
C23   C28   1.416138 A    
Cu2   O8    1.962136 S    
C27   N2    1.380852 A    
C2    C12   1.452987 S    
C16   H7    1.074668 S    
N4    O11   1.300933 A    
C10   N3    1.455885 S    
C26   C27   1.414155 A    
O2    C1    1.295704 A    
C14   N5    1.438806 S    
Cu1   Cu2   2.703231 S    
C20   C21   1.384281 A    
N5    O14   1.301843 A    
C25   H12   1.083041 S    
C29   C30   1.415210 A    
N1    C29   1.359203 A    
Cu1   O7    1.956887 S    
H9    C29   1.082142 S    
N3    O9    1.300135 A    
C15   H6    1.082363 S    
C23   C24   1.388159 A    
C1    C19   1.466352 S    
O3    Cu1   1.962137 S    
C17   C22   1.426836 A    
O4    C2    1.294008 A    
N5    O13   1.301787 A    
O3    C2    1.292711 A    
C26   H13   1.062224 S    
C9    H4    1.110305 S    
O8    C4    1.293654 A    
C27   C28   1.436407 A    
C6    C11   1.545850 S    
C25   C26   1.387891 A    
C6    C7    1.539836 S    
C11   Br2   1.937491 S    
O7    C4    1.294089 A    
C30   Br1   1.914492 S    
N3    O10   1.299866 A    
C13   C14   1.398494 A    
C8    H3    1.110369 S    
C28   N1    1.382882 A    
C15   C16   1.395887 A    
C21   C22   1.397699 A    
C7    C10   1.523560 S    
H8    C21   1.084346 S    
C8    C9    1.553752 S    
Cu2   O6    1.967684 S    
C17   C18   1.406911 A    
C23   H10   1.061346 S    
C9    C12   1.538493 S    
C13   H5    1.081542 S    
Cu1   O5    1.979915 S    
O5    C3    1.293147 A    
C10   C11   1.526185 S    
C5    C12   1.538974 S    
C3    C22   1.469517 S    
C30   N2    1.380328 A    
C13   C18   1.414864 A    
C9    C10   1.534641 S    
O1    Cu1   1.967684 S    
C4    C7    1.454692 S    
O6    C3    1.313140 A    
N4    O12   1.300589 A    
O2    Cu2   1.979917 S    
C24   H11   1.083010 S    
C5    C6    1.551466 S    
C6    H1    1.110028 S    
C24   C25   1.378587 A    
C5    C8    1.550790 S    
O1    C1    1.307245 A    
C18   C19   1.413458 A    
C16   C17   1.415440 A    
