data_mof_unit_38490.cif
_audit_creation_date              2012-12-10T17:03:45-0500
_audit_creation_method            fapswitch 2.2
_symmetry_space_group_name_H-M    P1
_symmetry_Int_Tables_number       1
_space_group_crystal_system       triclinic
_cell_length_a                    10.033371
_cell_length_b                    10.746811
_cell_length_c                    13.293617
_cell_angle_alpha                 90.037064
_cell_angle_beta                  71.36501
_cell_angle_gamma                 90.059134
_cell_volume                      1358.25800048

loop_
_atom_site_label
_atom_site_type_symbol
_atom_type_description
_atom_site_fract_x
_atom_site_fract_y
_atom_site_fract_z
_atom_type_partial_charge
C1    C     C_R   0.501069 0.737301 0.498005 0.922100
C2    C     C_R   0.383478 0.549658 0.815266 -0.159920
C3    C     C_2   0.612017 0.066998 0.501411 -0.163907
C4    C     C_R   0.424588 0.515189 0.702119 0.917406
C5    C     C_2   0.494118 0.131281 0.513654 -0.338492
C6    C     C_2   0.608888 0.933093 0.507676 -0.160778
C7    C     C_2   0.505215 0.868892 0.489099 -0.326921
C8    C     C_2   0.090943 0.409509 0.461807 -0.138269
C9    C     C_2   0.943712 0.413366 0.455606 -0.127203
C10   C     C_R   0.498858 0.262732 0.502723 0.938156
C11   C     C_R   0.576878 0.500744 0.297226 0.872048
C12   C     C_R   0.443250 0.551421 0.979660 -0.129246
C13   C     C_R   0.792914 0.479677 0.010828 -0.141931
C14   C     C_R   0.621515 0.506100 0.182847 -0.112222
C15   C     C_R   0.240973 0.562735 0.873157 -0.415098
C16   C     C_R   0.198448 0.571844 0.983579 0.492005
C17   C     C_R   0.295741 0.547728 0.036600 0.451237
C18   C     C_3   0.904607 0.424782 0.747539 -0.368151
C19   C     C_3   0.224252 0.387149 0.151173 -0.279299
C20   C     C_3   0.014827 0.706898 0.026036 -0.288014
C21   C     C_R   0.485765 0.563135 0.868068 -0.047800
C22   C     C_R   0.550732 0.537636 0.027439 0.038403
C23   C     C_R   0.692600 0.517801 0.963858 0.022734
C24   C     C_R   0.732543 0.543980 0.855747 0.481091
C25   C     C_R   0.630437 0.582184 0.812636 -0.228128
C26   C     C_R   0.523240 0.545847 0.136159 -0.181102
C27   C     C_R   0.755897 0.469833 0.120462 -0.172915
H1    H     H_    0.832714 0.437942 0.156275 0.191062
H2    H     H_    0.427421 0.587678 0.185968 0.221312
H3    H     H_    0.162014 0.561829 0.833448 0.219600
H4    H     H_    0.667394 0.623268 0.734500 0.187773
H5    H     H_    0.713083 0.112637 0.487204 0.166284
H6    H     H_    0.843722 0.404891 0.692657 0.190466
H7    H     H_    0.885025 0.350193 0.808604 0.153571
H8    H     H_    0.018097 0.421882 0.701428 0.215985
H9    H     H_    0.325580 0.337163 0.115413 0.149730
H10   H     H_    0.144954 0.355419 0.114225 0.163589
H11   H     H_    0.184396 0.361787 0.236305 0.184681
H12   H     H_    0.390903 0.088623 0.534686 0.147984
H13   H     H_    0.008355 0.717479 0.944514 0.177259
H14   H     H_    0.084967 0.779416 0.042025 0.152044
H15   H     H_    0.907777 0.722593 0.082534 0.199353
H16   H     H_    0.694656 0.887252 0.526261 0.171041
H17   H     H_    0.422945 0.911656 0.464396 0.148450
H18   H     H_    0.153037 0.327073 0.431473 0.153299
H19   H     H_    0.092724 0.579503 0.522449 0.180212
H20   H     H_    0.911825 0.337945 0.414050 0.150438
H21   H     H_    0.879736 0.566781 0.542791 0.173460
H22   H     H_    0.899749 0.458083 0.963256 0.203986
N1    N     N_2   0.148270 0.498670 0.498870 -0.188673
N2    N     N_2   0.852610 0.498640 0.498840 -0.195145
O1    O     O_R   0.386950 0.680940 0.500020 -0.619568
O2    O     O_3   0.242772 0.517312 0.142926 -0.596852
O3    O     O_3   0.058381 0.585859 0.042223 -0.602673
O4    O     O_R   0.613110 0.680900 0.499980 -0.620920
O5    O     O_R   0.330780 0.500000 0.653640 -0.612660
O6    O     O_R   0.556930 0.499960 0.653610 -0.629932
O7    O     O_R   0.386890 0.319100 0.500020 -0.623688
O8    O     O_R   0.613050 0.319060 0.499980 -0.615638
O9    O     O_R   0.443070 0.500040 0.346390 -0.602070
O10   O     O_R   0.669220 0.500000 0.346360 -0.602019
O11   O     O_3   0.872402 0.543795 0.793714 -0.632913
Zn1   Zn    Zn3+2 0.349000 0.500030 0.500020 0.947470
Zn2   Zn    Zn3+2 0.651000 0.499970 0.499980 0.937921

loop_
_geom_bond_atom_site_label_1
_geom_bond_atom_site_label_2
_ccdc_geom_bond_type
C12   C17   A    
C25   H4    S    
O10   Zn2   S    
C20   H15   S    
C23   C24   A    
C6    C7    D    
N1    Zn1   S    
C19   H11   S    
C8    N1    D    
C14   C27   A    
C18   H8    S    
H19   N1    S    
C2    C4    S    
C9    N2    D    
C6    H16   S    
C3    C6    S    
O4    Zn2   S    
C19   O2    S    
C2    C21   A    
C10   O8    A    
C1    O4    A    
O5    Zn1   S    
C5    C10   S    
C1    C7    S    
C7    H17   S    
C4    O5    A    
C2    C15   A    
C18   H7    S    
O8    Zn2   S    
C16   C17   A    
O6    Zn2   S    
O9    Zn1   S    
C13   H22   S    
C13   C27   A    
C10   O7    A    
C9    H20   S    
C19   H9    S    
C5    H12   S    
C3    H5    S    
C20   H13   S    
C1    O1    A    
C16   O3    S    
C11   O9    A    
C18   H6    S    
C15   C16   A    
C17   O2    S    
C27   H1    S    
C12   C22   A    
C24   C25   A    
C13   C23   A    
C15   H3    S    
C20   O3    S    
C22   C26   A    
C11   C14   S    
C21   C25   A    
C26   H2    S    
C18   O11   S    
C24   O11   S    
C19   H10   S    
C3    C5    D    
C8    H18   S    
C22   C23   A    
C12   C21   A    
H21   N2    S    
C14   C26   A    
N2    Zn2   S    
O7    Zn1   S    
C4    O6    A    
C20   H14   S    
C8    C9    S    
C11   O10   A    
O1    Zn1   S    
