data_mof_unit_67659.cif
_audit_creation_date              2012-12-10T19:42:32-0500
_audit_creation_method            fapswitch 2.2
_symmetry_space_group_name_H-M    P1
_symmetry_Int_Tables_number       1
_space_group_crystal_system       triclinic
_cell_length_a                    10.973211
_cell_length_b                    11.025833
_cell_length_c                    9.880323
_cell_angle_alpha                 98.770203
_cell_angle_beta                  97.925583
_cell_angle_gamma                 94.858439
_cell_volume                      1163.30200675

loop_
_atom_site_label
_atom_site_type_symbol
_atom_type_description
_atom_site_fract_x
_atom_site_fract_y
_atom_site_fract_z
_atom_type_partial_charge
C1    C     C_R   0.502417 0.262289 0.498915 0.779330
C2    C     C_R   0.502472 0.738263 0.500681 0.771500
C3    C     C_R   0.872222 0.506137 0.503636 -0.098930
C4    C     C_R   0.126182 0.494464 0.494158 -0.110412
C5    C     C_R   0.957340 0.519173 0.628299 0.025904
C6    C     C_R   0.040753 0.483633 0.368822 0.028165
C7    C     C_R   0.333741 0.087385 0.013867 -0.171316
C8    C     C_R   0.763592 0.940144 0.946596 -0.142193
C9    C     C_R   0.349805 0.049158 0.143041 -0.185667
C10   C     C_R   0.717606 0.959352 0.813686 -0.184004
C11   C     C_R   0.464255 0.076961 0.230074 0.136383
C12   C     C_R   0.591337 0.930095 0.762084 0.135965
C13   C     C_R   0.563311 0.139398 0.183217 -0.065996
C14   C     C_R   0.512232 0.885252 0.847525 -0.064778
C15   C     C_R   0.547272 0.176063 0.053210 -0.091611
C16   C     C_R   0.559471 0.859837 0.977354 -0.137172
C17   C     C_R   0.432072 0.150680 0.968933 -0.145060
C18   C     C_R   0.685571 0.886480 0.026691 -0.130896
C19   C     C_R   0.476341 0.915240 0.376493 -0.255512
C20   C     C_R   0.539865 0.086567 0.620239 -0.254702
C21   C     C_R   0.505735 0.873080 0.502809 -0.086327
C22   C     C_R   0.507373 0.128313 0.495013 -0.090757
C23   C     C_R   0.261585 0.496652 0.499049 0.775113
C24   C     C_R   0.737919 0.503413 0.500519 0.778814
C25   C     C_R   0.541737 0.961242 0.626132 0.008297
C26   C     C_R   0.481069 0.041202 0.369902 0.011129
C27   C     C_2   0.510795 0.510881 0.078431 -0.102798
C28   C     C_2   0.490881 0.487694 0.921578 -0.103690
C29   C     C_R   0.196443 0.539616 0.064264 -0.169733
C30   C     C_R   0.823409 0.492177 0.955620 -0.185168
C31   C     C_R   0.152553 0.556206 0.189517 -0.089086
C32   C     C_R   0.858844 0.462599 0.825944 -0.091905
C33   C     C_R   0.075606 0.462993 0.226924 0.077004
C34   C     C_R   0.924800 0.552148 0.769847 0.083826
C35   C     C_R   0.031361 0.354249 0.128077 0.093352
C36   C     C_R   0.965784 0.669965 0.851966 0.089249
C37   C     C_R   0.077745 0.337215 0.999379 0.151036
C38   C     C_R   0.946862 0.692056 0.992588 0.153985
C39   C     C_R   0.162806 0.430236 0.972338 -0.184485
C40   C     C_R   0.864734 0.606649 0.037118 -0.179487
C41   C     C_R   0.916508 0.494419 0.377453 -0.261390
C42   C     C_R   0.081482 0.508766 0.620122 -0.224973
Cu1   Cu    Cu3+1 0.521120 0.521140 0.639640 0.938560
Cu2   Cu    Cu3+1 0.478880 0.478860 0.360360 0.941917
H1    H     H_    0.206643 0.419163 0.881284 0.116121
H2    H     H_    0.833636 0.626365 0.136042 0.116219
H3    H     H_    0.651201 0.163632 0.249688 0.112216
H4    H     H_    0.414218 0.873463 0.816030 0.134757
H5    H     H_    0.623585 0.225270 0.018567 0.108650
H6    H     H_    0.497790 0.822478 0.040884 0.116186
H7    H     H_    0.452722 0.849712 0.280880 0.149900
H8    H     H_    0.567472 0.152537 0.715042 0.154081
H9    H     H_    0.422288 0.413668 0.866813 0.152313
H10   H     H_    0.580525 0.584131 0.133044 0.155207
H11   H     H_    0.617451 0.622549 0.903914 0.220938
H12   H     H_    0.383098 0.376857 0.096433 0.223279
H13   H     H_    0.261341 0.610117 0.040889 0.127736
H14   H     H_    0.765284 0.425242 0.994320 0.133185
H15   H     H_    0.186421 0.639093 0.262761 0.141695
H16   H     H_    0.828497 0.372077 0.765228 0.125998
H17   H     H_    0.852789 0.492640 0.283524 0.146058
H18   H     H_    0.145117 0.515929 0.714380 0.155560
H19   H     H_    0.418689 0.180144 0.869009 0.118352
H20   H     H_    0.721445 0.868696 0.128343 0.113553
H21   H     H_    0.245219 0.067559 0.948121 0.136874
H22   H     H_    0.858929 0.969898 0.987890 0.121565
H23   H     H_    0.272995 0.999325 0.175464 0.124369
H24   H     H_    0.779523 0.000220 0.752630 0.123070
N1    N     N_2   0.447120 0.447110 0.150550 -0.277241
N2    N     N_2   0.552880 0.552890 0.849450 -0.281859
O1    O     O_R   0.517830 0.337490 0.617920 -0.588276
O2    O     O_R   0.482170 0.662510 0.382080 -0.586836
O3    O     O_R   0.482150 0.301790 0.382070 -0.565743
O4    O     O_R   0.517850 0.698210 0.617930 -0.572360
O5    O     O_R   0.337480 0.517860 0.617920 -0.586440
O6    O     O_R   0.662520 0.482140 0.382080 -0.588005
O7    O     O_R   0.301810 0.482160 0.382070 -0.568783
O8    O     O_R   0.698190 0.517840 0.617930 -0.568509
C43   C     C_3   0.935897 0.258039 0.159568 -0.446538
C44   C     C_3   0.994046 0.180512 0.261368 -0.309526
C45   C     C_3   0.894553 0.114769 0.325767 -0.878100
H25   H     H_    0.850627 0.182990 0.392815 0.256090
H26   H     H_    0.823829 0.060196 0.243685 0.250798
H27   H     H_    0.935131 0.050559 0.389763 0.257050
H28   H     H_    0.043889 0.112138 0.202694 0.201376
H29   H     H_    0.061589 0.237593 0.345838 0.229562
H30   H     H_    0.857420 0.301345 0.197515 0.205934
H31   H     H_    0.889482 0.194463 0.065810 0.176251
C46   C     C_3   0.019391 0.773928 0.786211 -0.409199
C47   C     C_3   0.161137 0.780732 0.797293 -0.342362
C48   C     C_3   0.205198 0.792396 0.658793 -0.849255
H32   H     H_    0.136894 0.745509 0.569232 0.264452
H33   H     H_    0.225328 0.890860 0.649846 0.244362
H34   H     H_    0.290724 0.747415 0.651334 0.256010
H35   H     H_    0.203701 0.860617 0.876221 0.191095
H36   H     H_    0.196990 0.699544 0.835934 0.213806
H37   H     H_    0.973120 0.763752 0.677121 0.207967
H38   H     H_    0.993190 0.863499 0.834306 0.159761
C49   C     C_3   0.035783 0.220805 0.892893 -0.433403
C50   C     C_3   0.096979 0.211868 0.761837 -0.360879
C51   C     C_3   0.051541 0.092290 0.664296 -0.911049
H39   H     H_    0.073944 0.013046 0.715711 0.270722
H40   H     H_    0.949935 0.085935 0.631868 0.259112
H41   H     H_    0.099565 0.090941 0.572652 0.256546
H42   H     H_    0.073529 0.288634 0.706008 0.233469
H43   H     H_    0.199063 0.216210 0.789071 0.212675
H44   H     H_    0.053820 0.139236 0.943092 0.187989
H45   H     H_    0.934431 0.216468 0.859654 0.187705
C52   C     C_3   0.026655 0.796331 0.095351 -0.407633
C53   C     C_3   0.003224 0.807429 0.246566 -0.359537
C54   C     C_3   0.108061 0.886817 0.346608 -0.913070
H46   H     H_    0.195131 0.842418 0.350370 0.256460
H47   H     H_    0.126078 0.978698 0.318353 0.259365
H48   H     H_    0.080353 0.898884 0.450525 0.256251
H49   H     H_    0.914839 0.847301 0.256246 0.215480
H50   H     H_    0.995902 0.716555 0.280637 0.225131
H51   H     H_    0.124881 0.780777 0.092210 0.196483
H52   H     H_    0.017327 0.886795 0.063073 0.173334

loop_
_geom_bond_atom_site_label_1
_geom_bond_atom_site_label_2
_ccdc_geom_bond_type
C36   C46   S    
C38   C40   A    
C5    C42   A    
C8    H22   S    
C51   H39   S    
C54   H46   S    
C41   H17   S    
C43   H30   S    
C45   H25   S    
C27   H10   S    
C52   H51   S    
C47   H35   S    
Cu1   O8    S    
C40   H2    S    
C49   H45   S    
C50   H42   S    
C1    O1    A    
Cu2   O7    S    
C35   C37   A    
C16   H6    S    
C48   H33   S    
C20   C25   A    
C7    C9    A    
C31   H15   S    
Cu2   O6    S    
C19   C26   A    
C53   C54   S    
C44   H29   S    
C7    C17   A    
C6    C41   A    
C31   C33   A    
C42   H18   S    
C27   N1    D    
C39   H1    S    
Cu1   O4    S    
C1    C22   S    
C51   H40   S    
C3    C24   S    
C2    O2    A    
C43   H31   S    
C45   H26   S    
C52   H52   S    
Cu1   O5    S    
C37   C39   A    
C4    C6    A    
C23   O5    A    
C48   H32   S    
C13   H3    S    
C4    C23   S    
C24   O6    A    
C14   H4    S    
C11   C26   S    
C8    C18   A    
C46   H37   S    
C32   C34   A    
Cu1   Cu2   S    
C9    H23   S    
C44   H28   S    
C7    H21   S    
C49   C50   S    
C5    C34   S    
C29   C39   A    
C2    C21   S    
C30   C40   A    
Cu2   N1    S    
C54   H47   S    
C16   C18   A    
C23   O7    A    
C38   C52   S    
C9    C11   A    
C10   C12   A    
C24   O8    A    
C20   C22   A    
C51   H41   S    
C13   C15   A    
C14   C16   A    
C32   H16   S    
C53   H50   S    
C37   C49   S    
C45   H27   S    
C15   C17   A    
C21   C25   A    
C3    C41   A    
Cu1   O1    S    
C19   C21   A    
C28   N2    D    
C29   H13   S    
C44   C45   S    
C3    C5    A    
C2    O4    A    
C28   H9    S    
C47   H36   S    
C10   H24   S    
Cu1   N2    S    
C49   H44   S    
C12   C25   S    
C50   H43   S    
C6    C33   S    
C46   H38   S    
C20   H8    S    
C1    O3    A    
C36   C38   A    
C12   C14   A    
C29   C31   A    
C52   C53   S    
C17   H19   S    
C48   H34   S    
C30   C32   A    
C11   C13   A    
C18   H20   S    
C47   C48   S    
C4    C42   A    
C30   H14   S    
C35   C43   S    
C50   C51   S    
C33   C35   A    
Cu2   O2    S    
C54   H48   S    
C34   C36   A    
C15   H5    S    
Cu2   O3    S    
H11   N2    S    
C43   C44   S    
C19   H7    S    
C8    C10   A    
H12   N1    S    
C22   C26   A    
C27   C28   S    
C46   C47   S    
C53   H49   S    
