data_mof_unit_12688.cif
_audit_creation_date              2012-12-11T14:36:12-0500
_audit_creation_method            fapswitch 2.2
_symmetry_space_group_name_H-M    P1
_symmetry_Int_Tables_number       1
_space_group_crystal_system       triclinic
_cell_length_a                    13.620035
_cell_length_b                    13.563646
_cell_length_c                    27.398708
_cell_angle_alpha                 90.281115
_cell_angle_beta                  88.692293
_cell_angle_gamma                 59.935797
_cell_volume                      4378.68269799

loop_
_atom_site_label
_atom_site_type_symbol
_atom_type_description
_atom_site_fract_x
_atom_site_fract_y
_atom_site_fract_z
_atom_type_partial_charge
C1    C     C_R   0.617621 0.100129 0.570802 0.539602
C2    C     C_1   0.622715 0.743468 0.618356 -0.006683
C3    C     C_3   0.641654 0.611769 0.773565 0.273602
C4    C     C_3   0.673484 0.677888 0.809511 0.045428
C5    C     C_3   0.553674 0.722711 0.749247 -0.087841
C6    C     C_3   0.649882 0.709506 0.714066 -0.027639
C7    C     C_3   0.587379 0.788348 0.785371 0.290028
C8    C     C_3   0.680876 0.778663 0.749227 -0.095835
C9    C     C_1   0.686544 0.649839 0.861263 -0.005877
C10   C     C_1   0.637540 0.724283 0.661239 -0.049688
C11   C     C_3   0.083338 0.146037 0.743549 -0.151780
C12   C     C_R   0.597326 0.782255 0.569283 0.537698
C13   C     C_3   0.178371 0.057956 0.776282 -0.105028
C14   C     C_1   0.111965 0.192723 0.904159 0.023909
C15   C     C_1   0.219389 0.142850 0.616315 -0.004998
C16   C     C_3   0.071823 0.244541 0.776979 0.101911
C17   C     C_3   0.167284 0.156031 0.809053 -0.027137
C18   C     C_3   0.163645 0.251657 0.745731 0.268374
C19   C     C_3   0.173744 0.155604 0.712119 0.030033
C20   C     C_3   0.258899 0.165283 0.778233 -0.090084
C21   C     C_3   0.267298 0.069622 0.744607 0.277452
C22   C     C_1   0.147063 0.168331 0.862378 -0.019477
C23   C     C_R   0.274943 0.123176 0.569106 0.535296
C24   C     C_1   0.189087 0.152499 0.658683 -0.009239
C25   C     C_3   0.593828 0.273490 0.741028 -0.074426
C26   C     C_3   0.547541 0.236503 0.785196 0.076249
C27   C     C_1   0.697004 0.207988 0.902558 0.028289
C28   C     C_1   0.623989 0.127362 0.620568 -0.006307
C29   C     C_3   0.710254 0.218920 0.764791 0.316244
C30   C     C_3   0.664020 0.183827 0.808791 0.071847
C31   C     C_3   0.748742 0.103365 0.739658 -0.118096
C32   C     C_3   0.631974 0.157441 0.716062 -0.020307
C33   C     C_3   0.700256 0.068228 0.783716 -0.151960
C34   C     C_R   0.623292 0.098147 0.430899 0.557234
C35   C     C_3   0.583219 0.121021 0.759309 -0.104289
C36   C     C_1   0.680825 0.196531 0.860464 0.020312
C37   C     C_1   0.625730 0.143032 0.663656 -0.061005
C38   C     C_R   0.735585 0.706357 0.358080 -0.118011
C39   C     C_R   0.749129 0.688347 0.307252 -0.022250
C40   C     C_R   0.763119 0.671481 0.203852 -0.006822
C41   C     C_R   0.857982 0.654431 0.231139 0.289231
C42   C     C_R   0.849252 0.667208 0.282259 0.100415
C43   C     C_R   0.766762 0.661755 0.152214 0.051183
C44   C     C_R   0.678855 0.655006 0.128743 0.008922
C45   C     C_R   0.602929 0.774894 0.430443 0.556483
C46   C     C_R   0.561633 0.699502 0.356443 0.137597
C47   C     C_R   0.558736 0.712261 0.305797 0.049074
C48   C     C_R   0.656976 0.697905 0.280704 -0.037762
C49   C     C_R   0.458097 0.747269 0.280473 0.275712
C50   C     C_R   0.460868 0.754541 0.229499 -0.092595
C51   C     C_R   0.563939 0.717192 0.203526 -0.022929
C52   C     C_R   0.662054 0.693949 0.229334 -0.067442
C53   C     C_R   0.571992 0.700084 0.152513 0.246622
C54   C     C_R   0.639579 0.716419 0.382578 -0.018075
C55   C     C_R   0.189454 0.076457 0.360274 0.078031
C56   C     C_R   0.280859 0.120585 0.430021 0.575639
C57   C     C_R   0.170517 0.080582 0.309548 0.057887
C58   C     C_R   0.134414 0.090324 0.207491 0.029936
C59   C     C_R   0.110146 0.021155 0.237559 -0.128908
C60   C     C_R   0.124219 0.019559 0.287805 -0.086351
C61   C     C_R   0.110993 0.103259 0.157058 0.266367
C62   C     C_R   0.113598 0.194052 0.132198 0.005036
C63   C     C_R   0.249398 0.218600 0.349824 0.066983
C64   C     C_R   0.247334 0.208423 0.299135 -0.035823
C65   C     C_R   0.201514 0.145045 0.279200 0.006525
C66   C     C_R   0.292433 0.258535 0.267538 -0.065273
C67   C     C_3   0.736455 0.597527 0.737499 -0.064480
C68   C     C_R   0.280318 0.256969 0.217334 0.266032
C69   C     C_R   0.211467 0.217129 0.199149 -0.022935
C70   C     C_R   0.181776 0.151116 0.228724 -0.017232
C71   C     C_R   0.169661 0.245005 0.152400 -0.197097
C72   C     C_R   0.233254 0.142478 0.380409 0.015133
C73   C     C_R   0.575344 0.234702 0.363401 -0.163007
C74   C     C_R   0.578486 0.253139 0.313451 -0.019173
C75   C     C_R   0.580624 0.285811 0.212516 0.028502
C76   C     C_R   0.498705 0.373223 0.243179 0.107821
C77   C     C_R   0.500210 0.357724 0.293580 -0.100863
C78   C     C_3   0.767533 0.665947 0.773510 -0.150915
C79   C     C_R   0.594770 0.303601 0.163336 -0.169109
C80   C     C_R   0.671564 0.212174 0.133289 -0.033093
C81   C     C_R   0.732436 0.039697 0.351661 0.259768
C82   C     C_R   0.730452 0.055166 0.301369 0.025810
C83   C     C_R   0.654381 0.162230 0.282295 0.011514
C84   C     C_R   0.800049 0.963361 0.269710 -0.133324
C85   C     C_R   0.794158 0.976747 0.219644 -0.132603
C86   C     C_R   0.722607 0.083880 0.200348 0.008524
C87   C     C_R   0.653195 0.177606 0.231798 -0.008155
C88   C     C_R   0.721390 0.100054 0.150200 0.230165
C89   C     C_1   0.697008 0.616568 0.902431 0.015969
C90   C     C_R   0.648029 0.127161 0.382379 -0.002357
C91   C     C_R   0.052461 0.234520 0.950486 0.557511
C92   C     C_R   0.712039 0.563893 0.948789 0.557525
C93   C     C_R   0.724268 0.225752 0.950694 0.550399
C94   C     C_R   0.048770 0.242716 0.087830 0.545015
C95   C     C_R   0.705624 0.579309 0.085138 0.562757
C96   C     C_R   0.716984 0.233851 0.088648 0.550509
Cr1   Cr    Cr6+3 0.417550 0.169090 0.500530 1.073173
Cr2   Cr    Cr6+3 0.669180 0.913420 0.499920 1.059455
Cr3   Cr    Cr6+3 0.413260 0.917540 0.499520 1.097298
Cr4   Cr    Cr6+3 0.909170 0.177380 0.020380 1.050836
Cr5   Cr    Cr6+3 0.912710 0.429210 0.018220 1.077065
Cr6   Cr    Cr6+3 0.657170 0.432570 0.019030 1.033269
H1    H     H_    0.853912 0.645155 0.783894 0.124052
H2    H     H_    0.332091 0.169490 0.792473 0.159368
H3    H     H_    0.548230 0.357833 0.723493 0.127603
H4    H     H_    0.530132 0.080705 0.758128 0.154047
H5    H     H_    0.743804 0.984114 0.801540 0.128875
H6    H     H_    0.832036 0.048552 0.720723 0.113573
H7    H     H_    0.797577 0.519581 0.716680 0.131110
H8    H     H_    0.796678 0.716569 0.378721 0.195899
H9    H     H_    0.382112 0.789893 0.210555 0.157683
H10   H     H_    0.075114 0.971493 0.223766 0.117074
H11   H     H_    0.697428 0.848269 0.739094 0.112438
H12   H     H_    0.098331 0.969413 0.309031 0.132807
H13   H     H_    0.179874 0.307476 0.131772 0.174912
H14   H     H_    0.340349 0.295821 0.281127 0.178885
H15   H     H_    0.551615 0.388608 0.148981 0.157289
H16   H     H_    0.512467 0.302056 0.387105 0.168956
H17   H     H_    0.436534 0.425386 0.316887 0.165260
H18   H     H_    0.848380 0.903794 0.196287 0.201507
H19   H     H_    0.858103 0.880188 0.283386 0.193847
H20   H     H_    0.466825 0.744937 0.738771 0.135243
H21   H     H_    0.186828 0.976666 0.789133 0.115767
H22   H     H_    0.014380 0.134593 0.729085 0.137306
O1    O     O_R   0.301710 0.195650 0.554160 -0.491406
O2    O     O_R   0.658900 0.818120 0.449760 -0.493875
O3    O     O_R   0.503220 0.801620 0.445520 -0.455455
O4    O     O_R   0.319370 0.022040 0.450020 -0.458104
O5    O     O_3   0.499990 0.000010 0.499990 -0.280667
O6    O     O_R   0.818720 0.150820 0.967160 -0.507855
O7    O     O_R   0.006410 0.181720 0.970200 -0.494223
O8    O     O_R   0.027890 0.334070 0.964920 -0.486832
O9    O     O_R   0.809600 0.521790 0.967960 -0.480059
O10   O     O_R   0.635520 0.542770 0.964420 -0.506891
O11   O     O_R   0.665950 0.325030 0.970100 -0.488041
O12   O     O_R   0.522390 0.158990 0.550460 -0.494277
O13   O     O_R   0.816620 0.158530 0.074540 -0.496700
O14   O     O_R   0.004460 0.188870 0.069750 -0.478491
O15   O     O_R   0.025800 0.341780 0.072300 -0.512036
O16   O     O_R   0.807650 0.528950 0.067500 -0.479031
O17   O     O_R   0.633420 0.550490 0.071810 -0.504975
O18   O     O_R   0.664000 0.332180 0.069640 -0.518017
O19   O     O_3   0.826350 0.346390 0.019210 -0.265877
O20   O     O_R   0.694390 0.003530 0.554040 -0.509395
O21   O     O_R   0.657700 0.819660 0.549320 -0.498938
O22   O     O_R   0.501930 0.803280 0.552920 -0.498499
O23   O     O_R   0.318170 0.023580 0.549580 -0.495313
O24   O     O_R   0.303010 0.193990 0.446760 -0.478521
O25   O     O_R   0.523600 0.157450 0.450900 -0.496806
O26   O     O_R   0.695690 0.001860 0.446640 -0.458585
O27   O     O_3   0.160669 0.348274 0.725150 -0.554357
C97   C     C_3   0.125327 0.436192 0.760437 -0.082452
H23   H     H_    0.148831 0.405369 0.798338 0.158238
H24   H     H_    0.032373 0.493194 0.758771 0.137482
H25   H     H_    0.165721 0.487529 0.751250 0.162722
I1    I     I_    0.922204 0.377498 0.813193 -0.361581
I2    I     I_    0.392302 0.345197 0.824291 -0.493421
O28   O     O_3   0.779189 0.268890 0.766331 -0.500026
C98   C     C_3   0.791188 0.301496 0.718539 -0.075600
H26   H     H_    0.857739 0.325375 0.717798 0.153501
H27   H     H_    0.818573 0.230922 0.691215 0.080948
H28   H     H_    0.711326 0.377258 0.707247 0.146634
I3    I     I_    0.886285 0.682876 0.107039 -0.307828
O29   O     O_3   0.961184 0.623953 0.208680 -0.519753
C99   C     C_3   0.024653 0.504159 0.204326 -0.051602
H29   H     H_    0.981675 0.470442 0.181114 0.118232
H30   H     H_    0.041785 0.463129 0.240597 0.142784
H31   H     H_    0.107469 0.480477 0.186377 0.211342
I4    I     I_    0.995122 0.643903 0.320119 -0.343217
O30   O     O_3   0.476060 0.737565 0.124598 -0.552870
C100  C     C_3   0.430892 0.664021 0.128339 -0.056862
H32   H     H_    0.346128 0.709407 0.146916 0.152049
H33   H     H_    0.486419 0.583116 0.147275 0.123526
H34   H     H_    0.417396 0.641736 0.091042 0.168495
O31   O     O_3   0.355224 0.797266 0.306411 -0.541733
C101  C     C_3   0.293938 0.742216 0.295070 -0.071818
H35   H     H_    0.346915 0.648586 0.298878 0.171340
H36   H     H_    0.257391 0.765158 0.258272 0.129090
H37   H     H_    0.222205 0.770739 0.321860 0.179046
I5    I     I_    0.470577 0.627561 0.392186 -0.302879
O32   O     O_3   0.116577 0.014042 0.129653 -0.562459
C102  C     C_3   0.016353 0.008250 0.134464 -0.043314
H38   H     H_    0.992474 0.996684 0.097455 0.210429
H39   H     H_    0.943676 0.084331 0.152733 0.118973
H40   H     H_    0.033828 0.929798 0.153847 0.128746
I6    I     I_    0.142506 0.979378 0.407198 -0.374901
O33   O     O_3   0.332453 0.298460 0.186564 -0.546733
C103  C     C_3   0.417655 0.206866 0.158102 -0.102823
H41   H     H_    0.386130 0.157927 0.137630 0.115903
H42   H     H_    0.488072 0.147421 0.181331 0.129619
H43   H     H_    0.450924 0.241788 0.130038 0.149153
I7    I     I_    0.254951 0.366236 0.376718 -0.316266
I8    I     I_    0.355419 0.516942 0.214712 -0.457985
O34   O     O_3   0.781340 0.007463 0.118685 -0.567354
C104  C     C_3   0.702787 0.994294 0.090710 -0.088262
H44   H     H_    0.750299 0.924597 0.063461 0.176508
H45   H     H_    0.646974 0.072074 0.069877 0.099091
H46   H     H_    0.650577 0.970454 0.114302 0.123938
O35   O     O_3   0.514241 0.892425 0.809999 -0.542001
C105  C     C_3   0.434023 0.881021 0.839095 -0.090665
H47   H     H_    0.474647 0.823501 0.870047 0.106095
H48   H     H_    0.385566 0.851252 0.817379 0.115446
H49   H     H_    0.372454 0.965757 0.855017 0.150336
O36   O     O_3   0.807454 0.933500 0.369647 -0.554279
C106  C     C_3   0.907115 0.933417 0.382387 -0.074753
H50   H     H_    0.889127 0.000956 0.410214 0.145822
H51   H     H_    0.950728 0.943489 0.349605 0.115149
H52   H     H_    0.966011 0.850147 0.398604 0.186851
O37   O     O_3   0.628990 0.518008 0.786316 -0.522078
C107  C     C_3   0.521847 0.556460 0.809012 -0.092694
H53   H     H_    0.454399 0.591195 0.781531 0.110182
H54   H     H_    0.502626 0.620722 0.838535 0.100902
H55   H     H_    0.521770 0.482640 0.826097 0.191973
O38   O     O_3   0.369776 0.973511 0.728185 -0.552765
C108  C     C_3   0.428100 0.004620 0.693870 -0.093979
H56   H     H_    0.402540 0.096598 0.694896 0.117707
H57   H     H_    0.417544 0.979443 0.656673 0.134277
H58   H     H_    0.519693 0.956357 0.700788 0.137234

loop_
_geom_bond_atom_site_label_1
_geom_bond_atom_site_label_2
_ccdc_geom_bond_type
C3    O37   S    
C66   C68   A    
C100  H32   S    
C40   C41   A    
C99   H29   S    
O37   C107  S    
C11   C13   S    
C41   C42   A    
C83   C87   A    
C11   H22   S    
C33   H5    S    
C1    O20   A    
C74   C83   A    
C108  H56   S    
C2    C12   S    
C49   C50   A    
Cr6   O10   S    
C81   C82   A    
Cr5   O15   S    
Cr4   O7    S    
C25   H3    S    
C7    C8    S    
C47   C49   A    
C106  H50   S    
C100  H33   S    
C11   C19   S    
C95   O16   A    
C66   H14   S    
C103  H43   S    
C40   C52   A    
O29   C99   S    
C19   C21   S    
C73   C90   A    
C108  H57   S    
C107  H53   S    
C85   C86   A    
C5    C6    S    
C13   H21   S    
Cr4   O6    S    
C91   O7    A    
O30   C100  S    
C65   C70   A    
C17   C20   S    
C58   C70   A    
C26   I2    S    
C103  H42   S    
C18   C19   S    
C73   C74   A    
C55   I6    S    
C12   O22   A    
C69   C71   A    
C39   C42   A    
C102  H38   S    
C56   O4    A    
Cr6   O11   S    
C60   H12   S    
C44   C53   A    
C34   O25   A    
C101  H37   S    
C92   O9    A    
C68   O33   S    
C16   C17   S    
C56   C72   S    
C74   C77   A    
C30   C36   S    
C16   I1    S    
C1    C28   S    
O36   C106  S    
O27   C97   S    
C98   H27   S    
C18   O27   S    
Cr6   O17   S    
C38   H8    S    
C1    O12   A    
C18   C20   S    
C55   C72   A    
C23   O1    A    
C104  H46   S    
C25   C32   S    
C15   C23   S    
O34   C104  S    
C59   C60   A    
C99   H30   S    
C8    C78   S    
C94   O15   A    
C61   C62   A    
C67   C78   S    
C4    C7    S    
Cr5   O16   S    
C67   H7    S    
C50   C51   A    
C81   O36   S    
C76   C77   A    
C40   C43   A    
C25   C29   S    
C100  H34   S    
C92   O10   A    
Cr3   O5    S    
C71   H13   S    
C51   C52   A    
C32   C35   S    
C88   O34   S    
C47   C48   A    
C84   C85   A    
Cr1   O1    S    
C76   I8    S    
C108  H58   S    
C9    C89   T    
C96   O13   A    
C5    C7    S    
O38   C108  S    
C105  H47   S    
C57   C60   A    
C6    C8    S    
C91   O8    A    
C93   O11   A    
C25   C26   S    
O32   C102  S    
C23   O23   A    
C5    H20   S    
C3    C4    S    
C104  H44   S    
C103  H41   S    
C51   C53   A    
C102  H40   S    
C64   C66   A    
C12   O21   A    
C56   O24   A    
C85   H18   S    
C75   C76   A    
C34   C90   S    
C4    C78   S    
C29   C30   S    
C42   I4    S    
C46   I5    S    
C11   C16   S    
C98   H26   S    
C38   C54   A    
C97   H25   S    
Cr2   O2    S    
C45   O2    A    
C46   C54   A    
C31   C33   S    
C59   H10   S    
C98   H28   S    
C13   C21   S    
C16   C18   S    
C32   C37   S    
C63   C72   A    
C89   C92   S    
Cr3   O4    S    
Cr4   O14   S    
C8    H11   S    
C81   C90   A    
C53   O30   S    
C75   C87   A    
C101  H35   S    
Cr3   O22   S    
C97   H24   S    
C45   C54   S    
C95   O17   A    
C99   H31   S    
C82   C84   A    
C62   C94   S    
C43   C44   A    
O28   C98   S    
C94   O14   A    
Cr1   O24   S    
C27   C93   S    
C80   C96   S    
Cr6   O19   S    
C93   O6    A    
C2    C10   T    
C31   H6    S    
C3    C5    S    
C49   O31   S    
Cr2   O26   S    
C106  H52   S    
Cr3   O23   S    
C46   C47   A    
C15   C24   T    
C73   H16   S    
C30   C33   S    
Cr2   O20   S    
C78   H1    S    
C86   C87   A    
C61   O32   S    
C58   C61   A    
C68   C69   A    
C31   C32   S    
C3    C67   S    
C57   C65   A    
C63   C64   A    
C77   H17   S    
Cr4   O19   S    
C6    C10   S    
Cr3   O3    S    
C26   C30   S    
C29   O28   S    
C20   H2    S    
Cr2   O21   S    
Cr5   O9    S    
C27   C36   T    
C107  H55   S    
C107  H54   S    
C17   C22   S    
C13   C17   S    
C64   C65   A    
C14   C22   T    
C55   C57   A    
C19   C24   S    
C58   C59   A    
Cr1   O5    S    
O33   C103  S    
C29   C31   S    
O31   C101  S    
C6    C67   S    
Cr5   O19   S    
C38   C39   A    
C28   C37   T    
C45   O3    A    
C105  H49   S    
C79   H15   S    
Cr2   O5    S    
C101  H36   S    
C50   H9    S    
C33   C35   S    
C62   C71   A    
C86   C88   A    
C34   O26   A    
C7    O35   S    
C69   C70   A    
C102  H39   S    
C14   C91   S    
Cr4   O13   S    
O35   C105  S    
C96   O18   A    
C79   C80   A    
Cr5   O8    S    
C26   C35   S    
C48   C52   A    
C20   C21   S    
C80   C88   A    
C82   C83   A    
C41   O29   S    
C35   H4    S    
Cr1   O25   S    
C21   O38   S    
C97   H23   S    
Cr6   O18   S    
Cr1   O12   S    
C104  H45   S    
C4    C9    S    
C106  H51   S    
C75   C79   A    
C105  H48   S    
C44   C95   S    
C63   I7    S    
C39   C48   A    
C84   H19   S    
C43   I3    S    
