data_mof_unit_19385.cif
_audit_creation_date              2012-12-11T14:50:35-0500
_audit_creation_method            fapswitch 2.2
_symmetry_space_group_name_H-M    P1
_symmetry_Int_Tables_number       1
_space_group_crystal_system       triclinic
_cell_length_a                    10.885612
_cell_length_b                    10.905489
_cell_length_c                    18.817612
_cell_angle_alpha                 90.394488
_cell_angle_beta                  89.798183
_cell_angle_gamma                 60.280784
_cell_volume                      1939.95130788

loop_
_atom_site_label
_atom_site_type_symbol
_atom_type_description
_atom_site_fract_x
_atom_site_fract_y
_atom_site_fract_z
_atom_type_partial_charge
C1    C     C_R   0.237756 0.646103 0.610121 0.538537
C2    C     C_3   0.666557 0.554171 0.800189 -0.249424
C3    C     C_3   0.699696 0.674493 0.811936 0.050206
C4    C     C_3   0.669664 0.647866 0.676423 0.056117
C5    C     C_3   0.818005 0.628502 0.690061 -0.247165
C6    C     C_3   0.650811 0.536995 0.720248 -0.211625
C7    C     C_R   0.789237 0.138876 0.708326 -0.156382
C8    C     C_R   0.806716 0.119461 0.781749 -0.147178
C9    C     C_R   0.687662 0.163109 0.826145 0.020154
C10   C     C_R   0.552065 0.233515 0.797278 -0.142799
C11   C     C_R   0.535387 0.247364 0.724803 -0.138753
C12   C     C_R   0.653635 0.622254 0.601096 0.540105
C13   C     C_R   0.653154 0.198449 0.679502 0.021276
C14   C     C_R   0.187491 0.555970 0.721334 -0.158884
C15   C     C_R   0.177745 0.560522 0.795232 -0.155551
C16   C     C_R   0.174986 0.673277 0.833144 0.027087
C17   C     C_R   0.191415 0.775799 0.796746 -0.149137
C18   C     C_R   0.198784 0.772494 0.723662 -0.147426
C19   C     C_R   0.197943 0.662244 0.685103 0.027897
C20   C     C_R   0.729961 0.525986 0.271597 -0.115231
C21   C     C_R   0.728164 0.538532 0.198808 -0.115036
C22   C     C_R   0.650416 0.671303 0.167718 0.027882
C23   C     C_R   0.625593 0.233085 0.604481 0.538592
C24   C     C_R   0.561608 0.789281 0.210304 -0.129755
C25   C     C_R   0.559104 0.775336 0.283936 -0.134104
C26   C     C_R   0.647679 0.644157 0.315036 0.031592
C27   C     C_R   0.543154 0.158718 0.287574 -0.130846
C28   C     C_R   0.542694 0.154472 0.214761 -0.100198
C29   C     C_R   0.650975 0.158133 0.176348 0.041023
C30   C     C_R   0.756554 0.172408 0.211576 -0.148925
C31   C     C_R   0.755988 0.178485 0.284912 -0.148707
C32   C     C_R   0.647026 0.175493 0.323032 0.030654
C33   C     C_R   0.087509 0.802534 0.305056 -0.158333
C34   C     C_R   0.219088 0.649483 0.402450 0.554898
C35   C     C_R   0.068788 0.814531 0.232934 -0.182872
C36   C     C_R   0.109185 0.693756 0.190339 0.045563
C37   C     C_R   0.156842 0.561955 0.221380 0.356548
C38   C     C_R   0.177037 0.549738 0.294111 -0.092934
C39   C     C_R   0.150101 0.669158 0.335122 -0.026272
C40   C     C_R   0.701923 0.103587 0.896641 0.542054
C41   C     C_R   0.723985 0.688337 0.887906 0.539779
C42   C     C_R   0.117923 0.706520 0.905296 0.542582
C43   C     C_R   0.674299 0.108102 0.103920 0.550126
C44   C     C_R   0.693837 0.689888 0.097082 0.542237
C45   C     C_R   0.640309 0.619963 0.390654 0.548717
C46   C     C_R   0.083797 0.714634 0.115234 0.584691
C47   C     C_R   0.618067 0.227545 0.395182 0.549431
C48   C     C_3   0.575488 0.813943 0.781953 -0.229439
C49   C     C_3   0.557181 0.797732 0.702077 -0.241296
C50   C     C_3   0.836616 0.641145 0.770052 -0.221417
Cr1   Cr    Cr6+3 0.392930 0.397900 0.502230 1.010004
Cr2   Cr    Cr6+3 0.398240 0.708600 0.501260 1.012401
Cr3   Cr    Cr6+3 0.708800 0.393470 0.496460 1.009787
Cr4   Cr    Cr6+3 0.937620 0.938540 0.007640 1.013878
Cr5   Cr    Cr6+3 0.625150 0.937450 0.994520 1.021147
Cr6   Cr    Cr6+3 0.937990 0.625080 0.001190 1.058586
H1    H     H_    0.596906 0.902885 0.790010 0.149939
H2    H     H_    0.731455 0.428101 0.703694 0.147955
H3    H     H_    0.926579 0.539658 0.788429 0.134890
H4    H     H_    0.902102 0.523204 0.670687 0.134243
H5    H     H_    0.881048 0.104706 0.674198 0.120582
H6    H     H_    0.912622 0.063338 0.803118 0.131481
H7    H     H_    0.458699 0.268786 0.830449 0.131094
H8    H     H_    0.429174 0.297476 0.704203 0.138347
H9    H     H_    0.187565 0.469484 0.692697 0.114919
H10   H     H_    0.165218 0.480057 0.822305 0.121026
H11   H     H_    0.189812 0.864194 0.824252 0.127386
H12   H     H_    0.475252 0.841403 0.810571 0.122297
H13   H     H_    0.208100 0.855779 0.697631 0.125874
H14   H     H_    0.795984 0.422513 0.293738 0.136547
H15   H     H_    0.796433 0.445542 0.167238 0.139041
H16   H     H_    0.500906 0.893049 0.187338 0.130987
H17   H     H_    0.491207 0.866804 0.316464 0.121709
H18   H     H_    0.457496 0.156132 0.315760 0.134255
H19   H     H_    0.460979 0.141548 0.188951 0.164962
H20   H     H_    0.842353 0.173273 0.182657 0.122886
H21   H     H_    0.837495 0.190448 0.311534 0.120029
H22   H     H_    0.063580 0.895753 0.336307 0.142050
H23   H     H_    0.448767 0.815516 0.692914 0.138002
H24   H     H_    0.025013 0.918862 0.210478 0.152192
H25   H     H_    0.224687 0.445359 0.317040 0.153930
H26   H     H_    0.568131 0.879243 0.671856 0.121609
H27   H     H_    0.864037 0.725560 0.779800 0.131131
H28   H     H_    0.831077 0.709916 0.660986 0.116823
H29   H     H_    0.752863 0.453362 0.821695 0.133091
H30   H     H_    0.567003 0.578378 0.828565 0.121069
H31   H     H_    0.544884 0.548405 0.710090 0.130164
O1    O     O_R   0.507430 0.255570 0.581420 -0.527316
O2    O     O_R   0.524460 0.695920 0.424060 -0.499487
O3    O     O_R   0.736530 0.504260 0.414810 -0.525118
O4    O     O_R   0.691460 0.277160 0.422180 -0.507974
O5    O     O_3   0.499990 0.499990 0.499980 -0.246567
O6    O     O_R   0.089490 0.825610 0.930610 -0.525742
O7    O     O_R   0.818370 0.054540 0.929880 -0.505220
O8    O     O_R   0.605870 0.077310 0.915530 -0.524411
O9    O     O_R   0.646440 0.806700 0.917570 -0.510102
O10   O     O_R   0.837200 0.593290 0.915250 -0.529383
O11   O     O_R   0.065330 0.635370 0.931590 -0.507566
O12   O     O_R   0.280190 0.527390 0.578910 -0.509678
O13   O     O_R   0.068300 0.828790 0.091860 -0.542373
O14   O     O_R   0.798730 0.057480 0.079370 -0.514371
O15   O     O_R   0.584680 0.080480 0.076790 -0.514201
O16   O     O_R   0.626790 0.809640 0.067050 -0.506780
O17   O     O_R   0.816010 0.596460 0.076500 -0.504722
O18   O     O_R   0.045680 0.638310 0.081070 -0.437125
O19   O     O_3   0.833590 0.833690 0.001120 -0.260888
O20   O     O_R   0.260310 0.739740 0.584580 -0.531754
O21   O     O_R   0.532250 0.695150 0.573830 -0.509337
O22   O     O_R   0.744930 0.503430 0.576380 -0.527458
O23   O     O_R   0.699250 0.276390 0.571950 -0.506698
O24   O     O_R   0.499020 0.256400 0.419850 -0.527176
O25   O     O_R   0.272400 0.528160 0.429140 -0.509180
O26   O     O_R   0.251910 0.740570 0.423020 -0.514416
F1    F     F_    0.190991 0.445037 0.181438 -0.639327

loop_
_geom_bond_atom_site_label_1
_geom_bond_atom_site_label_2
_ccdc_geom_bond_type
Cr3   O23   S    
Cr1   O25   S    
C42   O6    A    
C34   O25   A    
C3    C48   S    
Cr4   O14   S    
C35   C36   A    
Cr6   O11   S    
Cr4   O13   S    
C1    O12   A    
C44   O17   A    
C7    C8    A    
Cr2   O26   S    
C34   O26   A    
Cr5   O15   S    
C33   C39   A    
C21   H15   S    
C50   H3    S    
C36   C37   A    
C42   O11   A    
C38   C39   A    
C33   H22   S    
C41   O9    A    
C15   C16   A    
C46   O18   A    
Cr5   O16   S    
C35   H24   S    
C13   C23   S    
C2    H29   S    
C18   C19   A    
C6    H2    S    
C7    H5    S    
Cr4   O6    S    
C26   C45   S    
C44   O16   A    
C22   C44   S    
C10   H7    S    
Cr2   O20   S    
C8    C9    A    
Cr3   O4    S    
C36   C46   S    
C4    C12   S    
C29   C30   A    
C45   O2    A    
C9    C10   A    
C25   H17   S    
C18   H13   S    
C21   C22   A    
C29   C43   S    
C20   H14   S    
Cr2   O2    S    
C2    C6    S    
Cr6   O10   S    
C12   O22   A    
C3    C50   S    
C50   H27   S    
C31   H21   S    
Cr1   O12   S    
C17   H11   S    
C1    C19   S    
Cr4   O19   S    
Cr5   O19   S    
C34   C39   S    
C48   H1    S    
C24   C25   A    
Cr6   O17   S    
Cr5   O8    S    
C11   H8    S    
C12   O21   A    
C5    H28   S    
C16   C17   A    
C37   F1    S    
C25   C26   A    
C15   H10   S    
C9    C40   S    
C6    H31   S    
C49   H23   S    
C49   H26   S    
C43   O14   A    
C37   C38   A    
Cr1   O5    S    
C30   H20   S    
C31   C32   A    
C7    C13   A    
Cr3   O5    S    
C17   C18   A    
C48   H12   S    
C45   O3    A    
Cr6   O19   S    
C1    O20   A    
C4    C6    S    
C48   C49   S    
C23   O1    A    
C38   H25   S    
C32   C47   S    
C41   O10   A    
C5    C50   S    
Cr2   O5    S    
C40   O8    A    
C27   H18   S    
C16   C42   S    
Cr3   O3    S    
C24   H16   S    
Cr3   O22   S    
C23   O23   A    
C46   O13   A    
C28   C29   A    
Cr1   O24   S    
C5    H4    S    
C27   C32   A    
C47   O4    A    
C14   C19   A    
C40   O7    A    
Cr5   O9    S    
Cr1   O1    S    
C4    C49   S    
C2    C3    S    
C43   O15   A    
C11   C13   A    
C30   C31   A    
C20   C26   A    
C47   O24   A    
C33   C35   A    
C14   H9    S    
C2    H30   S    
C22   C24   A    
Cr6   O18   S    
Cr4   O7    S    
C3    C41   S    
C10   C11   A    
C4    C5    S    
C20   C21   A    
Cr2   O21   S    
C27   C28   A    
C14   C15   A    
C28   H19   S    
C8    H6    S    
