data_mof_unit_32141.cif
_audit_creation_date              2012-12-10T19:13:33-0500
_audit_creation_method            fapswitch 2.2
_symmetry_space_group_name_H-M    P1
_symmetry_Int_Tables_number       1
_space_group_crystal_system       triclinic
_cell_length_a                    9.851197
_cell_length_b                    10.664494
_cell_length_c                    16.603696
_cell_angle_alpha                 89.248813
_cell_angle_beta                  86.597733
_cell_angle_gamma                 90.823156
_cell_volume                      1740.92709234

loop_
_atom_site_label
_atom_site_type_symbol
_atom_type_description
_atom_site_fract_x
_atom_site_fract_y
_atom_site_fract_z
_atom_type_partial_charge
C1    C     C_R   0.499926 0.742367 0.498605 0.904005
C2    C     C_R   0.375960 0.486363 0.792055 -0.187382
C3    C     C_R   0.408898 0.482990 0.138461 -0.138508
C4    C     C_R   0.451283 0.537955 0.208175 -0.077355
C5    C     C_R   0.552102 0.339620 0.245333 -0.202330
C6    C     C_R   0.513322 0.285221 0.173841 0.036574
C7    C     C_R   0.439905 0.358264 0.120694 0.120588
C8    C     C_2   0.518980 0.359175 0.981678 0.384147
C9    C     C_2   0.423626 0.320896 0.037682 -0.332516
C10   C     C_R   0.519337 0.464041 0.263170 -0.051703
C11   C     C_3   0.348349 0.930145 0.490114 -0.209391
C12   C     C_R   0.482977 0.491988 0.652795 0.901194
C13   C     C_3   0.348824 0.072492 0.498366 -0.401221
C14   C     C_3   0.546159 0.926930 0.579965 -0.412724
C15   C     C_3   0.594930 0.933474 0.429283 -0.259607
C16   C     C_3   0.497119 0.879600 0.498227 0.060548
C17   C     C_3   0.497126 0.122231 0.500500 0.131437
C18   C     C_3   0.558322 0.070925 0.577919 -0.400473
C19   C     C_3   0.581413 0.076286 0.424918 -0.392139
C20   C     C_3   0.919135 0.605364 0.550801 0.284713
C21   C     C_3   0.078531 0.614727 0.541818 0.247738
C22   C     C_3   0.914733 0.383862 0.538310 -0.464986
C23   C     C_R   0.499091 0.258232 0.500639 0.804686
C24   C     C_3   0.925340 0.509037 0.417962 0.311590
C25   C     C_3   0.074745 0.392099 0.545929 -0.330988
C26   C     C_3   0.087942 0.501115 0.416392 0.220159
C27   C     C_R   0.517102 0.497907 0.347146 0.959127
C28   C     C_R   0.479085 0.450278 0.736398 -0.112183
C29   C     C_R   0.580768 0.369202 0.759901 -0.193165
C30   C     C_R   0.584992 0.331377 0.839555 -0.141664
C31   C     C_R   0.488413 0.374547 0.897110 -0.002188
C32   C     C_R   0.380521 0.450350 0.872856 0.393448
H1    H     H_    0.658771 0.336481 0.716748 0.156681
H2    H     H_    0.282015 0.890782 0.541322 0.158387
H3    H     H_    0.297398 0.118320 0.447858 0.215719
H4    H     H_    0.289863 0.097801 0.555066 0.175539
H5    H     H_    0.472556 0.896439 0.630132 0.189221
H6    H     H_    0.504272 0.109689 0.632683 0.167872
H7    H     H_    0.701713 0.910948 0.440937 0.244309
H8    H     H_    0.575390 0.891636 0.370284 0.265196
H9    H     H_    0.529927 0.102864 0.369516 0.217195
H10   H     H_    0.684873 0.120155 0.420330 0.197904
H11   H     H_    0.645762 0.887286 0.593410 0.243382
H12   H     H_    0.667352 0.099628 0.578790 0.199229
H13   H     H_    0.885568 0.587829 0.615268 0.166138
H14   H     H_    0.111862 0.699438 0.506461 0.176285
H15   H     H_    0.863298 0.366907 0.599007 0.189311
H16   H     H_    0.096204 0.396087 0.610836 0.214867
H17   H     H_    0.884344 0.429465 0.383645 0.139245
H18   H     H_    0.602433 0.283665 0.289261 0.161149
H19   H     H_    0.888644 0.300930 0.502043 0.228639
H20   H     H_    0.122802 0.303859 0.525534 0.220785
H21   H     H_    0.324189 0.288909 0.020830 0.198250
H22   H     H_    0.358623 0.540087 0.095147 0.199067
H23   H     H_    0.296178 0.547320 0.773628 0.228942
H24   H     H_    0.667828 0.273046 0.857024 0.188726
N1    N     N_3   0.861190 0.500250 0.501720 -0.146332
N2    N     N_3   0.138550 0.503270 0.501080 -0.136645
O1    O     O_R   0.383960 0.685090 0.500020 -0.601069
O2    O     O_R   0.616040 0.685320 0.499960 -0.528490
O3    O     O_R   0.370240 0.499890 0.615830 -0.560239
O4    O     O_R   0.602330 0.500120 0.615770 -0.623678
O5    O     O_R   0.383960 0.314680 0.500040 -0.643253
O6    O     O_R   0.616040 0.314910 0.499980 -0.647359
O7    O     O_R   0.397670 0.499880 0.384230 -0.612180
O8    O     O_R   0.629760 0.500110 0.384170 -0.571095
Zn1   Zn    Zn3+2 0.345040 0.499850 0.500040 0.994462
Zn2   Zn    Zn3+2 0.654960 0.500150 0.499960 1.003443
C33   C     C_2   0.548976 0.153500 0.155262 0.496766
H25   H     H_    0.516098 0.110178 0.100816 0.076571
O9    O     O_2   0.615321 0.091431 0.200664 -0.530263
C34   C     C_2   0.280341 0.895937 0.413899 0.534207
H26   H     H_    0.175665 0.863197 0.418771 0.134660
O10   O     O_2   0.334303 0.917677 0.347066 -0.513025
C35   C     C_2   0.427003 0.673292 0.220048 0.564576
H27   H     H_    0.354664 0.721717 0.184348 0.101164
O11   O     O_2   0.491023 0.733191 0.267499 -0.526725
Cl1   Cl    Cl    0.864017 0.761160 0.532377 -0.614979
Cl2   Cl    Cl    0.140949 0.644653 0.638954 -0.621738
Cl3   Cl    Cl    0.865299 0.643085 0.363124 -0.434593
Cl4   Cl    Cl    0.164432 0.628957 0.356760 -0.600761
C36   C     C_2   0.133698 0.383744 0.370700 0.419348
H28   H     H_    0.213400 0.389476 0.322799 0.134236
O12   O     O_2   0.079623 0.281336 0.384573 -0.630159
Cl5   Cl    Cl    0.256603 0.513037 0.941083 -0.586112
Cl6   Cl    Cl    0.682071 0.411089 0.008649 -0.522207

loop_
_geom_bond_atom_site_label_1
_geom_bond_atom_site_label_2
_ccdc_geom_bond_type
C10   C27   S    
C6    C33   S    
O8    Zn2   S    
C14   C18   S    
C22   N1    S    
C15   C19   S    
C17   C23   S    
C12   C28   S    
O6    Zn2   S    
C28   C29   A    
C24   C26   S    
C13   H3    S    
C3    C7    A    
C2    H23   S    
C1    O1    A    
C5    C6    A    
C3    H22   S    
C15   C16   S    
C29   H1    S    
C2    C32   A    
C33   O9    D    
C4    C35   S    
O1    Zn1   S    
C24   Cl3   S    
C8    C9    D    
O7    Zn1   S    
C22   C25   S    
C20   H13   S    
C19   H10   S    
C23   O5    A    
C22   H15   S    
C26   C36   S    
O5    Zn1   S    
C13   H4    S    
C34   O10   D    
C1    O2    A    
C11   C34   S    
C24   N1    S    
C30   H24   S    
C35   H27   S    
C29   C30   A    
C27   O7    A    
C18   H12   S    
C12   O4    A    
C11   C16   S    
O3    Zn1   S    
C31   C32   A    
C21   Cl2   S    
C17   C18   S    
C1    C16   S    
C26   N2    S    
C25   H16   S    
C15   H7    S    
C23   O6    A    
C26   Cl4   S    
C36   O12   D    
C14   C16   S    
C5    H18   S    
C9    H21   S    
C25   N2    S    
N1    Zn2   S    
C4    C10   A    
C3    C4    A    
C21   H14   S    
C24   H17   S    
C7    C9    S    
C8    C31   S    
C11   H2    S    
C34   H26   S    
C6    C7    A    
C20   Cl1   S    
C13   C17   S    
C18   H6    S    
C25   H20   S    
C5    C10   A    
C27   O8    A    
C14   H5    S    
C12   O3    A    
C11   C13   S    
C30   C31   A    
C32   Cl5   S    
C17   C19   S    
C8    Cl6   S    
O4    Zn2   S    
C33   H25   S    
C15   H8    S    
N2    Zn1   S    
C21   N2    S    
C20   C21   S    
O2    Zn2   S    
C36   H28   S    
C35   O11   D    
C14   H11   S    
C2    C28   A    
C20   N1    S    
C19   H9    S    
C22   H19   S    
