data_mof_unit_65600.cif
_audit_creation_date              2012-12-10T16:42:40-0500
_audit_creation_method            fapswitch 2.2
_symmetry_space_group_name_H-M    P1
_symmetry_Int_Tables_number       1
_space_group_crystal_system       triclinic
_cell_length_a                    18.946023
_cell_length_b                    18.973786
_cell_length_c                    19.087385
_cell_angle_alpha                 109.664881
_cell_angle_beta                  109.628199
_cell_angle_gamma                 109.371741
_cell_volume                      5265.51166513

loop_
_atom_site_label
_atom_site_type_symbol
_atom_type_description
_atom_site_fract_x
_atom_site_fract_y
_atom_site_fract_z
_atom_type_partial_charge
C1    C     C_R   0.384492 0.382475 0.502107 0.849286
C2    C     C_R   0.760447 0.581278 0.755985 0.076883
C3    C     C_R   0.811763 0.499669 0.813046 -0.175079
C4    C     C_R   0.744238 0.420793 0.737455 0.077018
C5    C     C_R   0.676814 0.421098 0.676891 0.058955
C6    C     C_R   0.686544 0.501407 0.684381 -0.190365
C7    C     C_R   0.741803 0.341067 0.720989 -0.141251
C8    C     C_R   0.670183 0.263084 0.650949 -0.136815
C9    C     C_R   0.599401 0.262619 0.596721 -0.148858
C10   C     C_R   0.601794 0.340368 0.609782 -0.145493
C11   C     C_2   0.257330 0.175837 0.498226 0.172739
C12   C     C_R   0.618841 0.500751 0.618105 0.860532
C13   C     C_2   0.182464 0.173976 0.488754 -0.382669
C14   C     C_2   0.313696 0.238051 0.483305 -0.154145
C15   C     C_2   0.325144 0.318056 0.510567 -0.363868
C16   C     C_2   0.180083 0.424893 0.176702 0.123732
C17   C     C_2   0.187008 0.497716 0.173905 -0.039385
C18   C     C_2   0.255515 0.427005 0.236238 -0.130873
C19   C     C_2   0.300925 0.487135 0.319648 -0.376935
C20   C     C_2   0.742051 0.749224 0.425337 -0.152941
C21   C     C_2   0.818526 0.810654 0.496522 -0.312725
C22   C     C_2   0.681347 0.676346 0.425286 -0.154386
C23   C     C_R   0.615050 0.617838 0.497945 0.878103
C24   C     C_2   0.676874 0.686766 0.496389 -0.321456
C25   C     C_R   0.995697 0.382581 0.878083 0.827033
C26   C     C_R   0.878686 0.499632 0.878822 0.792081
C27   C     C_R   0.998737 0.617935 0.115789 0.840954
C28   C     C_R   0.115652 0.497790 0.112181 0.847892
C29   C     C_R   0.997503 0.115357 0.616958 0.850681
C30   C     C_R   0.117542 0.114257 0.496925 0.838986
C31   C     C_R   0.998731 0.880935 0.382944 0.834789
C32   C     C_R   0.882636 0.880763 0.498265 0.841264
C33   C     C_2   0.923459 0.181662 0.674376 -0.152323
C34   C     C_R   0.377849 0.495895 0.382318 0.863441
C35   C     C_2   0.995160 0.177044 0.685297 -0.314698
C36   C     C_2   0.922889 0.242316 0.746708 -0.160497
C37   C     C_2   0.994363 0.318565 0.808357 -0.308233
C38   C     C_2   0.008347 0.750104 0.323105 -0.155962
C39   C     C_2   0.992483 0.811172 0.314042 -0.313962
C40   C     C_2   0.994854 0.677156 0.249209 -0.149316
C41   C     C_2   0.006467 0.686851 0.186801 -0.314711
C42   C     C_R   0.781939 0.663653 0.761989 0.178883
C43   C     C_R   0.846009 0.739940 0.840426 -0.185523
C44   C     C_R   0.891301 0.736540 0.912044 -0.171978
C45   C     C_R   0.878073 0.657271 0.904477 -0.140921
C46   C     C_R   0.816683 0.579170 0.825039 0.029683
Cu1   Cu    Cu3+1 0.500390 0.438990 0.439360 0.948164
Cu2   Cu    Cu3+1 0.499610 0.561010 0.560640 0.948669
Cu3   Cu    Cu3+1 0.935830 0.439030 0.996840 0.937217
Cu4   Cu    Cu3+1 0.057850 0.561040 0.996790 0.963616
Cu5   Cu    Cu3+1 0.061410 0.000010 0.561410 0.940191
Cu6   Cu    Cu3+1 0.938590 0.999990 0.438590 0.952864
H1    H     H_    0.542829 0.201789 0.543577 0.137840
H2    H     H_    0.163359 0.213369 0.465492 0.149992
H3    H     H_    0.349083 0.219718 0.453277 0.172806
H4    H     H_    0.295376 0.339456 0.546620 0.160558
H5    H     H_    0.271754 0.377759 0.211749 0.176397
H6    H     H_    0.277944 0.529663 0.344440 0.159282
H7    H     H_    0.725827 0.749493 0.365202 0.163196
H8    H     H_    0.838818 0.805129 0.553918 0.152491
H9    H     H_    0.636978 0.615107 0.365174 0.161593
H10   H     H_    0.714351 0.750353 0.553810 0.148803
H11   H     H_    0.863311 0.137504 0.613113 0.162040
H12   H     H_    0.052487 0.214337 0.748879 0.153901
H13   H     H_    0.862135 0.226251 0.746447 0.153485
H14   H     H_    0.052371 0.338784 0.803345 0.155851
H15   H     H_    0.026286 0.750580 0.383692 0.163877
H16   H     H_    0.965349 0.805431 0.251093 0.154302
H17   H     H_    0.979712 0.616415 0.248600 0.161887
H18   H     H_    0.031192 0.750046 0.192206 0.149387
H19   H     H_    0.861187 0.802347 0.845441 0.134618
H20   H     H_    0.939455 0.795748 0.972821 0.144070
H21   H     H_    0.916550 0.658075 0.961642 0.144035
H22   H     H_    0.795081 0.337723 0.761221 0.138178
H23   H     H_    0.669054 0.202744 0.639635 0.129793
H24   H     H_    0.543900 0.335593 0.566717 0.143760
O1    O     O_R   0.411310 0.359450 0.448800 -0.594869
O2    O     O_R   0.048900 0.462510 0.908320 -0.585065
O3    O     O_R   0.855710 0.448510 0.907250 -0.588596
O4    O     O_R   0.958760 0.551540 0.907200 -0.583481
O5    O     O_R   0.944780 0.537560 0.085320 -0.576454
O6    O     O_R   0.047820 0.640590 0.085270 -0.592156
O7    O     O_R   0.034920 0.448530 0.086440 -0.614457
O8    O     O_R   0.137970 0.551560 0.086390 -0.553733
O9    O     O_R   0.051300 0.089020 0.640330 -0.585768
O10   O     O_R   0.947570 0.089010 0.536620 -0.578254
O11   O     O_R   0.140880 0.089030 0.551840 -0.593905
O12   O     O_R   0.410660 0.462490 0.551220 -0.587134
O13   O     O_R   0.037150 0.089020 0.448130 -0.578775
O14   O     O_R   0.052430 0.910990 0.463380 -0.586825
O15   O     O_R   0.948700 0.910980 0.359670 -0.589004
O16   O     O_R   0.962850 0.910980 0.551870 -0.588621
O17   O     O_R   0.859120 0.910970 0.448160 -0.583043
O18   O     O_R   0.589930 0.448490 0.538390 -0.593832
O19   O     O_R   0.589280 0.551530 0.640800 -0.572188
O20   O     O_R   0.589340 0.537510 0.448780 -0.576266
O21   O     O_R   0.588690 0.640550 0.551200 -0.591645
O22   O     O_R   0.410720 0.448470 0.359200 -0.588570
O23   O     O_R   0.410070 0.551510 0.461610 -0.589951
O24   O     O_R   0.945860 0.359480 0.908360 -0.591194
N1    N     N_3   0.102424 0.342091 0.117965 -0.584542
H25   H     H_    0.084191 0.328897 0.054839 0.217875
H26   H     H_    0.053283 0.343942 0.130531 0.242490
N2    N     N_3   0.269743 0.576008 0.220707 -0.586082
H27   H     H_    0.317323 0.561989 0.215583 0.236899
H28   H     H_    0.287162 0.610231 0.285051 0.219802
N3    N     N_3   0.745685 0.671303 0.687907 -0.586595
H29   H     H_    0.795749 0.700631 0.677726 0.199760
H30   H     H_    0.721413 0.713059 0.702143 0.230971
C47   C     C_3   0.281341 0.113406 0.519296 -0.321659
C48   C     C_3   0.365019 0.119912 0.522340 -0.899395
H31   H     H_    0.358585 0.101368 0.457854 0.247365
H32   H     H_    0.420132 0.186669 0.570356 0.260324
H33   H     H_    0.378813 0.074963 0.541969 0.250868
H34   H     H_    0.289896 0.126582 0.583722 0.224191
H35   H     H_    0.227767 0.045915 0.470672 0.201087

loop_
_geom_bond_atom_site_label_1
_geom_bond_atom_site_label_2
_ccdc_geom_bond_type
N1    H25   S    
Cu2   O19   S    
C28   O8    A    
C1    O1    A    
C39   H16   S    
C48   H31   S    
C34   O22   A    
Cu5   O9    S    
N2    H28   S    
Cu4   O8    S    
C7    C8    A    
C32   O16   A    
C45   C46   A    
C2    C46   A    
Cu2   O21   S    
Cu1   O22   S    
C36   C37   D    
C17   N2    S    
C4    C7    A    
Cu5   O14   S    
C6    C12   S    
C5    C6    A    
C11   C14   S    
C33   C36   S    
C23   O20   A    
C45   H21   S    
C18   C19   D    
Cu3   O5    S    
C47   C48   S    
C25   O24   A    
C25   C37   S    
C10   H24   S    
C16   C17   D    
C43   H19   S    
Cu1   O20   S    
Cu2   O12   S    
C12   O19   A    
C44   H20   S    
C35   H12   S    
C1    C15   S    
C42   N3    S    
C29   O9    A    
C1    O12   A    
C14   H3    S    
N1    H26   S    
C28   O7    A    
N3    H30   S    
C12   O18   A    
Cu6   O13   S    
C2    C6    A    
C30   O13   A    
Cu4   O2    S    
N2    H27   S    
C7    H22   S    
C3    C26   S    
C19   H6    S    
C21   C32   S    
C40   H17   S    
Cu5   Cu6   S    
C13   C30   S    
C27   O5    A    
C21   H8    S    
Cu5   O11   S    
C36   H13   S    
C8    C9    A    
C25   O2    A    
C8    H23   S    
C26   O4    A    
Cu3   O3    S    
C43   C44   A    
Cu5   O16   S    
C27   C41   S    
C18   H5    S    
Cu1   Cu2   S    
C33   H11   S    
C31   O14   A    
C37   H14   S    
C34   O23   A    
Cu6   O17   S    
C48   H32   S    
C38   H15   S    
C20   H7    S    
C29   O10   A    
C40   C41   D    
C23   O21   A    
C20   C22   S    
C31   O15   A    
C22   C24   D    
C9    H1    S    
C42   C43   A    
Cu1   O1    S    
N3    H29   S    
C3    C4    A    
C47   H35   S    
C44   C45   A    
Cu4   O6    S    
C13   H2    S    
C9    C10   A    
Cu2   O23   S    
C24   H10   S    
C17   C28   S    
C27   O6    A    
C4    C5    A    
C19   C34   S    
Cu4   O4    S    
C11   C47   S    
C29   C35   S    
C3    C46   A    
C26   O3    A    
C15   H4    S    
Cu3   O7    S    
Cu6   O10   S    
C5    C10   A    
Cu3   O24   S    
C38   C40   S    
C11   C13   D    
C38   C39   D    
C2    C42   A    
C33   C35   D    
Cu1   O18   S    
C31   C39   S    
C32   O17   A    
C48   H33   S    
C23   C24   S    
C16   N1    S    
C20   C21   D    
C16   C18   S    
Cu3   Cu4   S    
C14   C15   D    
Cu6   O15   S    
C30   O11   A    
C47   H34   S    
C41   H18   S    
C22   H9    S    
