data_mof_unit_19357.cif
_audit_creation_date              2012-12-10T17:49:33-0500
_audit_creation_method            fapswitch 2.2
_symmetry_space_group_name_H-M    P1
_symmetry_Int_Tables_number       1
_space_group_crystal_system       triclinic
_cell_length_a                    10.539979
_cell_length_b                    10.644841
_cell_length_c                    9.972093
_cell_angle_alpha                 88.802048
_cell_angle_beta                  90.991153
_cell_angle_gamma                 93.032005
_cell_volume                      1116.87561808

loop_
_atom_site_label
_atom_site_type_symbol
_atom_type_description
_atom_site_fract_x
_atom_site_fract_y
_atom_site_fract_z
_atom_type_partial_charge
C1    C     C_R   0.504413 0.261061 0.501038 0.884790
C2    C     C_R   0.612119 0.071722 0.576824 0.061417
C3    C     C_R   0.515779 0.129354 0.501849 -0.100588
C4    C     C_R   0.257793 0.500358 0.498603 0.950694
C5    C     C_R   0.430243 0.061701 0.420106 -0.227899
C6    C     C_R   0.431692 0.933938 0.418624 0.629273
C7    C     C_R   0.520500 0.872740 0.497972 -0.220189
C8    C     C_R   0.302943 0.373095 0.141939 -0.038849
C9    C     C_R   0.188933 0.340687 0.077020 -0.137384
C10   C     C_R   0.182454 0.346846 0.938368 -0.233504
C11   C     C_R   0.294565 0.370789 0.866832 0.011364
C12   C     C_3   0.950005 0.447340 0.385325 -0.349371
C13   C     C_R   0.400702 0.436875 0.929072 0.127502
C14   C     C_R   0.402177 0.437682 0.073008 0.040858
C15   C     C_R   0.593755 0.560672 0.071380 0.668250
C16   C     C_R   0.508359 0.739477 0.499282 1.039197
C17   C     C_R   0.593872 0.560172 0.928754 -0.184725
C18   C     C_R   0.742136 0.500569 0.500809 0.954983
C19   C     C_3   0.048034 0.552837 0.610790 -0.202824
C20   C     C_3   0.957713 0.432880 0.606847 -0.336744
C21   C     C_3   0.876624 0.499866 0.501301 -0.087857
C22   C     C_3   0.964672 0.617670 0.504706 0.715890
C23   C     C_3   0.033648 0.382094 0.490986 0.021284
C24   C     C_3   0.040005 0.566177 0.390369 -0.139592
C25   C     C_2   0.311430 0.269921 0.772975 0.524382
C26   C     C_2   0.074352 0.643013 0.267246 0.541184
C27   C     C_2   0.065723 0.247780 0.478574 0.357393
C28   C     C_3   0.122829 0.500274 0.495029 -0.092652
C29   C     C_R   0.707740 0.142659 0.647842 -0.247069
C30   C     C_R   0.802242 0.083518 0.720215 -0.374306
C31   C     C_R   0.804668 0.953322 0.721887 0.690170
C32   C     C_R   0.713110 0.881297 0.650332 0.594822
C33   C     C_R   0.614781 0.939703 0.576209 -0.199538
F1    F     F_    0.898166 0.896270 0.791235 -0.600361
F2    F     F_    0.725606 0.755589 0.651940 -0.628370
F3    F     F_    0.342338 0.869343 0.343692 -0.603393
F4    F     F_    0.689468 0.624344 0.137545 -0.642423
F5    F     F_    0.928320 0.740231 0.509002 -0.617262
H1    H     H_    0.921062 0.378229 0.695284 0.164433
H2    H     H_    0.874797 0.139117 0.773866 0.184468
H3    H     H_    0.252803 0.262635 0.683245 0.079555
H4    H     H_    0.999272 0.680571 0.205099 0.114120
H5    H     H_    0.993437 0.173365 0.496825 0.112618
H6    H     H_    0.312713 0.343188 0.244200 0.210507
H7    H     H_    0.109489 0.299706 0.133212 0.168831
H8    H     H_    0.098436 0.304571 0.889364 0.139412
H9    H     H_    0.670593 0.609725 0.875749 0.226867
H10   H     H_    0.089959 0.597241 0.702285 0.200425
H11   H     H_    0.907591 0.403544 0.293671 0.184799
H12   H     H_    0.360194 0.108053 0.358731 0.218593
H13   H     H_    0.712461 0.244190 0.646287 0.183987
N1    N     N_R   0.498800 0.498800 0.142780 -0.166815
N2    N     N_R   0.498760 0.498720 0.857170 -0.153427
O1    O     O_R   0.500000 0.316780 0.614690 -0.612102
O2    O     O_2   0.184802 0.664004 0.235856 -0.477272
O3    O     O_2   0.171613 0.221324 0.445508 -0.625280
O4    O     O_R   0.499990 0.316750 0.385360 -0.658344
O5    O     O_R   0.313960 0.499980 0.614650 -0.671525
O6    O     O_R   0.313940 0.499960 0.385310 -0.592698
O7    O     O_R   0.500010 0.683250 0.614640 -0.580878
O8    O     O_R   0.500000 0.683220 0.385310 -0.535573
O9    O     O_R   0.686060 0.500040 0.614690 -0.597734
O10   O     O_R   0.686040 0.500020 0.385350 -0.589046
O11   O     O_2   0.382346 0.186109 0.802590 -0.538052
Zn1   Zn    Zn3+2 0.500010 0.500020 0.653130 1.005125
Zn2   Zn    Zn3+2 0.499990 0.499980 0.346870 1.056456

loop_
_geom_bond_atom_site_label_1
_geom_bond_atom_site_label_2
_ccdc_geom_bond_type
C10   H8    S    
C1    O1    A    
C9    H7    S    
C29   C30   A    
C23   C27   S    
C18   C21   S    
N2    Zn1   S    
C9    C10   A    
C12   C24   S    
O5    Zn1   S    
C31   C32   A    
O9    Zn1   S    
C20   C23   S    
O4    Zn2   S    
C26   O2    D    
C27   O3    D    
C17   N2    A    
C15   N1    A    
C12   H11   S    
C20   H1    S    
C31   F1    S    
C30   H2    S    
O1    Zn1   S    
C21   C22   S    
C32   C33   A    
C19   C28   S    
C7    C33   A    
C12   C23   S    
C26   H4    S    
C6    C7    A    
C2    C29   A    
O8    Zn2   S    
C2    C33   A    
C14   N1    A    
C7    C16   S    
C4    C28   S    
C24   C26   S    
O7    Zn1   S    
C2    C3    A    
C13   N2    A    
C10   C11   A    
O6    Zn2   S    
C29   H13   S    
C5    C6    A    
C5    H12   S    
C22   C24   S    
C18   O10   A    
O10   Zn2   S    
C16   O8    A    
C11   C25   S    
C25   H3    S    
C22   F5    S    
C32   F2    S    
C8    H6    S    
C11   C13   A    
C19   C22   S    
N1    Zn2   S    
C20   C21   S    
C4    O6    A    
C24   C28   S    
C16   O7    A    
C4    O5    A    
C15   C17   A    
C27   H5    S    
C30   C31   A    
C15   F4    S    
C8    C14   A    
C19   H10   S    
C13   C14   A    
C3    C5    A    
C23   C28   S    
C12   C21   S    
C18   O9    A    
C19   C20   S    
C17   H9    S    
C6    F3    S    
C8    C9    A    
C1    C3    S    
C25   O11   D    
C1    O4    A    
