data_mof_unit_55336.cif
_audit_creation_date              2012-10-26T20:37:04-0400
_audit_creation_method            fapswitch 2.2
_symmetry_space_group_name_H-M    P1
_symmetry_Int_Tables_number       1
_space_group_crystal_system       triclinic
_cell_length_a                    11.003186
_cell_length_b                    19.327601
_cell_length_c                    18.08572
_cell_angle_alpha                 89.486798
_cell_angle_beta                  89.754304
_cell_angle_gamma                 91.954177
_cell_volume                      3843.77137413

loop_
_atom_site_label
_atom_site_type_symbol
_atom_type_description
_atom_site_fract_x
_atom_site_fract_y
_atom_site_fract_z
_atom_type_partial_charge
C1    C     C_R   0.499220 0.367318 0.500257 0.570431
C2    C     C_R   0.554292 0.818047 0.435826 0.232564
C3    C     C_R   0.505151 0.146554 0.500411 0.013249
C4    C     C_R   0.518762 0.854310 0.499387 0.043179
C5    C     C_R   0.564830 0.185598 0.444545 -0.193834
C6    C     C_R   0.476200 0.817167 0.562010 -0.189976
C7    C     C_R   0.561088 0.257458 0.444063 -0.168353
C8    C     C_R   0.469925 0.745137 0.562126 -0.165031
C9    C     C_R   0.500112 0.291592 0.500396 -0.001183
C10   C     C_R   0.503040 0.708793 0.498959 -0.024612
C11   C     C_R   0.521960 0.930774 0.500194 0.359063
C12   C     C_R   0.500034 0.632779 0.499705 0.550573
C13   C     C_R   0.514030 0.070815 0.500756 0.330749
C14   C     C_R   0.566636 0.549120 0.277823 0.551141
C15   C     C_R   0.455076 0.443112 0.722261 0.525071
C16   C     C_R   0.261940 0.500552 0.499938 0.562762
C17   C     C_R   0.738209 0.500340 0.500038 0.585423
C18   C     C_R   0.570738 0.549324 0.200111 0.407502
C19   C     C_R   0.453713 0.440787 0.800166 0.402209
C20   C     C_R   0.503782 0.498978 0.159963 -0.031617
C21   C     C_R   0.500277 0.496989 0.841265 -0.038914
C22   C     C_R   0.432454 0.450393 0.200856 -0.199411
C23   C     C_R   0.872206 0.500730 0.500551 -0.022518
C24   C     C_R   0.545626 0.554694 0.801162 -0.171146
C25   C     C_R   0.431940 0.450902 0.279433 0.328823
C26   C     C_R   0.547052 0.555443 0.722975 0.328835
C27   C     C_R   0.501771 0.496768 0.924713 0.346676
C28   C     C_R   0.504220 0.497919 0.076550 0.369709
C29   C     C_R   0.247069 0.617119 0.279773 0.252948
C30   C     C_R   0.746577 0.349401 0.683441 0.265416
C31   C     C_R   0.204190 0.602897 0.352414 0.185210
C32   C     C_R   0.803709 0.380156 0.620870 0.198700
C33   C     C_R   0.125759 0.543173 0.364584 -0.029521
C34   C     C_R   0.128394 0.502171 0.499634 -0.052940
C35   C     C_R   0.871700 0.442946 0.627904 -0.025308
C36   C     C_R   0.097583 0.499241 0.304957 0.408784
C37   C     C_R   0.880693 0.474628 0.697226 0.343223
C38   C     C_R   0.141992 0.513938 0.234299 0.358842
C39   C     C_R   0.818683 0.446362 0.758364 0.306980
C40   C     C_R   0.213112 0.574312 0.220539 0.193896
C41   C     C_R   0.752439 0.382588 0.752661 0.181572
C42   C     C_R   0.936970 0.528476 0.438986 0.246348
C43   C     C_R   0.063211 0.478076 0.562711 0.236871
C44   C     C_3   0.171629 0.596883 0.097193 0.042416
C45   C     C_R   0.935626 0.475383 0.562696 0.002253
C46   C     C_3   0.201036 0.553624 0.029431 -0.234409
C47   C     C_3   0.105237 0.560483 0.969288 -0.436871
C48   C     C_3   0.740000 0.354889 0.878331 0.049634
C49   C     C_3   0.680910 0.298526 0.927662 -0.261802
C50   C     C_3   0.734954 0.299625 0.005236 -0.472454
C51   C     C_3   0.356080 0.337967 0.299700 -0.000915
C52   C     C_3   0.232188 0.313526 0.269941 -0.245907
C53   C     C_3   0.228380 0.235902 0.255136 -0.496341
C54   C     C_3   0.710249 0.625172 0.689545 0.035668
C55   C     C_3   0.746974 0.695006 0.654512 -0.272994
C56   C     C_R   0.064818 0.525670 0.436549 -0.027923
C57   C     C_3   0.884392 0.708063 0.656807 -0.458416
C58   C     C_3   0.269664 0.735250 0.269634 0.039019
C59   C     C_3   0.289158 0.774714 0.196878 -0.258562
C60   C     C_3   0.231315 0.845330 0.199066 -0.502418
C61   C     C_3   0.736921 0.233226 0.706446 0.012228
C62   C     C_3   0.676007 0.165507 0.680827 -0.235017
C63   C     C_3   0.733669 0.102893 0.716608 -0.479581
C64   C     C_3   0.181676 0.669677 0.460659 0.000133
C65   C     C_3   0.193446 0.748744 0.456358 -0.268629
C66   C     C_3   0.136761 0.782175 0.523696 -0.477793
C67   C     C_R   0.438910 0.253009 0.555866 -0.068918
C68   C     C_3   0.845585 0.295891 0.535377 0.006593
C69   C     C_3   0.906394 0.306545 0.459734 -0.243926
C70   C     C_3   0.974484 0.243008 0.436067 -0.488270
C71   C     C_3   0.884502 0.623791 0.367205 0.052290
C72   C     C_3   0.831403 0.664850 0.431396 -0.284136
C73   C     C_3   0.840219 0.742380 0.414966 -0.465777
C74   C     C_3   0.137395 0.387982 0.631524 0.025503
C75   C     C_3   0.131156 0.366145 0.713122 -0.198839
C76   C     C_3   0.147438 0.288824 0.723452 -0.451020
C77   C     C_3   0.265580 0.111902 0.577675 0.025823
C78   C     C_R   0.543123 0.745469 0.435711 -0.131140
C79   C     C_3   0.152329 0.147652 0.604766 -0.283389
C80   C     C_3   0.036101 0.111924 0.576272 -0.490936
C81   C     C_3   0.561721 0.847621 0.312157 0.009896
C82   C     C_3   0.630309 0.895558 0.257374 -0.243435
C83   C     C_3   0.576052 0.891958 0.180043 -0.487143
C84   C     C_R   0.436859 0.180670 0.554764 0.251348
Cu1   Cu    Cu3+1 0.499990 0.499980 0.573360 1.083986
Cu2   Cu    Cu3+1 0.500010 0.500020 0.426640 1.122987
F1    F     F_    0.627163 0.599843 0.314607 -0.615486
F2    F     F_    0.410861 0.386893 0.686337 -0.618346
F3    F     F_    0.639638 0.599123 0.164903 -0.588569
F4    F     F_    0.408094 0.382819 0.834643 -0.594265
F5    F     F_    0.027229 0.440842 0.315767 -0.597482
F6    F     F_    0.946950 0.534681 0.705148 -0.603808
F7    F     F_    0.117517 0.468396 0.179231 -0.622846
F8    F     F_    0.820499 0.483117 0.821875 -0.633559
H1    H     H_    0.608412 0.286528 0.400600 0.136442
H2    H     H_    0.077123 0.583508 0.116451 0.163653
H3    H     H_    0.290995 0.571090 0.006673 0.187259
H4    H     H_    0.205927 0.498282 0.045900 0.239075
H5    H     H_    0.014809 0.541623 0.990102 0.194407
H6    H     H_    0.130271 0.528948 0.920855 0.188753
H7    H     H_    0.099770 0.615363 0.951214 0.155957
H8    H     H_    0.728354 0.405228 0.906188 0.225513
H9    H     H_    0.838668 0.344385 0.872244 0.123932
H10   H     H_    0.581549 0.306619 0.931746 0.239106
H11   H     H_    0.694473 0.246988 0.902773 0.150655
H12   H     H_    0.437751 0.717889 0.611394 0.175185
H13   H     H_    0.834219 0.291116 0.002727 0.159083
H14   H     H_    0.690851 0.257797 0.039412 0.152340
H15   H     H_    0.719120 0.350084 0.031986 0.179326
H16   H     H_    0.374354 0.307586 0.350550 0.157360
H17   H     H_    0.429924 0.326108 0.259753 0.104717
H18   H     H_    0.160605 0.325069 0.311089 0.223933
H19   H     H_    0.212174 0.341727 0.217908 0.224547
H20   H     H_    0.298294 0.223181 0.213374 0.156804
H21   H     H_    0.137412 0.219881 0.233665 0.160932
H22   H     H_    0.244914 0.206560 0.307036 0.145494
H23   H     H_    0.374595 0.413476 0.171834 0.166111
H24   H     H_    0.752842 0.584264 0.656913 0.195153
H25   H     H_    0.744757 0.623995 0.747356 0.179068
H26   H     H_    0.716893 0.696116 0.595963 0.166810
H27   H     H_    0.701777 0.736976 0.684657 0.175684
H28   H     H_    0.917559 0.705840 0.714671 0.186487
H29   H     H_    0.907103 0.760339 0.633791 0.133561
H30   H     H_    0.931072 0.668880 0.623377 0.178765
H31   H     H_    0.311686 0.766161 0.314783 0.141164
H32   H     H_    0.169614 0.730285 0.280738 0.093205
H33   H     H_    0.388033 0.781637 0.185781 0.182115
H34   H     H_    0.578708 0.600272 0.830198 0.159626
H35   H     H_    0.248123 0.744324 0.151091 0.178997
H36   H     H_    0.131490 0.838990 0.207557 0.152021
H37   H     H_    0.248511 0.873054 0.145817 0.153392
H38   H     H_    0.270795 0.877017 0.244511 0.140492
H39   H     H_    0.731173 0.235171 0.767713 0.169816
H40   H     H_    0.834609 0.233368 0.689662 0.078778
H41   H     H_    0.577862 0.165010 0.695608 0.231624
H42   H     H_    0.684728 0.161750 0.619802 0.166329
H43   H     H_    0.832054 0.102167 0.702851 0.140615
H44   H     H_    0.688632 0.054664 0.695764 0.186074
H45   H     H_    0.389322 0.278879 0.598702 0.176509
H46   H     H_    0.722358 0.104316 0.777632 0.146303
H47   H     H_    0.209407 0.652249 0.516620 0.159691
H48   H     H_    0.085250 0.654612 0.454431 0.108161
H49   H     H_    0.290250 0.765783 0.452523 0.187046
H50   H     H_    0.147544 0.767398 0.405922 0.128343
H51   H     H_    0.038837 0.767064 0.527708 0.147071
H52   H     H_    0.145936 0.839389 0.518335 0.151634
H53   H     H_    0.183466 0.765929 0.575012 0.157840
H54   H     H_    0.781428 0.250391 0.532930 0.171552
H55   H     H_    0.915732 0.283664 0.577263 0.090247
H56   H     H_    0.572730 0.717462 0.387780 0.187720
H57   H     H_    0.835941 0.317601 0.417797 0.197747
H58   H     H_    0.971295 0.351834 0.461760 0.186752
H59   H     H_    0.052995 0.235245 0.473109 0.141009
H60   H     H_    0.009194 0.250680 0.378790 0.164519
H61   H     H_    0.912996 0.196213 0.437410 0.146327
H62   H     H_    0.835031 0.636945 0.316030 0.232571
H63   H     H_    0.978483 0.641489 0.354515 0.066187
H64   H     H_    0.735145 0.648351 0.439995 0.202358
H65   H     H_    0.880622 0.654609 0.483561 0.117044
H66   H     H_    0.935995 0.759587 0.405371 0.138689
H67   H     H_    0.616149 0.160567 0.401761 0.140407
H68   H     H_    0.804279 0.771222 0.462676 0.172163
H69   H     H_    0.787337 0.754666 0.364702 0.193607
H70   H     H_    0.226672 0.374878 0.607637 0.185702
H71   H     H_    0.066831 0.357870 0.600776 0.074505
H72   H     H_    0.201850 0.395245 0.744825 0.248878
H73   H     H_    0.041677 0.378843 0.736691 0.138738
H74   H     H_    0.071060 0.259672 0.696815 0.098110
H75   H     H_    0.146776 0.275779 0.783363 0.175955
H76   H     H_    0.235345 0.273463 0.699371 0.208099
H77   H     H_    0.260892 0.057197 0.597196 0.174156
H78   H     H_    0.447550 0.843790 0.611196 0.144691
H79   H     H_    0.265045 0.110636 0.515890 0.114710
H80   H     H_    0.150475 0.146663 0.666190 0.179464
H81   H     H_    0.156296 0.202386 0.585399 0.143669
H82   H     H_    0.038429 0.108392 0.515043 0.151649
H83   H     H_    0.956443 0.142198 0.592540 0.139102
H84   H     H_    0.025398 0.058969 0.600300 0.154711
H85   H     H_    0.466050 0.864307 0.316668 0.132673
H86   H     H_    0.563142 0.793775 0.291063 0.159716
H87   H     H_    0.627705 0.949757 0.277259 0.193269
H88   H     H_    0.726986 0.880780 0.254461 0.173567
H89   H     H_    0.172710 0.652204 0.080184 0.122093
H90   H     H_    0.581581 0.838736 0.157947 0.169585
H91   H     H_    0.628044 0.927990 0.142565 0.150746
H92   H     H_    0.479900 0.907470 0.181194 0.149877
N1    N     N_R   0.523946 0.036329 0.436218 -0.260273
N2    N     N_R   0.556443 0.550842 0.036214 -0.119437
N3    N     N_R   0.513537 0.965454 0.564855 -0.262115
N4    N     N_R   0.527376 0.967672 0.436000 -0.189383
N5    N     N_R   0.509965 0.034182 0.565130 -0.203706
N6    N     N_R   0.500010 0.500050 0.316380 -0.247246
N7    N     N_R   0.499990 0.499950 0.683620 -0.254145
N8    N     N_R   0.451093 0.444215 0.038969 -0.263914
N9    N     N_R   0.555226 0.550292 0.962337 -0.232785
N10   N     N_R   0.449980 0.443637 0.965026 -0.160275
O1    O     O_R   0.500010 0.400130 0.561970 -0.420521
O2    O     O_3   0.679517 0.355252 0.809556 -0.516101
O3    O     O_3   0.351744 0.408451 0.320031 -0.519598
O4    O     O_3   0.582622 0.616226 0.687212 -0.555539
O5    O     O_3   0.329245 0.671555 0.266335 -0.490457
O6    O     O_3   0.676066 0.289421 0.674617 -0.483878
O7    O     O_3   0.261131 0.640128 0.408953 -0.530435
O8    O     O_3   0.778109 0.354931 0.551053 -0.545513
O9    O     O_3   0.872542 0.550983 0.377611 -0.489846
O10   O     O_3   0.124237 0.460436 0.626818 -0.495109
O11   O     O_3   0.370804 0.144458 0.608745 -0.566918
O12   O     O_R   0.499990 0.599870 0.438030 -0.428098
O13   O     O_3   0.620921 0.852768 0.380995 -0.568855
O14   O     O_R   0.500020 0.400160 0.438070 -0.500892
O15   O     O_R   0.499980 0.599840 0.561930 -0.472200
O16   O     O_R   0.319640 0.499990 0.561950 -0.458706
O17   O     O_R   0.680360 0.500010 0.438050 -0.424099
O18   O     O_R   0.319650 0.500020 0.438050 -0.461775
O19   O     O_R   0.680350 0.499980 0.561950 -0.537971
O20   O     O_3   0.263080 0.588267 0.151231 -0.526579

loop_
_geom_bond_atom_site_label_1
_geom_bond_atom_site_label_2
_ccdc_geom_bond_type
C22   H23   S    
C81   O13   S    
C55   H27   S    
C34   C56   A    
C23   C45   A    
C68   O8    S    
C70   H59   S    
C63   H46   S    
C14   C18   A    
N8    N10   A    
Cu1   O16   S    
C60   H38   S    
C49   H10   S    
Cu2   O18   S    
C81   C82   S    
C10   C78   A    
C61   H39   S    
C76   H75   S    
C39   C41   A    
C6    H78   S    
C52   H19   S    
C53   H20   S    
C15   C19   A    
C73   H66   S    
C17   C23   S    
C72   H65   S    
C2    C4    A    
C25   O3    S    
C12   O12   A    
C19   C21   A    
C24   C26   A    
C14   F1    S    
C77   O11   S    
C65   H49   S    
C64   H47   S    
C52   H18   S    
C59   H33   S    
C33   C36   A    
C47   H5    S    
C29   C40   A    
C42   O9    S    
C54   O4    S    
C62   H42   S    
N3    N5    A    
C66   H51   S    
C68   H55   S    
C42   C56   A    
C57   H28   S    
C46   C47   S    
C58   O5    S    
C68   C69   S    
N1    N4    A    
C22   C25   A    
C28   N8    A    
C31   C33   A    
C83   H92   S    
C51   H17   S    
C30   C32   A    
C26   O4    S    
C31   O7    S    
C3    C13   S    
C53   H22   S    
C14   N6    A    
C33   C56   S    
C21   C27   S    
C67   C84   A    
C38   C40   A    
C70   H60   S    
C54   H25   S    
C43   O10   S    
C50   H14   S    
C63   H43   S    
C79   H80   S    
C69   C70   S    
C81   H86   S    
C17   O17   A    
Cu1   O15   S    
C60   H37   S    
C44   C46   S    
C61   H40   S    
C10   C12   S    
C55   H26   S    
C77   C79   S    
C71   H63   S    
C29   O5    S    
C74   C75   S    
C51   C52   S    
C69   H57   S    
C32   C35   A    
C79   H81   S    
C16   O16   A    
C1    C9    S    
N2    N9    A    
C4    C6    A    
Cu2   O12   S    
C5    C7    A    
C65   H50   S    
C72   C73   S    
Cu1   O19   S    
C49   H11   S    
C20   C28   S    
C58   C59   S    
Cu1   Cu2   S    
C48   H9    S    
C82   C83   S    
C50   H15   S    
C47   H6    S    
C70   H61   S    
C48   O2    S    
C11   N3    A    
C80   H84   S    
C62   H41   S    
C32   O8    S    
C16   O18   A    
C75   C76   S    
C9    C67   A    
C39   F8    S    
C62   C63   S    
C44   H2    S    
C61   O6    S    
C57   H29   S    
C23   C42   A    
C82   H87   S    
C71   O9    S    
C77   H77   S    
C48   H8    S    
C40   O20   S    
C80   H82   S    
C30   C41   A    
C4    C11   S    
C76   H76   S    
C43   C45   A    
C44   H89   S    
C81   H85   S    
C66   H53   S    
C51   O3    S    
C68   H54   S    
C36   F5    S    
Cu1   O1    S    
C48   C49   S    
C46   H3    S    
C20   C22   A    
C58   H32   S    
C51   H16   S    
C55   C57   S    
C50   H13   S    
C63   H44   S    
C27   N9    A    
C60   H36   S    
C35   C45   S    
C54   H24   S    
C67   H45   S    
C52   C53   S    
C78   H56   S    
C18   F3    S    
C2    C78   A    
C74   O10   S    
C72   H64   S    
C13   N1    A    
C7    C9    A    
C54   C55   S    
C59   H35   S    
C2    O13   S    
C77   H79   S    
C37   F6    S    
C35   C37   A    
C1    O14   A    
C44   O20   S    
C69   H58   S    
C64   O7    S    
C8    C10   A    
C1    O1    A    
C34   C43   A    
Cu2   O14   S    
C12   O15   A    
C41   O2    S    
C3    C5    A    
C25   N6    A    
C8    H12   S    
C6    C8    A    
C37   C39   A    
C7    H1    S    
C82   H88   S    
Cu2   N6    S    
C13   N5    A    
C11   N4    A    
C64   C65   S    
C73   H68   S    
C28   N2    A    
Cu2   O17   S    
C71   C72   S    
C29   C31   A    
C19   F4    S    
C80   H83   S    
C57   H30   S    
C74   H70   S    
C84   O11   S    
Cu1   N7    S    
C64   H48   S    
C71   H62   S    
C38   F7    S    
C36   C38   A    
C83   H90   S    
C76   H74   S    
C75   H72   S    
C18   C20   A    
C47   H7    S    
C65   C66   S    
C46   H4    S    
C61   C62   S    
C66   H52   S    
C79   C80   S    
C15   N7    A    
C59   C60   S    
C30   O6    S    
C58   H31   S    
C73   H69   S    
C49   C50   S    
C21   C24   A    
C3    C84   A    
C24   H34   S    
C83   H91   S    
C75   H73   S    
C27   N10   A    
C17   O19   A    
C26   N7    A    
C74   H71   S    
C53   H21   S    
C16   C34   S    
C5    H67   S    
C15   F2    S    
