data_mof_unit_10828.cif
_audit_creation_date              2012-12-10T20:35:49-0500
_audit_creation_method            fapswitch 2.2
_symmetry_space_group_name_H-M    P1
_symmetry_Int_Tables_number       1
_space_group_crystal_system       triclinic
_cell_length_a                    15.763811
_cell_length_b                    10.674954
_cell_length_c                    9.887753
_cell_angle_alpha                 90.444304
_cell_angle_beta                  90.668692
_cell_angle_gamma                 90.621812
_cell_volume                      1663.62789881

loop_
_atom_site_label
_atom_site_type_symbol
_atom_type_description
_atom_site_fract_x
_atom_site_fract_y
_atom_site_fract_z
_atom_type_partial_charge
C1    C     C_R   0.503946 0.259996 0.499555 0.924417
C2    C     C_3   0.952040 0.433843 0.631694 0.678602
C3    C     C_3   0.917056 0.504875 0.502527 -0.303219
C4    C     C_3   0.950314 0.645582 0.499534 0.469369
C5    C     C_3   0.051150 0.646012 0.503147 0.674003
C6    C     C_1   0.825356 0.502866 0.502813 0.312376
C7    C     C_1   0.174823 0.502831 0.498141 0.239297
C8    C     C_1   0.249912 0.501129 0.498054 -0.103267
C9    C     C_R   0.514423 0.064987 0.622142 0.009204
C10   C     C_R   0.519702 0.128684 0.499920 -0.193976
C11   C     C_R   0.543255 0.063655 0.381338 0.485306
C12   C     C_R   0.338481 0.499818 0.499370 0.885601
C13   C     C_R   0.542317 0.932918 0.383815 -0.292449
C14   C     C_R   0.518475 0.871106 0.502206 -0.126372
C15   C     C_R   0.513241 0.937255 0.623072 0.076783
C16   C     C_3   0.448863 0.929499 0.732700 -0.484420
C17   C     C_3   0.449887 0.071961 0.732479 0.276423
C18   C     C_R   0.455552 0.410540 0.069560 0.129616
C19   C     C_R   0.549148 0.581463 0.075057 -0.091355
C20   C     C_R   0.549996 0.582081 0.932121 0.454318
C21   C     C_R   0.454993 0.411151 0.927017 0.139946
C22   C     C_3   0.361415 0.388819 0.918630 -0.472370
C23   C     C_R   0.503195 0.739908 0.500475 0.910488
C24   C     C_3   0.361734 0.388167 0.072680 0.273834
C25   C     C_R   0.661556 0.500120 0.500652 0.883833
C26   C     C_3   0.051451 0.431260 0.626354 -0.041412
C27   C     C_3   0.047619 0.433729 0.369025 0.637228
C28   C     C_3   0.948071 0.438240 0.369609 0.059157
C29   C     C_1   0.750205 0.501349 0.502202 -0.053121
C30   C     C_3   0.083272 0.505119 0.499379 -0.308034
H1    H     H_    0.554705 0.880614 0.291916 0.172352
H2    H     H_    0.387487 0.888153 0.696839 0.190744
H3    H     H_    0.475200 0.887332 0.826505 0.238672
H4    H     H_    0.388902 0.114358 0.699992 0.141551
H5    H     H_    0.587627 0.648550 0.131767 0.183093
H6    H     H_    0.071599 0.332795 0.614661 0.212493
H7    H     H_    0.326878 0.469794 0.875506 0.218554
H8    H     H_    0.345027 0.296951 0.870985 0.244271
H9    H     H_    0.326146 0.466698 0.118841 0.178886
H10   H     H_    0.925941 0.493891 0.281684 0.217043
N1    N     N_R   0.499430 0.499140 0.142800 -0.168299
N2    N     N_R   0.499430 0.499180 0.857150 -0.169150
O1    O     O_R   0.500010 0.316790 0.614690 -0.602240
O2    O     O_R   0.500000 0.316760 0.385350 -0.533992
O3    O     O_R   0.377150 0.500020 0.614720 -0.616032
O4    O     O_R   0.377140 0.499990 0.385380 -0.606583
O5    O     O_R   0.500000 0.683240 0.614650 -0.636025
O6    O     O_R   0.499990 0.683210 0.385310 -0.634101
O7    O     O_R   0.622860 0.500010 0.614620 -0.623236
O8    O     O_R   0.622850 0.499980 0.385280 -0.599163
Zn1   Zn    Zn3+2 0.500010 0.500020 0.653130 0.993748
Zn2   Zn    Zn3+2 0.499990 0.499980 0.346870 1.017563
Cl1   Cl    Cl    0.913293 0.274441 0.636014 -0.388980
Cl2   Cl    Cl    0.106308 0.466849 0.783746 -0.493172
O9    O     O_3   0.920722 0.487437 0.751835 -0.636751
H11   H     H_    0.956585 0.559063 0.780803 0.382591
Cl3   Cl    Cl    0.910284 0.724101 0.350258 -0.403993
O10   O     O_3   0.562054 0.127684 0.264215 -0.712247
H12   H     H_    0.575546 0.066690 0.191531 0.344598
O11   O     O_3   0.482616 0.125174 0.853251 -0.740763
H13   H     H_    0.539360 0.089290 0.872100 0.367579
O12   O     O_3   0.601482 0.670534 0.873585 -0.741580
H14   H     H_    0.604380 0.652760 0.776597 0.393834
O13   O     O_3   0.339598 0.271184 0.127741 -0.661876
H15   H     H_    0.376991 0.206197 0.088707 0.375316
Cl4   Cl    Cl    0.084501 0.503046 0.214549 -0.408239
O14   O     O_3   0.078725 0.309899 0.363286 -0.670671
H16   H     H_    0.044789 0.253739 0.421127 0.382066
O15   O     O_3   0.910305 0.318927 0.352719 -0.669089
H17   H     H_    0.920432 0.292182 0.257870 0.400611
O16   O     O_3   0.084678 0.710918 0.617464 -0.680350
H18   H     H_    0.056664 0.681846 0.700044 0.379497
O17   O     O_3   0.081171 0.710514 0.389001 -0.613358
H19   H     H_    0.142718 0.728174 0.402241 0.371289
Cl5   Cl    Cl    0.904558 0.741216 0.630844 -0.446268

loop_
_geom_bond_atom_site_label_1
_geom_bond_atom_site_label_2
_ccdc_geom_bond_type
O9    H11   S    
C18   C21   A    
O17   H19   S    
C28   O15   S    
C3    C6    S    
C7    C8    T    
C18   C24   S    
C3    C28   S    
C2    O9    S    
C28   H10   S    
C15   C16   S    
C22   H8    S    
O4    Zn2   S    
C24   H9    S    
C25   O8    A    
C4    Cl5   S    
C1    O1    A    
C19   C20   A    
C16   C17   S    
O7    Zn1   S    
C4    Cl3   S    
O8    Zn2   S    
C11   O10   S    
C9    C10   A    
N1    Zn2   S    
N2    Zn1   S    
O2    Zn2   S    
C24   O13   S    
C7    C30   S    
C13   C14   A    
C27   C30   S    
C5    O17   S    
C26   Cl2   S    
C25   C29   S    
C23   O5    A    
O14   H16   S    
C12   O4    A    
C18   N1    A    
C12   O3    A    
O5    Zn1   S    
O10   H12   S    
C22   H7    S    
O11   H13   S    
C14   C23   S    
O12   H14   S    
C16   H3    S    
C1    O2    A    
C8    C12   S    
C2    C26   S    
C9    C17   S    
C26   C30   S    
C22   C24   S    
C17   H4    S    
C3    C4    S    
C5    C30   S    
C26   H6    S    
C23   O6    A    
C13   H1    S    
C1    C10   S    
C4    C5    S    
C2    Cl1   S    
C20   N2    A    
C16   H2    S    
O13   H15   S    
C2    C3    S    
C9    C15   A    
O16   H18   S    
C5    O16   S    
C27   Cl4   S    
C19   H5    S    
C11   C13   A    
O1    Zn1   S    
C20   O12   S    
O15   H17   S    
C25   O7    A    
C27   O14   S    
C10   C11   A    
C17   O11   S    
C21   N2    A    
O6    Zn2   S    
C6    C29   T    
C27   C28   S    
O3    Zn1   S    
C14   C15   A    
C21   C22   S    
C19   N1    A    
