data_mof_unit_11572.cif
_audit_creation_date              2012-12-10T17:02:19-0500
_audit_creation_method            fapswitch 2.2
_symmetry_space_group_name_H-M    P1
_symmetry_Int_Tables_number       1
_space_group_crystal_system       triclinic
_cell_length_a                    10.640991
_cell_length_b                    10.748357
_cell_length_c                    10.064322
_cell_angle_alpha                 89.472209
_cell_angle_beta                  90.245529
_cell_angle_gamma                 89.592244
_cell_volume                      1150.99953043

loop_
_atom_site_label
_atom_site_type_symbol
_atom_type_description
_atom_site_fract_x
_atom_site_fract_y
_atom_site_fract_z
_atom_type_partial_charge
C1    C     C_R   0.506150 0.262700 0.500623 0.842441
C2    C     C_2   0.529989 0.131720 0.502288 -0.160566
C3    C     C_2   0.495350 0.599715 0.924613 -0.075719
C4    C     C_R   0.260813 0.499454 0.499693 0.859000
C5    C     C_2   0.520302 0.597184 0.071712 0.000474
C6    C     C_R   0.494635 0.736842 0.499138 0.916947
C7    C     C_R   0.739273 0.497771 0.500267 0.858371
C8    C     C_R   0.134790 0.279836 0.590822 -0.135436
C9    C     C_R   0.071264 0.175070 0.636749 -0.121073
C10   C     C_R   0.940616 0.174824 0.639397 -0.119468
C11   C     C_R   0.873066 0.279197 0.595661 -0.162425
C12   C     C_R   0.067685 0.387021 0.547052 0.083751
C13   C     C_R   0.936112 0.386269 0.548909 0.087984
C14   C     C_1   0.123702 0.708962 0.400145 0.178919
C15   C     C_1   0.591622 0.079153 0.619606 0.177032
C16   C     C_R   0.128271 0.494612 0.498785 -0.131220
C17   C     C_R   0.061714 0.598242 0.449147 -0.013773
C18   C     C_R   0.932875 0.595882 0.449911 -0.233051
C19   C     C_R   0.871564 0.492288 0.500716 -0.098316
C20   C     C_2   0.513044 0.932984 0.390042 -0.159422
C21   C     C_2   0.476717 0.867538 0.495866 -0.286375
C22   C     C_2   0.504063 0.066633 0.392438 -0.190309
Cl1   Cl    Cl    0.395647 0.389124 0.095592 -0.525006
H1    H     H_    0.478502 0.689144 0.876881 0.152733
H2    H     H_    0.433594 0.910402 0.581869 0.156819
H3    H     H_    0.471326 0.111950 0.301587 0.207255
H4    H     H_    0.539411 0.422770 0.895952 0.226061
H5    H     H_    0.554628 0.681857 0.116528 0.100236
H6    H     H_    0.236277 0.275284 0.588720 0.143325
H7    H     H_    0.123577 0.093651 0.669744 0.145789
H8    H     H_    0.891659 0.093156 0.674601 0.159424
H9    H     H_    0.771737 0.274931 0.597684 0.139027
H10   H     H_    0.879638 0.675697 0.412972 0.149017
H11   H     H_    0.547883 0.889069 0.300455 0.173489
N1    N     N_2   0.501340 0.501330 0.852150 -0.166382
N2    N     N_2   0.501380 0.501360 0.147810 0.053935
N3    N     N_1   0.173286 0.797428 0.361039 -0.192918
N4    N     N_1   0.640221 0.037533 0.713205 -0.214532
O1    O     O_R   0.499980 0.319060 0.613040 -0.621433
O2    O     O_R   0.500020 0.319100 0.386900 -0.572147
O3    O     O_R   0.316750 0.499980 0.613090 -0.605754
O4    O     O_R   0.316790 0.500020 0.386950 -0.561054
O5    O     O_R   0.499980 0.680900 0.613100 -0.623635
O6    O     O_R   0.500020 0.680940 0.386960 -0.627776
O7    O     O_R   0.683210 0.499980 0.613050 -0.617331
O8    O     O_R   0.683250 0.500020 0.386910 -0.613754
Zn1   Zn    Zn3+2 0.499970 0.499970 0.650990 0.976433
Zn2   Zn    Zn3+2 0.500030 0.500030 0.349010 1.040414

loop_
_geom_bond_atom_site_label_1
_geom_bond_atom_site_label_2
_ccdc_geom_bond_type
C2    C22   D    
C7    O8    A    
C15   N4    T    
C4    C16   S    
C5    H5    S    
C9    C10   A    
C1    C2    S    
C3    N1    D    
C8    C12   A    
C20   H11   S    
C17   C18   A    
O3    Zn1   S    
N1    Zn1   S    
C6    O6    A    
C12   C13   A    
C14   N3    T    
C2    C15   S    
C11   C13   A    
C14   C17   S    
C3    H1    S    
O4    Zn2   S    
C4    O4    A    
C9    H7    S    
C8    H6    S    
C7    O7    A    
C20   C22   S    
C11   H9    S    
N2    Zn2   S    
C7    C19   S    
C6    O5    A    
O7    Zn1   S    
C22   H3    S    
C18   H10   S    
O8    Zn2   S    
C16   C17   A    
C10   C11   A    
C1    O1    A    
C5    N2    D    
C12   C16   A    
C20   C21   D    
O1    Zn1   S    
Cl1   N2    S    
C4    O3    A    
O2    Zn2   S    
C13   C19   A    
C18   C19   A    
C21   H2    S    
C1    O2    A    
H4    N1    S    
C6    C21   S    
O5    Zn1   S    
C10   H8    S    
O6    Zn2   S    
C8    C9    A    
C3    C5    S    
