data_mof_unit_58403.cif
_audit_creation_date              2013-03-05T15:41:54-0500
_audit_creation_method            fapswitch 2.2
_symmetry_space_group_name_H-M    P1
_symmetry_Int_Tables_number       1
_space_group_crystal_system       triclinic
_cell_length_a                    23.477862
_cell_length_b                    8.681259
_cell_length_c                    7.439747
_cell_angle_alpha                 102.999288
_cell_angle_beta                  94.142077
_cell_angle_gamma                 92.349385
_cell_volume                      1471.07263202

loop_
_atom_site_label
_atom_site_type_symbol
_atom_site_description
_atom_site_fract_x
_atom_site_fract_y
_atom_site_fract_z
_atom_type_partial_charge
O1    O     O_R   0.504120 0.286130 0.619770 -0.583377
O2    O     O_R   0.495880 0.713870 0.380230 -0.584489
O3    O     O_R   0.493410 0.256770 0.308360 -0.581882
O4    O     O_R   0.506590 0.743230 0.691640 -0.582438
C1    C     C_R   0.498279 0.199665 0.453205 0.891738
C2    C     C_R   0.501718 0.800335 0.546795 0.889475
O5    O     O_R   0.423230 0.514630 0.655730 -0.589801
O6    O     O_R   0.576770 0.485370 0.344270 -0.591203
O7    O     O_R   0.412530 0.485280 0.344320 -0.582437
O8    O     O_R   0.587470 0.514720 0.655680 -0.580305
C3    C     C_R   0.391019 0.499978 0.502514 0.824787
C4    C     C_R   0.609052 0.500819 0.497551 0.829177
Cu1   Cu    Cu3+1 0.506340 0.517380 0.684380 0.968343
Cu2   Cu    Cu3+1 0.493660 0.482620 0.315620 0.966197
C5    C     C_R   0.884316 0.648870 0.532495 0.595565
C6    C     C_R   0.116423 0.355807 0.484875 0.605623
N1    N     N_R   0.852087 0.508469 0.490954 -0.451696
N2    N     N_R   0.148500 0.496230 0.520095 -0.453972
C7    C     C_R   0.876796 0.365715 0.460370 0.628275
C8    C     C_R   0.123891 0.638978 0.558947 0.634254
C9    C     C_R   0.936496 0.360241 0.467949 -0.020219
C10   C     C_R   0.064283 0.644427 0.557119 -0.014600
C11   C     C_R   0.970334 0.503568 0.509303 -0.008826
C12   C     C_R   0.030469 0.501078 0.516505 -0.005959
C13   C     C_R   0.944176 0.649390 0.542717 -0.014168
C14   C     C_R   0.056632 0.355258 0.481825 -0.009459
C15   C     C_R   0.963026 0.215536 0.435215 -0.143855
C16   C     C_R   0.037792 0.789141 0.592347 -0.140484
C17   C     C_R   0.022501 0.213064 0.442013 -0.156642
C18   C     C_R   0.978325 0.791602 0.585063 -0.158855
O9    O     O_2   0.858412 0.787234 0.562791 -0.497320
O10   O     O_2   0.142318 0.217495 0.449963 -0.495055
O11   O     O_2   0.843627 0.229836 0.423344 -0.481632
O12   O     O_2   0.157068 0.774898 0.597507 -0.483101
H1    H     H_    0.937934 0.103832 0.403093 0.197734
H2    H     H_    0.062882 0.900851 0.624593 0.195909
H3    H     H_    0.041581 0.099522 0.414554 0.188453
H4    H     H_    0.959245 0.905144 0.612317 0.187077
C19   C     C_R   0.235007 0.529922 0.358183 0.383930
C20   C     C_R   0.756158 0.470614 0.317785 0.391612
C21   C     C_R   0.294694 0.532412 0.358386 -0.267595
C22   C     C_R   0.696468 0.467063 0.323168 -0.278089
H5    H     H_    0.314716 0.559202 0.241400 0.191518
H6    H     H_    0.669383 0.436574 0.194650 0.195351
C23   C     C_R   0.328584 0.499933 0.507253 -0.096830
C24   C     C_R   0.671627 0.503650 0.492731 -0.112205
C25   C     C_R   0.302405 0.465241 0.658104 -0.195270
C26   C     C_R   0.706974 0.544446 0.658462 -0.152189
H7    H     H_    0.327701 0.439294 0.774167 0.167216
H8    H     H_    0.689026 0.573713 0.791186 0.185009
C27   C     C_R   0.243088 0.461311 0.659040 -0.088946
C28   C     C_R   0.766076 0.548322 0.655060 -0.087242
H9    H     H_    0.223240 0.433730 0.775801 0.205057
H10   H     H_    0.792834 0.578896 0.784181 0.207767
C29   C     C_R   0.209200 0.493910 0.510824 0.229971
C30   C     C_R   0.791030 0.511115 0.486682 0.221918
C31   C     C_2   0.497451 0.031756 0.426852 -0.353885
C32   C     C_2   0.502541 0.968243 0.573149 -0.352471
H11   H     H_    0.492653 0.960069 0.285898 0.181228
H12   H     H_    0.507339 0.039930 0.714103 0.181648
N3    N     N_2   0.484110 0.456420 0.038520 -0.215517
N4    N     N_2   0.515890 0.543580 0.961480 -0.214976
H13   H     H_    0.454911 0.379284 0.948788 0.225659
H14   H     H_    0.545088 0.620717 0.051209 0.227834
N5    N     N_R   0.201510 0.564412 0.203615 0.125581
O13   O     O_R   0.150544 0.497606 0.151717 -0.357818
O14   O     O_R   0.223429 0.655088 0.105719 -0.348590
N6    N     N_R   0.780398 0.433130 0.141734 0.127219
O15   O     O_R   0.830753 0.492215 0.121647 -0.362748
O16   O     O_R   0.750584 0.347243 0.996807 -0.354979

loop_
_geom_bond_atom_site_label_1
_geom_bond_atom_site_label_2
_geom_bond_distance
_ccdc_geom_bond_type
N4    H14   1.029147 S    
O7    Cu2   1.932455 S    
O8    Cu1   1.932455 S    
C5    O9    1.349588 S    
O6    C4    1.300334 A    
C6    O10   1.349504 S    
C21   H5    1.083412 S    
C2    C32   1.425533 S    
C27   C29   1.400402 A    
N5    O14   1.301464 A    
C1    C31   1.425536 S    
C11   C12   1.410233 A    
C8    O12   1.349595 S    
C15   H1    1.083093 S    
C26   H8    1.083131 S    
C9    C15   1.404910 A    
C20   N6    1.440966 S    
C25   H7    1.083256 S    
C6    N2    1.369087 A    
C10   C16   1.404741 A    
Cu1   Cu2   2.684879 S    
O5    C3    1.299927 A    
C19   N5    1.440172 S    
N1    C30   1.432803 S    
O7    C3    1.296179 A    
C31   C32   1.326471 D    
O2    C2    1.290896 A    
O3    Cu2   1.948978 S    
C22   H6    1.083112 S    
N2    C29   1.432494 S    
C14   C17   1.404917 A    
O1    C1    1.290893 A    
O8    C4    1.297133 A    
C13   C18   1.404855 A    
C16   C18   1.394522 A    
C7    C9    1.401871 A    
C28   H10   1.082759 S    
C26   C28   1.388809 A    
N2    C8    1.369214 A    
C11   C13   1.409157 A    
C9    C11   1.409040 A    
C6    C14   1.402103 A    
N3    N4    1.291644 D    
O2    Cu2   1.953885 S    
C10   C12   1.409038 A    
C3    C23   1.468789 S    
O4    C2    1.283455 A    
C31   H11   1.087786 S    
C8    C10   1.401388 A    
C32   H12   1.087787 S    
C24   C26   1.402163 A    
O3    C1    1.283453 A    
O5    Cu1   1.946063 S    
C16   H2    1.083103 S    
O1    Cu1   1.953885 S    
C15   C17   1.394842 A    
C18   H4    1.082939 S    
C5    C13   1.401698 A    
C19   C21   1.400494 A    
N5    O13   1.301078 A    
C22   C24   1.404863 A    
C23   C25   1.401625 A    
C17   H3    1.082953 S    
O4    Cu1   1.948978 S    
N3    H13   1.029161 S    
N6    O16   1.301903 A    
C21   C23   1.403839 A    
N1    C7    1.369410 A    
C25   C27   1.392219 A    
O6    Cu2   1.946063 S    
C27   H9    1.082571 S    
C7    O11   1.349553 S    
C5    N1    1.369233 A    
Cu2   N3    2.017451 S    
N6    O15   1.301313 A    
C19   C29   1.413513 A    
Cu1   N4    2.017451 S    
C28   C30   1.398671 A    
C12   C14   1.409290 A    
C20   C22   1.404141 A    
C20   C30   1.414868 A    
C4    C24   1.471487 S    
