data_mof_unit_68134.cif
_audit_creation_date              2012-12-11T16:06:35-0500
_audit_creation_method            fapswitch 2.2
_symmetry_space_group_name_H-M    P1
_symmetry_Int_Tables_number       1
_space_group_crystal_system       triclinic
_cell_length_a                    7.215757
_cell_length_b                    14.373874
_cell_length_c                    15.872957
_cell_angle_alpha                 90.000089
_cell_angle_beta                  90.022723
_cell_angle_gamma                 89.999698
_cell_volume                      1646.31728703

loop_
_atom_site_label
_atom_site_type_symbol
_atom_type_description
_atom_site_fract_x
_atom_site_fract_y
_atom_site_fract_z
_atom_type_partial_charge
O1    O     O_R   0.388780 0.834790 0.412340 -0.537060
O2    O     O_R   0.111220 0.165210 0.912340 -0.538578
O3    O     O_R   0.888780 0.665210 0.587660 -0.538578
O4    O     O_R   0.611220 0.334790 0.087660 -0.537058
O5    O     O_R   0.059040 0.845930 0.587040 -0.546465
O6    O     O_R   0.440960 0.154070 0.087040 -0.539023
O7    O     O_R   0.559040 0.654070 0.412960 -0.539026
O8    O     O_R   0.940960 0.345930 0.912960 -0.546465
C1    C     C_R   0.227952 0.868376 0.615069 0.696971
C2    C     C_R   0.272118 0.130862 0.114265 0.673255
C3    C     C_R   0.727882 0.630863 0.385736 0.673257
C4    C     C_R   0.772048 0.368376 0.884930 0.696966
O9    O     O_R   0.059070 0.845930 0.412970 -0.546940
O10   O     O_R   0.440930 0.154070 0.912970 -0.539722
O11   O     O_R   0.559070 0.654070 0.587030 -0.539721
O12   O     O_R   0.940930 0.345930 0.087030 -0.546939
O13   O     O_R   0.888760 0.665210 0.412340 -0.541526
O14   O     O_R   0.611240 0.334790 0.912340 -0.540211
O15   O     O_R   0.388760 0.834790 0.587660 -0.540212
O16   O     O_R   0.111240 0.165210 0.087660 -0.541526
C5    C     C_R   0.227568 0.867315 0.384039 0.669658
C6    C     C_R   0.272537 0.132951 0.884037 0.673109
C7    C     C_R   0.727464 0.632950 0.615962 0.673111
C8    C     C_R   0.772432 0.367314 0.115962 0.669659
O17   O     O_3   0.222280 0.690700 0.500000 -0.377286
O18   O     O_3   0.277720 0.309300 0.000000 -0.379670
O19   O     O_3   0.722280 0.809300 0.500000 -0.379672
O20   O     O_3   0.777720 0.190700 0.000000 -0.377284
V1    V     V_3+5 0.947430 0.761000 0.500000 1.347141
V2    V     V_3+5 0.552570 0.239000 0.000000 1.368433
V3    V     V_3+5 0.447430 0.739000 0.500000 1.368423
V4    V     V_3+5 0.052570 0.261000 0.000000 1.347146
C9    C     C_3   0.866218 0.599409 0.759836 -0.379929
C10   C     C_3   0.568895 0.432846 0.232584 -0.343909
C11   C     C_3   0.431107 0.932849 0.267420 -0.343913
C12   C     C_3   0.133786 0.099412 0.740161 -0.379933
H1    H     H_    0.003416 0.620217 0.733982 0.110019
H2    H     H_    0.458624 0.453191 0.187178 0.112841
H3    H     H_    0.541374 0.953196 0.312827 0.112847
H4    H     H_    0.996591 0.120226 0.766015 0.110018
H5    H     H_    0.803955 0.662703 0.788699 0.144766
H6    H     H_    0.538989 0.360010 0.252207 0.143321
H7    H     H_    0.461019 0.860012 0.247798 0.143320
H8    H     H_    0.196056 0.162703 0.711295 0.144770
C13   C     C_3   0.896973 0.522856 0.828143 0.352577
C14   C     C_3   0.559442 0.498809 0.310114 0.331018
C15   C     C_3   0.440561 0.998810 0.189889 0.331020
C16   C     C_3   0.103022 0.022857 0.671857 0.352577
H9    H     H_    0.039514 0.494537 0.819310 0.047673
H10   H     H_    0.438886 0.546748 0.301065 0.028520
H11   H     H_    0.561113 0.046751 0.198940 0.028515
H12   H     H_    0.960484 0.994537 0.680696 0.047673
H13   H     H_    0.960403 0.478732 0.635391 0.148969
H14   H     H_    0.703593 0.554487 0.103070 0.156862
H15   H     H_    0.296393 0.054490 0.396931 0.156865
H16   H     H_    0.039588 0.978739 0.864598 0.148971
H17   H     H_    0.950182 0.360214 0.732293 0.133732
H18   H     H_    0.638720 0.652055 0.214787 0.137189
H19   H     H_    0.361269 0.152057 0.285214 0.137186
H20   H     H_    0.049829 0.860211 0.767707 0.133728
C17   C     C_3   0.815178 0.468617 0.656778 -0.339098
C18   C     C_3   0.795016 0.537868 0.157072 -0.333748
C19   C     C_3   0.204974 0.037869 0.342928 -0.333749
C20   C     C_3   0.184819 0.968620 0.843219 -0.339105
C21   C     C_3   0.544207 0.545412 0.727987 -0.330783
C22   C     C_3   0.910185 0.416227 0.257251 -0.337093
C23   C     C_3   0.089820 0.916226 0.242747 -0.337096
C24   C     C_3   0.455794 0.045411 0.772012 -0.330785
C25   C     C_3   0.737633 0.563272 0.688217 0.079603
C26   C     C_3   0.761959 0.436909 0.188663 0.074793
C27   C     C_3   0.238040 0.936910 0.311338 0.074799
C28   C     C_3   0.262368 0.063273 0.811782 0.079601
H21   H     H_    0.450268 0.513470 0.680416 0.151222
H22   H     H_    0.050992 0.413874 0.228771 0.135561
H23   H     H_    0.949012 0.913871 0.271226 0.135558
H24   H     H_    0.549730 0.013466 0.819583 0.151220
H25   H     H_    0.480272 0.612278 0.748188 0.130661
H26   H     H_    0.883654 0.346852 0.285955 0.136866
H27   H     H_    0.116359 0.846851 0.214044 0.136864
H28   H     H_    0.519733 0.112276 0.751813 0.130660
C29   C     C_3   0.760663 0.439950 0.813757 0.072616
C30   C     C_3   0.738614 0.559285 0.314895 0.080743
C31   C     C_3   0.261387 0.059285 0.185106 0.080742
C32   C     C_3   0.239337 0.939951 0.686242 0.072618
C33   C     C_3   0.812090 0.394423 0.728135 -0.433048
C34   C     C_3   0.763673 0.609415 0.228960 -0.432188
C35   C     C_3   0.236318 0.109416 0.271041 -0.432186
C36   C     C_3   0.187916 0.894424 0.771864 -0.433049
C37   C     C_3   0.560424 0.479916 0.804883 -0.322871
C38   C     C_3   0.906712 0.492341 0.326822 -0.288605
C39   C     C_3   0.093292 0.992340 0.173177 -0.288607
C40   C     C_3   0.439575 0.979918 0.695114 -0.322881
H29   H     H_    0.524027 0.518908 0.862990 0.173893
H30   H     H_    0.901343 0.458957 0.389898 0.159614
H31   H     H_    0.098665 0.958956 0.110101 0.159617
H32   H     H_    0.475965 0.018912 0.637008 0.173898
H33   H     H_    0.457594 0.422787 0.797443 0.137190
H34   H     H_    0.037833 0.532872 0.323626 0.126793
H35   H     H_    0.962171 0.032870 0.176373 0.126792
H36   H     H_    0.542409 0.922790 0.702551 0.137192
H37   H     H_    0.733367 0.443199 0.601998 0.145509
H38   H     H_    0.939802 0.544754 0.134394 0.156029
H39   H     H_    0.060186 0.044754 0.365604 0.156024
H40   H     H_    0.266618 0.943203 0.898003 0.145512
H41   H     H_    0.709484 0.339269 0.712397 0.151892
H42   H     H_    0.883841 0.657890 0.231807 0.149592
H43   H     H_    0.116148 0.157889 0.268191 0.149593
H44   H     H_    0.290529 0.839274 0.787603 0.151898
O21   O     O_3   0.871974 0.559788 0.910297 -0.583216
C41   C     C_3   0.035289 0.603714 0.939797 0.007744
H45   H     H_    0.993509 0.652186 0.990650 0.161818
H46   H     H_    0.104422 0.646277 0.890221 0.110151
C42   C     C_3   0.170727 0.532717 0.977258 -0.280362
H47   H     H_    0.096000 0.486161 0.021046 0.221983
H48   H     H_    0.231587 0.488837 0.927019 0.181698
C43   C     C_3   0.327854 0.580170 0.024623 -0.874830
H49   H     H_    0.405473 0.627692 0.982190 0.237852
H50   H     H_    0.423311 0.525713 0.048025 0.238267
H51   H     H_    0.273256 0.620014 0.079213 0.222744
O22   O     O_3   0.544476 0.445935 0.385419 -0.577555
C44   C     C_3   0.357229 0.429156 0.405720 0.058191
H52   H     H_    0.283770 0.395556 0.352008 0.108403
H53   H     H_    0.287564 0.495771 0.422420 0.133275
C45   C     C_3   0.348643 0.364387 0.481811 -0.271940
H54   H     H_    0.423921 0.298755 0.467521 0.199636
H55   H     H_    0.416646 0.398464 0.536575 0.184407
C46   C     C_3   0.148649 0.341486 0.504520 -0.875710
H56   H     H_    0.069583 0.406367 0.515765 0.225101
H57   H     H_    0.145479 0.298693 0.562735 0.232856
H58   H     H_    0.081761 0.302439 0.452336 0.228616
O23   O     O_3   0.455535 0.945935 0.114585 -0.577555
C47   C     C_3   0.642784 0.929155 0.094290 0.058214
H59   H     H_    0.716220 0.895528 0.147996 0.108399
H60   H     H_    0.712469 0.995772 0.077616 0.133255
C48   C     C_3   0.651381 0.864418 0.018176 -0.271914
H61   H     H_    0.576090 0.798781 0.032435 0.199620
H62   H     H_    0.583397 0.898525 0.963421 0.184396
C49   C     C_3   0.851387 0.841529 0.995468 -0.875650
H63   H     H_    0.930430 0.906421 0.984218 0.225080
H64   H     H_    0.854565 0.798735 0.937253 0.232842
H65   H     H_    0.918303 0.802489 0.047655 0.228600
O24   O     O_3   0.128006 0.059786 0.589701 -0.583216
C50   C     C_3   0.964681 0.103705 0.560204 0.007731
H66   H     H_    0.006445 0.152176 0.509348 0.161816
H67   H     H_    0.895546 0.146267 0.609780 0.110153
C51   C     C_3   0.829252 0.032702 0.522747 -0.280349
H68   H     H_    0.903980 0.986152 0.478953 0.221986
H69   H     H_    0.768414 0.988816 0.572988 0.181706
C52   C     C_3   0.672102 0.080147 0.475391 -0.874842
H70   H     H_    0.594498 0.127674 0.517826 0.237851
H71   H     H_    0.576638 0.025686 0.452003 0.238277
H72   H     H_    0.726677 0.119985 0.420792 0.222742

loop_
_geom_bond_atom_site_label_1
_geom_bond_atom_site_label_2
_ccdc_geom_bond_type
C24   H28   S    
C48   C49   S    
C31   C35   S    
O1    C5    A    
C18   H38   S    
O19   V1    S    
C9    C13   S    
C7    C25   S    
O3    C7    A    
C10   H6    S    
O1    V3    S    
O4    V2    S    
C11   C15   S    
H20   C36   S    
C21   H21   S    
C48   H61   S    
C22   C38   S    
C22   C26   S    
O7    C3    A    
C18   C34   S    
C5    C27   S    
O9    V1    S    
C42   H47   S    
C52   H71   S    
C36   H44   S    
C13   O21   S    
C50   H66   S    
C22   H22   S    
C50   H67   S    
C2    C31   S    
C40   H32   S    
O13   V1    S    
C43   H49   S    
C18   C26   S    
O2    V4    S    
O3    V1    S    
C37   H33   S    
C41   H45   S    
C44   C45   S    
C41   H46   S    
C14   C30   S    
H13   C17   S    
C1    O15   A    
C2    O16   A    
C47   H59   S    
H15   C19   S    
O2    C6    A    
H16   C20   S    
O12   V4    S    
C10   C14   S    
C15   C31   S    
C11   H7    S    
C10   C26   S    
C51   H69   S    
C9    C25   S    
C42   C43   S    
C29   C37   S    
O11   C7    A    
O15   V3    S    
O12   C8    A    
C34   H42   S    
O10   V2    S    
C33   H41   S    
H18   C34   S    
C6    C28   S    
C38   H30   S    
O5    V1    S    
C3    C30   S    
C22   H26   S    
C21   H25   S    
O9    C5    A    
O8    V4    S    
H17   C33   S    
C12   H4    S    
O7    V3    S    
C19   H39   S    
C52   H72   S    
O18   V4    S    
C15   H11   S    
H14   C18   S    
C20   H40   S    
C30   C34   S    
C39   H31   S    
C9    H1    S    
C17   H37   S    
C16   C32   S    
C15   O23   S    
C24   C28   S    
C11   H3    S    
C46   H57   S    
O5    C1    A    
C51   C52   S    
C13   H9    S    
O4    C8    A    
O8    C4    A    
C23   C39   S    
C14   O22   S    
C41   C42   S    
C44   H52   S    
C49   H64   S    
C45   C46   S    
O14   V2    S    
O6    V2    S    
C19   C27   S    
C12   H8    S    
C23   H23   S    
C50   C51   S    
C46   H56   S    
C16   O24   S    
O22   C44   S    
C40   H36   S    
C45   H55   S    
C51   H68   S    
O16   V4    S    
C17   C25   S    
C48   H62   S    
C3    O13   A    
C19   C35   S    
C10   H2    S    
O17   V3    S    
C13   C29   S    
C32   C36   S    
C38   H34   S    
C49   H65   S    
O6    C2    A    
O11   V3    S    
C21   C37   S    
C24   H24   S    
C31   C39   S    
C14   H10   S    
C30   C38   S    
C43   H51   S    
C9    H5    S    
O10   C6    A    
O20   V2    S    
C17   C33   S    
C46   H58   S    
C52   H70   S    
C8    C26   S    
C47   C48   S    
C21   C25   S    
C24   C40   S    
C43   H50   S    
C4    C29   S    
C12   C16   S    
C23   C27   S    
C20   C28   S    
C37   H29   S    
H19   C35   S    
C44   H53   S    
C49   H63   S    
C1    C32   S    
C11   C27   S    
C12   C28   S    
C16   H12   S    
C35   H43   S    
C47   H60   S    
C4    O14   A    
O24   C50   S    
C32   C40   S    
C39   H35   S    
O21   C41   S    
C20   C36   S    
C23   H27   S    
C29   C33   S    
O23   C47   S    
C45   H54   S    
C42   H48   S    
