data_mof_unit_53598.cif
_audit_creation_date              2012-12-10T17:05:11-0500
_audit_creation_method            fapswitch 2.2
_symmetry_space_group_name_H-M    P1
_symmetry_Int_Tables_number       1
_space_group_crystal_system       triclinic
_cell_length_a                    30.118349
_cell_length_b                    29.240238
_cell_length_c                    22.168373
_cell_angle_alpha                 90.158369
_cell_angle_beta                  133.8265
_cell_angle_gamma                 89.744725
_cell_volume                      14084.5107314

loop_
_atom_site_label
_atom_site_type_symbol
_atom_type_description
_atom_site_fract_x
_atom_site_fract_y
_atom_site_fract_z
_atom_type_partial_charge
C1    C     C_R   0.307712 0.811325 0.117416 0.917943
C2    C     C_R   0.490471 0.667258 0.025009 -0.228878
C3    C     C_R   0.245732 0.109204 0.122123 0.233189
C4    C     C_R   0.284749 0.592424 0.856184 -0.172943
C5    C     C_R   0.715606 0.587505 0.137563 -0.136547
C6    C     C_R   0.784899 0.094179 0.850765 -0.131340
C7    C     C_R   0.214975 0.093828 0.144690 -0.168576
C8    C     C_R   0.253859 0.589073 0.772621 -0.221606
C9    C     C_R   0.744171 0.584419 0.220290 -0.168490
C10   C     C_R   0.752881 0.090973 0.766755 -0.156353
C11   C     C_R   0.246010 0.090626 0.228369 -0.226077
C12   C     C_R   0.190308 0.596477 0.710443 0.290992
C13   C     C_R   0.023896 0.167107 0.001433 -0.221583
C14   C     C_R   0.807148 0.593613 0.285094 0.274373
C15   C     C_R   0.689121 0.097735 0.705665 0.279612
C16   C     C_R   0.309645 0.097551 0.290474 0.294202
C17   C     C_R   0.156843 0.604807 0.733209 -0.009317
C18   C     C_R   0.842260 0.604240 0.265587 -0.011764
C19   C     C_R   0.656705 0.106122 0.730221 -0.007073
C20   C     C_R   0.342917 0.105490 0.267419 -0.010074
C21   C     C_R   0.190429 0.620606 0.814517 -0.039052
C22   C     C_R   0.809456 0.619952 0.184531 -0.035256
C23   C     C_R   0.691538 0.121954 0.811884 -0.038528
C24   C     C_R   0.983242 0.167232 0.011350 -0.225756
C25   C     C_R   0.309100 0.121255 0.186022 -0.045057
C26   C     C_R   0.159296 0.650387 0.825246 -0.180231
C27   C     C_R   0.840209 0.650316 0.174785 -0.183804
C28   C     C_R   0.661182 0.150565 0.825115 -0.175617
C29   C     C_R   0.340023 0.150068 0.174273 -0.179535
C30   C     C_R   0.094906 0.650392 0.768982 0.079125
C31   C     C_R   0.904179 0.649415 0.229945 0.073329
C32   C     C_R   0.597368 0.148857 0.772396 0.078227
C33   C     C_R   0.404081 0.148822 0.229003 0.079831
C34   C     C_R   0.061035 0.624302 0.696235 0.494007
C35   C     C_R   0.467864 0.832373 0.982462 -0.199313
C36   C     C_R   0.938150 0.622919 0.301988 0.494710
C37   C     C_R   0.562691 0.122174 0.700468 0.490773
C38   C     C_R   0.438270 0.124075 0.303214 0.499366
C39   C     C_R   0.162053 0.749077 0.998054 0.889711
C40   C     C_R   0.835042 0.751992 0.997136 0.928103
C41   C     C_R   0.664024 0.251148 0.001378 0.930726
C42   C     C_R   0.337974 0.248681 0.002113 0.890052
C43   C     C_R   0.091950 0.599535 0.679416 -0.308388
C44   C     C_R   0.907478 0.599182 0.320101 -0.302895
C45   C     C_R   0.592221 0.099375 0.679554 -0.304888
C46   C     C_R   0.515383 0.832533 0.984933 -0.198952
C47   C     C_R   0.407782 0.099896 0.320917 -0.308795
C48   C     C_R   0.940929 0.562652 0.383230 0.882950
C49   C     C_R   0.058852 0.562759 0.616610 0.862822
C50   C     C_R   0.441257 0.063064 0.383878 0.865917
C51   C     C_R   0.558929 0.062681 0.616713 0.879117
C52   C     C_R   0.440536 0.938937 0.381159 0.935456
C53   C     C_R   0.562571 0.941784 0.623847 0.924854
C54   C     C_R   0.938732 0.440125 0.378595 0.903861
C55   C     C_R   0.059562 0.438752 0.618607 0.922910
C56   C     C_R   0.590547 0.790908 0.995921 -0.348282
C57   C     C_R   0.976341 0.333843 0.999574 -0.200745
C58   C     C_R   0.402186 0.790569 0.989455 -0.343122
C59   C     C_R   0.094603 0.291643 0.004221 -0.344489
C60   C     C_R   0.905959 0.291728 0.997396 -0.347609
C61   C     C_R   0.614082 0.749237 0.997194 -0.174620
C62   C     C_R   0.387437 0.749848 0.005115 -0.176205
C63   C     C_R   0.113212 0.250111 0.995964 -0.171153
C64   C     C_R   0.887916 0.250316 0.006294 -0.173490
C65   C     C_R   0.590054 0.707401 0.994829 0.405958
C66   C     C_R   0.421329 0.709488 0.026170 0.400909
C67   C     C_R   0.083985 0.208916 0.983954 0.400411
C68   C     C_R   0.024041 0.333821 0.002341 -0.198793
C69   C     C_R   0.919245 0.209367 0.022118 0.397589
C70   C     C_R   0.549119 0.707663 0.004809 0.021048
C71   C     C_R   0.463472 0.708558 0.018293 0.016178
C72   C     C_R   0.044221 0.208536 0.995981 0.013161
C73   C     C_R   0.960554 0.208750 0.012857 0.014554
C74   C     C_R   0.523934 0.749615 0.000993 0.016589
C75   C     C_R   0.478976 0.749803 0.003772 0.023643
C76   C     C_R   0.023968 0.250471 0.001581 0.022561
C77   C     C_R   0.979436 0.250540 0.005097 0.022998
C78   C     C_3   0.417330 0.983495 0.229622 0.133122
C79   C     C_R   0.278791 0.825375 0.215780 -0.337593
C80   C     C_3   0.385116 0.990537 0.138642 -0.388905
C81   C     C_3   0.362461 0.039683 0.110871 -0.961329
C82   C     C_3   0.504511 0.929764 0.710361 0.170519
C83   C     C_3   0.504887 0.910627 0.775025 -0.412529
C84   C     C_3   0.494498 0.948415 0.811817 -0.961201
C85   C     C_3   0.994266 0.429671 0.288414 0.172559
C86   C     C_3   0.995625 0.411089 0.224982 -0.408311
C87   C     C_3   0.003844 0.449499 0.187030 -0.963439
C88   C     C_3   0.082046 0.483392 0.769533 0.139228
C89   C     C_3   0.116849 0.489464 0.861765 -0.393067
C90   C     C_R   0.761069 0.886271 0.893229 -0.309744
C91   C     C_3   0.142882 0.537662 0.891537 -0.962099
C92   C     C_3   0.773355 0.753474 0.806199 0.109104
C93   C     C_3   0.748535 0.760821 0.719083 -0.381223
C94   C     C_3   0.702104 0.724020 0.658141 -0.964385
C95   C     C_3   0.142887 0.647398 0.047298 0.134743
C96   C     C_3   0.099606 0.616810 0.043333 -0.403637
C97   C     C_3   0.081745 0.574098 0.991022 -0.949597
C98   C     C_3   0.350767 0.148628 0.939327 0.138524
C99   C     C_3   0.392118 0.118078 0.938845 -0.401940
C100  C     C_3   0.407858 0.073451 0.985761 -0.953593
C101  C     C_R   0.741654 0.382883 0.117921 -0.362583
C102  C     C_3   0.715503 0.223879 0.187639 0.150174
C103  C     C_3   0.711080 0.213978 0.251113 -0.408576
C104  C     C_3   0.737716 0.167051 0.291288 -0.961689
C105  C     C_3   0.045573 0.637351 0.177447 0.065108
C106  C     C_3   0.983525 0.618905 0.096287 -0.381796
C107  C     C_3   0.983433 0.566761 0.095048 -0.944936
C108  C     C_3   0.907889 0.801564 0.734172 0.081096
C109  C     C_3   0.934817 0.759940 0.726248 -0.383296
C110  C     C_3   0.886783 0.737736 0.640278 -0.957379
C111  C     C_3   0.597115 0.283040 0.275897 0.079894
C112  C     C_R   0.692976 0.811249 0.882880 0.933216
C113  C     C_R   0.226618 0.327949 0.792585 -0.347128
C114  C     C_3   0.564988 0.244581 0.280113 -0.384562
C115  C     C_3   0.611056 0.217780 0.361712 -0.958714
C116  C     C_3   0.444268 0.146905 0.801562 0.059838
C117  C     C_3   0.503357 0.124683 0.882124 -0.385435
C118  C     C_3   0.501750 0.072780 0.873571 -0.941288
C119  C     C_3   0.151767 0.697458 0.211878 -0.786494
C120  C     C_3   0.869465 0.845215 0.829062 -0.837320
C121  C     C_3   0.644199 0.325866 0.195635 -0.875543
C122  C     C_3   0.343013 0.205985 0.780051 -0.784817
C123  C     C_3   0.062862 0.677180 0.788481 -0.880107
C124  C     C_R   0.274351 0.824915 0.274824 0.341214
C125  C     C_3   0.934925 0.673764 0.207141 -0.847247
C126  C     C_3   0.567255 0.173916 0.796013 -0.852904
C127  C     C_3   0.435235 0.172670 0.206020 -0.893083
C128  C     C_3   0.286826 0.602508 0.968742 -0.867355
C129  C     C_3   0.720742 0.596920 0.031358 -0.839978
C130  C     C_3   0.788011 0.103209 0.964666 -0.856660
C131  C     C_3   0.213543 0.102668 0.032413 -0.864954
C132  C     C_3   0.163953 0.607336 0.624978 -0.888601
C133  C     C_3   0.830345 0.602658 0.369504 -0.860750
C134  C     C_3   0.661255 0.106362 0.618712 -0.863763
C135  C     C_R   0.792657 0.921785 0.894675 0.327168
C136  C     C_3   0.336365 0.108043 0.376315 -0.893084
C137  C     C_3   0.560651 0.653564 0.897744 0.086365
C138  C     C_3   0.548176 0.602161 0.890226 -0.364628
C139  C     C_3   0.504772 0.586301 0.799480 -0.958086
C140  C     C_3   0.458102 0.667422 0.139032 0.091324
C141  C     C_3   0.445309 0.626679 0.168090 -0.331040
C142  C     C_3   0.497450 0.619365 0.262249 -0.975442
C143  C     C_3   0.045263 0.161235 0.875970 0.083506
C144  C     C_3   0.053033 0.114839 0.852192 -0.342364
C145  C     C_3   0.995759 0.101971 0.762287 -0.972619
C146  C     C_R   0.709714 0.413349 0.125915 0.352691
C147  C     C_3   0.956488 0.164934 0.132609 0.093487
C148  C     C_3   0.943438 0.123825 0.160660 -0.337373
C149  C     C_3   0.996080 0.115387 0.254383 -0.983689
C150  C     C_3   0.969616 0.649867 0.569486 0.092374
C151  C     C_3   0.987191 0.700839 0.586250 -0.411446
C152  C     C_3   0.948086 0.727539 0.504372 -0.950672
C153  C     C_3   0.034033 0.644946 0.424421 0.092323
C154  C     C_3   0.029417 0.696679 0.408963 -0.400597
C155  C     C_3   0.072730 0.722831 0.491524 -0.946720
C156  C     C_3   0.464965 0.142505 0.579125 0.098581
C157  C     C_R   0.236474 0.330662 0.739226 0.376749
C158  C     C_3   0.466025 0.194162 0.592629 -0.401263
C159  C     C_3   0.420531 0.219340 0.509153 -0.949550
C160  C     C_3   0.525521 0.155123 0.426955 0.077973
C161  C     C_3   0.503195 0.205102 0.401824 -0.402708
C162  C     C_3   0.538679 0.235562 0.478995 -0.948647
C163  C     C_3   0.389240 0.872710 0.131722 -0.874539
C164  C     C_3   0.561515 0.814378 0.767827 -0.876346
C165  C     C_3   0.939447 0.314651 0.228526 -0.887847
C166  C     C_3   0.106997 0.371587 0.864169 -0.884665
C167  C     C_3   0.169773 0.834181 0.187066 0.098491
C168  C     C_R   0.325464 0.838802 0.357206 0.376084
C169  C     C_3   0.121716 0.833290 0.192196 -0.320955
C170  C     C_3   0.063661 0.859633 0.119967 -0.939611
C171  C     C_3   0.855930 0.952236 0.025342 0.112874
C172  C     C_3   0.920681 0.971000 0.096054 -0.318352
C173  C     C_3   0.927070 0.992973 0.164241 -1.000605
C174  C     C_3   0.611647 0.393365 0.999666 0.070551
C175  C     C_3   0.544510 0.406577 0.947162 -0.330032
C176  C     C_3   0.501110 0.369080 0.884468 -0.953655
C177  C     C_3   0.344316 0.331950 0.843015 0.109167
C178  C     C_3   0.350560 0.384292 0.848806 -0.368679
C179  C     C_R   0.764419 0.944728 0.820471 0.356319
C180  C     C_3   0.407682 0.398953 0.937644 -0.950944
C181  C     C_3   0.328040 0.788552 0.439030 0.139620
C182  C     C_3   0.357631 0.785074 0.529248 -0.327833
C183  C     C_3   0.363686 0.735428 0.555174 -0.994697
C184  C     C_3   0.836084 0.960698 0.815440 0.125297
C185  C     C_3   0.861748 0.999089 0.800497 -0.352208
C186  C     C_3   0.909063 0.980925 0.799960 -0.964626
C187  C     C_3   0.671989 0.442614 0.217037 0.115838
C188  C     C_3   0.641279 0.479122 0.227358 -0.338771
C189  C     C_3   0.595047 0.457898 0.227330 -0.957567
C190  C     C_R   0.740738 0.431212 0.205178 0.375841
C191  C     C_3   0.189005 0.298720 0.573619 0.139444
C192  C     C_3   0.239873 0.290724 0.574931 -0.291461
C193  C     C_3   0.234407 0.243581 0.540582 -0.999698
C194  C     C_3   0.478342 0.845104 0.484327 0.097711
C195  C     C_3   0.493518 0.805469 0.540996 -0.334452
C196  C     C_3   0.557501 0.785910 0.588668 -0.976336
C197  C     C_3   0.686962 0.898318 0.642552 0.085164
C198  C     C_3   0.679150 0.905948 0.567574 -0.308625
C199  C     C_3   0.677786 0.860536 0.532195 -0.983909
C200  C     C_3   0.850633 0.382686 0.400333 0.135639
C201  C     C_R   0.187374 0.344919 0.656369 0.370413
C202  C     C_3   0.803364 0.347366 0.376013 -0.439470
C203  C     C_3   0.834543 0.307083 0.436766 -0.946607
C204  C     C_3   0.034044 0.344303 0.518745 0.109247
C205  C     C_3   0.028393 0.303655 0.470258 -0.345774
C206  C     C_3   0.967822 0.278308 0.422447 -0.961666
C207  C     C_R   0.374771 0.860824 0.375044 0.404238
C208  C     C_R   0.808136 0.311175 0.117259 0.941612
C209  C     C_R   0.703601 0.934194 0.747831 0.406690
C210  C     C_R   0.802235 0.419036 0.273821 0.424180
C211  C     C_R   0.134590 0.364276 0.633063 0.395205
C212  C     C_R   0.370343 0.872122 0.308471 -0.178180
C213  C     C_R   0.665773 0.908630 0.753396 -0.176453
C214  C     C_R   0.838351 0.400534 0.259017 -0.165823
C215  C     C_R   0.134035 0.373840 0.695713 -0.174217
C216  C     C_R   0.327869 0.848172 0.233313 -0.061980
C217  C     C_R   0.696780 0.880727 0.824371 -0.069282
C218  C     C_R   0.806046 0.376717 0.183891 -0.049874
C219  C     C_R   0.191617 0.311302 0.882613 0.918293
C220  C     C_R   0.175187 0.349584 0.770839 -0.064731
C221  C     C_R   0.335927 0.847344 0.177938 -0.110967
C222  C     C_R   0.662451 0.847535 0.823550 -0.108942
C223  C     C_R   0.839357 0.346895 0.177441 -0.107420
C224  C     C_R   0.163716 0.347322 0.822355 -0.104522
C225  C     C_R   0.337548 0.750033 0.001419 0.936638
C226  C     C_R   0.662900 0.749830 0.999225 0.948030
C227  C     C_R   0.837723 0.250256 0.001845 0.934723
C228  C     C_R   0.162524 0.250198 0.998647 0.936943
C229  C     C_R   0.377808 0.876453 0.188302 0.075823
C230  C     C_R   0.543279 0.791307 0.993685 0.128386
C231  C     C_R   0.598165 0.849488 0.766803 0.068395
C232  C     C_R   0.903551 0.348783 0.232993 0.067656
C233  C     C_R   0.120421 0.375910 0.809921 0.073846
C234  C     C_R   0.409418 0.908530 0.252734 0.476031
C235  C     C_R   0.568404 0.885749 0.711421 0.470239
C236  C     C_R   0.933657 0.383969 0.290833 0.475830
C237  C     C_R   0.089754 0.408307 0.746174 0.478040
C238  C     C_R   0.407510 0.905260 0.314698 -0.251980
C239  C     C_R   0.599701 0.911055 0.695664 -0.275803
C240  C     C_R   0.903286 0.407006 0.310462 -0.287671
C241  C     C_R   0.449677 0.791221 0.992159 0.125170
C242  C     C_R   0.093621 0.405556 0.686005 -0.256413
C243  C     C_R   0.870472 0.774613 0.928860 0.445467
C244  C     C_R   0.117697 0.720614 0.052731 0.490710
C245  C     C_R   0.380037 0.221813 0.943220 0.487526
C246  C     C_R   0.631133 0.264387 0.075753 0.430121
C247  C     C_R   0.881753 0.753849 0.995448 -0.190255
C248  C     C_R   0.112712 0.747930 0.995926 -0.246280
C249  C     C_R   0.387273 0.246533 0.004338 -0.252037
C250  C     C_R   0.616931 0.252413 0.002635 -0.211101
C251  C     C_R   0.938246 0.734580 0.062136 -0.296909
C252  C     C_R   0.047554 0.292297 0.002488 0.125632
C253  C     C_R   0.060619 0.774835 0.937456 -0.295966
C254  C     C_R   0.441691 0.269762 0.067353 -0.297004
C255  C     C_R   0.557912 0.239385 0.930931 -0.301055
C256  C     C_R   0.984083 0.732242 0.062064 0.014415
C257  C     C_R   0.013442 0.775824 0.935375 -0.008937
C258  C     C_R   0.488827 0.269905 0.069443 0.006642
C259  C     C_R   0.512503 0.235579 0.931939 0.005006
C260  C     C_R   0.975139 0.754754 0.998096 -0.097355
C261  C     C_R   0.021610 0.752772 0.998335 -0.102126
C262  C     C_R   0.478043 0.250895 0.001595 -0.109673
C263  C     C_R   0.953969 0.292365 0.001078 0.125601
C264  C     C_R   0.524199 0.252793 0.001374 -0.109985
C265  C     C_R   0.919671 0.779131 0.934073 -0.014648
C266  C     C_R   0.076285 0.727633 0.061375 -0.039594
C267  C     C_R   0.421334 0.229400 0.934633 -0.061576
C268  C     C_R   0.582646 0.271023 0.071276 -0.027372
C269  C     C_R   0.038789 0.708265 0.125989 0.470083
C270  C     C_R   0.959653 0.801195 0.873319 0.463184
C271  C     C_R   0.545499 0.290218 0.136972 0.467863
C272  C     C_R   0.455930 0.215090 0.864425 0.486847
C273  C     C_R   0.191859 0.688101 0.883040 0.952965
C274  C     C_R   0.532607 0.666804 0.017760 -0.207452
C275  C     C_R   0.807549 0.688101 0.116950 0.956612
C276  C     C_R   0.693344 0.188169 0.883116 0.951369
C277  C     C_R   0.307854 0.188061 0.116877 0.953924
C278  C     C_R   0.087338 0.709390 0.129974 0.040057
C279  C     C_R   0.915170 0.806305 0.877128 0.078539
C280  C     C_R   0.591019 0.293797 0.135000 0.076122
C281  C     C_R   0.408239 0.215244 0.862379 0.052109
C282  C     C_R   0.253951 0.608325 0.878617 0.224366
C283  C     C_R   0.747680 0.605193 0.118334 0.233024
C284  C     C_R   0.755034 0.109808 0.874704 0.206793
H1    H     H_    0.607722 0.822822 0.993856 0.166804
H2    H     H_    0.668250 0.576571 0.088398 0.164290
H3    H     H_    0.634933 0.268275 0.283639 0.130521
H4    H     H_    0.528808 0.259348 0.275793 0.228051
H5    H     H_    0.542891 0.220749 0.226832 0.223475
H6    H     H_    0.648241 0.203442 0.367824 0.265531
H7    H     H_    0.587596 0.189007 0.362469 0.279323
H8    H     H_    0.631602 0.240343 0.415985 0.265581
H9    H     H_    0.435939 0.133424 0.747564 0.183580
H10   H     H_    0.404210 0.136011 0.791223 0.140241
H11   H     H_    0.544135 0.138093 0.896481 0.234264
H12   H     H_    0.508333 0.132981 0.935515 0.207026
H13   H     H_    0.833400 0.085418 0.897302 0.162257
H14   H     H_    0.461611 0.058460 0.860289 0.263843
H15   H     H_    0.544481 0.057685 0.932794 0.264571
H16   H     H_    0.498724 0.063266 0.822262 0.273919
H17   H     H_    0.165358 0.662713 0.209708 0.239691
H18   H     H_    0.185341 0.722621 0.225895 0.283202
H19   H     H_    0.155435 0.698808 0.265255 0.239006
H20   H     H_    0.825620 0.833410 0.768105 0.226587
H21   H     H_    0.861056 0.861005 0.865973 0.265589
H22   H     H_    0.887652 0.872827 0.816992 0.240222
H23   H     H_    0.683453 0.307083 0.252095 0.243188
H24   H     H_    0.166508 0.085299 0.097279 0.160719
H25   H     H_    0.658511 0.342726 0.166667 0.240635
H26   H     H_    0.631085 0.353455 0.215250 0.242426
H27   H     H_    0.328482 0.170939 0.778479 0.235670
H28   H     H_    0.310590 0.230876 0.770064 0.284886
H29   H     H_    0.338542 0.209827 0.726254 0.245171
H30   H     H_    0.013538 0.668338 0.746807 0.273197
H31   H     H_    0.085000 0.669590 0.853151 0.210883
H32   H     H_    0.066073 0.714419 0.782703 0.241784
H33   H     H_    0.982609 0.661789 0.243554 0.285334
H34   H     H_    0.908230 0.666839 0.140429 0.210566
H35   H     H_    0.279664 0.581580 0.756203 0.154099
H36   H     H_    0.935691 0.711155 0.216507 0.239199
H37   H     H_    0.520531 0.161112 0.762257 0.281391
H38   H     H_    0.595380 0.169184 0.863754 0.213251
H39   H     H_    0.564130 0.210958 0.782741 0.238120
H40   H     H_    0.484308 0.162964 0.247522 0.275937
H41   H     H_    0.412262 0.162848 0.141650 0.214720
H42   H     H_    0.432198 0.210322 0.208660 0.240059
H43   H     H_    0.316005 0.571219 0.995445 0.214724
H44   H     H_    0.316910 0.632220 0.005305 0.299942
H45   H     H_    0.253997 0.597961 0.975628 0.245735
H46   H     H_    0.717162 0.575009 0.233999 0.159303
H47   H     H_    0.697636 0.563104 0.008165 0.214798
H48   H     H_    0.686531 0.623747 0.988060 0.281202
H49   H     H_    0.757223 0.595352 0.030670 0.245430
H50   H     H_    0.820088 0.073572 0.992341 0.213268
H51   H     H_    0.815087 0.133983 0.000915 0.300301
H52   H     H_    0.754977 0.095578 0.970391 0.241465
H53   H     H_    0.183785 0.071856 0.005624 0.212488
H54   H     H_    0.184421 0.132713 0.995245 0.303289
H55   H     H_    0.246815 0.096994 0.026516 0.242250
H56   H     H_    0.161993 0.576217 0.594391 0.251216
H57   H     H_    0.777878 0.083625 0.749092 0.143373
H58   H     H_    0.117935 0.622692 0.587631 0.225724
H59   H     H_    0.192826 0.633280 0.629133 0.220128
H60   H     H_    0.831198 0.570631 0.397108 0.261253
H61   H     H_    0.876457 0.618047 0.410614 0.222075
H62   H     H_    0.799869 0.627781 0.363906 0.212401
H63   H     H_    0.662168 0.074760 0.591667 0.260037
H64   H     H_    0.613858 0.118903 0.579763 0.222714
H65   H     H_    0.687389 0.133469 0.619507 0.209705
H66   H     H_    0.338286 0.076804 0.406430 0.249377
H67   H     H_    0.382463 0.123123 0.413974 0.226972
H68   H     H_    0.220299 0.083455 0.244936 0.152378
H69   H     H_    0.307620 0.134070 0.372745 0.220444
H70   H     H_    0.577629 0.661342 0.867637 0.175070
H71   H     H_    0.515717 0.671848 0.861313 0.125616
H72   H     H_    0.591898 0.582758 0.927696 0.231490
H73   H     H_    0.526976 0.594106 0.914499 0.214712
H74   H     H_    0.460017 0.604625 0.760672 0.265357
H75   H     H_    0.496335 0.549037 0.796116 0.267680
H76   H     H_    0.525498 0.592741 0.774000 0.261296
H77   H     H_    0.459745 0.698983 0.168904 0.150427
H78   H     H_    0.503914 0.662325 0.160588 0.135858
H79   H     H_    0.553362 0.634528 0.024566 0.173660
H80   H     H_    0.401923 0.632813 0.152592 0.221631
H81   H     H_    0.439885 0.595258 0.135167 0.222843
H82   H     H_    0.541245 0.612011 0.279395 0.264973
H83   H     H_    0.486459 0.589850 0.281367 0.266912
H84   H     H_    0.503287 0.650238 0.296464 0.265383
H85   H     H_    0.043241 0.188359 0.838919 0.154443
H86   H     H_    0.000620 0.161009 0.858742 0.140593
H87   H     H_    0.092872 0.116105 0.858369 0.218577
H88   H     H_    0.061837 0.088064 0.894957 0.226103
H89   H     H_    0.955355 0.098879 0.754688 0.263588
H90   H     H_    0.478593 0.635068 0.034832 0.178697
H91   H     H_    0.003356 0.068550 0.746671 0.267812
H92   H     H_    0.986035 0.128247 0.718282 0.265531
H93   H     H_    0.960276 0.195951 0.165365 0.149796
H94   H     H_    0.001365 0.159146 0.151710 0.138194
H95   H     H_    0.900606 0.130102 0.146497 0.222671
H96   H     H_    0.937031 0.092891 0.126107 0.229379
H97   H     H_    0.039141 0.107166 0.270060 0.266456
H98   H     H_    0.984514 0.086127 0.273170 0.269771
H99   H     H_    0.003582 0.146081 0.290125 0.263655
H100  H     H_    0.919425 0.648206 0.530731 0.178897
H101  H     H_    0.039983 0.134530 0.999168 0.178817
H102  H     H_    0.978928 0.634635 0.533121 0.110080
H103  H     H_    0.979901 0.715616 0.624960 0.244294
H104  H     H_    0.036408 0.704842 0.620112 0.219343
H105  H     H_    0.952773 0.712626 0.462868 0.265688
H106  H     H_    0.963456 0.763698 0.517635 0.272429
H107  H     H_    0.898879 0.726735 0.471625 0.267691
H108  H     H_    0.082842 0.635248 0.463794 0.185477
H109  H     H_    0.020605 0.636842 0.459039 0.104237
H110  H     H_    0.042151 0.704343 0.373529 0.245659
H111  H     H_    0.981610 0.708705 0.372320 0.222176
H112  H     H_    0.377684 0.821913 0.977326 0.176543
H113  H     H_    0.968482 0.134738 0.015731 0.178166
H114  H     H_    0.062377 0.714991 0.529685 0.268961
H115  H     H_    0.066946 0.760157 0.478857 0.272039
H116  H     H_    0.121320 0.713397 0.527596 0.267019
H117  H     H_    0.416974 0.130868 0.540269 0.183348
H118  H     H_    0.478599 0.135551 0.544367 0.103464
H119  H     H_    0.453354 0.200838 0.628479 0.246785
H120  H     H_    0.512869 0.207803 0.628186 0.222572
H121  H     H_    0.430779 0.212279 0.470572 0.267511
H122  H     H_    0.423975 0.256734 0.520466 0.272706
H123  H     H_    0.372735 0.208348 0.474195 0.267062
H124  H     H_    0.445870 0.864402 0.973997 0.143480
H125  H     H_    0.575995 0.155799 0.467543 0.181481
H126  H     H_    0.515854 0.141377 0.463640 0.109514
H127  H     H_    0.510162 0.218185 0.362005 0.245875
H128  H     H_    0.453467 0.207356 0.366401 0.221460
H129  H     H_    0.534236 0.222607 0.521660 0.266496
H130  H     H_    0.520023 0.270931 0.459634 0.271185
H131  H     H_    0.588171 0.236425 0.513049 0.266333
H132  H     H_    0.426831 0.895250 0.151324 0.270594
H133  H     H_    0.402781 0.837132 0.132654 0.221829
H134  H     H_    0.346815 0.881956 0.066709 0.236741
H135  H     H_    0.529638 0.864697 0.978688 0.142745
H136  H     H_    0.511564 0.821983 0.722510 0.258003
H137  H     H_    0.565765 0.780277 0.750179 0.255899
H138  H     H_    0.578584 0.812523 0.831044 0.218134
H139  H     H_    0.989445 0.321899 0.274083 0.262383
H140  H     H_    0.935005 0.279857 0.243612 0.254797
H141  H     H_    0.921755 0.314534 0.164883 0.214651
H142  H     H_    0.069128 0.394340 0.843818 0.273100
H143  H     H_    0.092968 0.335996 0.861455 0.222074
H144  H     H_    0.148736 0.380187 0.929940 0.236405
H145  H     H_    0.149951 0.818239 0.127216 0.151717
H146  H     H_    0.957537 0.366181 0.997376 0.143927
H147  H     H_    0.180680 0.870774 0.187729 0.137463
H148  H     H_    0.109320 0.797414 0.190862 0.237271
H149  H     H_    0.141491 0.848817 0.252283 0.230400
H150  H     H_    0.074365 0.896432 0.123803 0.258845
H151  H     H_    0.028644 0.856366 0.123230 0.273714
H152  H     H_    0.044090 0.845854 0.059028 0.274416
H153  H     H_    0.845677 0.926987 0.051809 0.139085
H154  H     H_    0.822647 0.981348 0.997065 0.137408
H155  H     H_    0.954780 0.942733 0.123842 0.231221
H156  H     H_    0.930809 0.996977 0.070443 0.221288
H157  H     H_    0.041652 0.366147 0.002644 0.144043
H158  H     H_    0.893658 0.021560 0.138030 0.263743
H159  H     H_    0.974369 0.006631 0.214092 0.275197
H160  H     H_    0.918814 0.967254 0.192338 0.269175
H161  H     H_    0.620579 0.360106 0.030931 0.142900
H162  H     H_    0.618818 0.389638 0.956963 0.155892
H163  H     H_    0.536984 0.412615 0.989037 0.221858
H164  H     H_    0.534023 0.438799 0.912801 0.229421
H165  H     H_    0.509659 0.361127 0.844202 0.271180
H166  H     H_    0.452725 0.380685 0.843960 0.267843
H167  H     H_    0.507717 0.337636 0.917847 0.274313
H168  H     H_    0.242469 0.809820 0.155262 0.168525
H169  H     H_    0.384470 0.317732 0.855969 0.172937
H170  H     H_    0.348018 0.318127 0.892776 0.139626
H171  H     H_    0.353891 0.396565 0.804675 0.227301
H172  H     H_    0.309734 0.400652 0.831655 0.223122
H173  H     H_    0.402138 0.390649 0.980997 0.274621
H174  H     H_    0.414341 0.436411 0.939316 0.263808
H175  H     H_    0.449189 0.381038 0.959354 0.271499
H176  H     H_    0.355209 0.767044 0.432470 0.099198
H177  H     H_    0.280487 0.774819 0.396990 0.185861
H178  H     H_    0.404083 0.800799 0.571834 0.235745
H179  H     H_    0.787405 0.865418 0.948605 0.207617
H180  H     H_    0.329132 0.804205 0.535709 0.230685
H181  H     H_    0.317662 0.719087 0.514000 0.269860
H182  H     H_    0.384905 0.734220 0.620678 0.269666
H183  H     H_    0.393469 0.715996 0.551380 0.265985
H184  H     H_    0.812779 0.935657 0.763355 0.136681
H185  H     H_    0.875144 0.943860 0.875832 0.181166
H186  H     H_    0.823436 0.015610 0.739327 0.225090
H187  H     H_    0.883825 0.025245 0.850553 0.221345
H188  H     H_    0.948343 0.964835 0.861035 0.271666
H189  H     H_    0.926768 0.009601 0.788912 0.268214
H190  H     H_    0.716990 0.367388 0.058074 0.188452
H191  H     H_    0.887636 0.955273 0.749360 0.269077
H192  H     H_    0.697336 0.418561 0.270767 0.140306
H193  H     H_    0.635263 0.424079 0.157561 0.163140
H194  H     H_    0.676996 0.497662 0.287207 0.227636
H195  H     H_    0.617001 0.504143 0.175183 0.224827
H196  H     H_    0.558242 0.439935 0.167257 0.273887
H197  H     H_    0.573577 0.485190 0.235074 0.265917
H198  H     H_    0.618493 0.433172 0.279718 0.270087
H199  H     H_    0.143783 0.294652 0.508382 0.141647
H200  H     H_    0.192523 0.271722 0.612400 0.112330
H201  H     H_    0.259847 0.310671 0.851981 0.167921
H202  H     H_    0.236893 0.317284 0.536455 0.226561
H203  H     H_    0.285527 0.293553 0.640135 0.255129
H204  H     H_    0.236489 0.216387 0.577367 0.266560
H205  H     H_    0.272938 0.238330 0.544617 0.276076
H206  H     H_    0.190254 0.240800 0.474061 0.265792
H207  H     H_    0.518054 0.868738 0.520083 0.151454
H208  H     H_    0.473052 0.831376 0.432618 0.105816
H209  H     H_    0.491411 0.817358 0.586471 0.269242
H210  H     H_    0.458961 0.777998 0.502401 0.196402
H211  H     H_    0.560618 0.773540 0.544275 0.265477
H212  H     H_    0.453711 0.009844 0.268497 0.201047
H213  H     H_    0.566566 0.756794 0.628025 0.267812
H214  H     H_    0.593264 0.812329 0.630102 0.266026
H215  H     H_    0.647446 0.877639 0.621818 0.146017
H216  H     H_    0.730448 0.878830 0.690976 0.108078
H217  H     H_    0.635462 0.924797 0.518092 0.238466
H218  H     H_    0.717998 0.926908 0.587063 0.212813
H219  H     H_    0.721663 0.841586 0.580228 0.257056
H220  H     H_    0.671720 0.867076 0.477535 0.273446
H221  H     H_    0.638881 0.839198 0.511599 0.268170
H222  H     H_    0.878975 0.392576 0.466631 0.176490
H223  H     H_    0.115366 0.323429 0.009117 0.173582
H224  H     H_    0.384104 0.989513 0.236029 0.095369
H225  H     H_    0.882982 0.366910 0.397988 0.116773
H226  H     H_    0.770199 0.363531 0.376550 0.229783
H227  H     H_    0.778250 0.334667 0.312112 0.234693
H228  H     H_    0.863514 0.287708 0.431457 0.268720
H229  H     H_    0.799130 0.283911 0.422220 0.257773
H230  H     H_    0.863693 0.319245 0.502105 0.266727
H231  H     H_    0.991704 0.365244 0.476006 0.140171
H232  H     H_    0.035906 0.331448 0.567812 0.103826
H233  H     H_    0.030896 0.315787 0.425264 0.266506
H234  H     H_    0.067159 0.279590 0.514816 0.185914
H235  H     H_    0.417546 0.982682 0.131731 0.237430
H236  H     H_    0.964729 0.265220 0.466421 0.259797
H237  H     H_    0.965389 0.248915 0.388445 0.266016
H238  H     H_    0.928131 0.301350 0.376164 0.269414
H239  H     H_    0.345098 0.967138 0.097686 0.225466
H240  H     H_    0.332075 0.048577 0.120754 0.275040
H241  H     H_    0.336084 0.043408 0.043457 0.262428
H242  H     H_    0.402017 0.063631 0.147150 0.276835
H243  H     H_    0.460410 0.948362 0.661883 0.177007
H244  H     H_    0.541761 0.955722 0.740325 0.113459
H245  H     H_    0.468032 0.884620 0.745040 0.237087
H246  H     H_    0.550015 0.894244 0.826899 0.226711
H247  H     H_    0.883816 0.323439 0.990143 0.172279
H248  H     H_    0.531574 0.974364 0.843619 0.268987
H249  H     H_    0.495066 0.933508 0.858369 0.265936
H250  H     H_    0.449241 0.965277 0.761848 0.267713
H251  H     H_    0.036906 0.449756 0.336106 0.178639
H252  H     H_    0.955125 0.454244 0.257003 0.113837
H253  H     H_    0.034110 0.386230 0.256218 0.238380
H254  H     H_    0.951619 0.393584 0.173390 0.228879
H255  H     H_    0.964713 0.473928 0.153306 0.268042
H256  H     H_    0.005033 0.434930 0.141843 0.269433
H257  H     H_    0.047632 0.467963 0.236567 0.266792
H258  H     H_    0.945659 0.720308 0.113237 0.202797
H259  H     H_    0.045718 0.510134 0.732881 0.199950
H260  H     H_    0.113699 0.489581 0.760523 0.098331
H261  H     H_    0.085322 0.483121 0.870644 0.236738
H262  H     H_    0.155475 0.464546 0.900194 0.227928
H263  H     H_    0.173216 0.544725 0.880998 0.276372
H264  H     H_    0.170293 0.540777 0.959375 0.261224
H265  H     H_    0.105062 0.563311 0.857136 0.276681
H266  H     H_    0.733600 0.752961 0.800237 0.193940
H267  H     H_    0.795923 0.719071 0.829394 0.127008
H268  H     H_    0.725695 0.794802 0.694921 0.225997
H269  H     H_    0.056641 0.794717 0.892739 0.227688
H270  H     H_    0.787245 0.759601 0.722823 0.214918
H271  H     H_    0.724450 0.689794 0.679233 0.265301
H272  H     H_    0.684039 0.730946 0.595200 0.267819
H273  H     H_    0.662969 0.723978 0.653521 0.269599
H274  H     H_    0.184830 0.627333 0.075354 0.164681
H275  H     H_    0.121033 0.656486 0.982995 0.112528
H276  H     H_    0.122662 0.606118 0.107406 0.220969
H277  H     H_    0.056949 0.635880 0.014903 0.217966
H278  H     H_    0.058364 0.583713 0.926304 0.271733
H279  H     H_    0.049759 0.553057 0.988239 0.267369
H280  H     H_    0.447636 0.286997 0.115864 0.226252
H281  H     H_    0.123257 0.553288 0.019595 0.263621
H282  H     H_    0.307783 0.129657 0.908946 0.162401
H283  H     H_    0.373301 0.155096 0.004857 0.115985
H284  H     H_    0.368259 0.109939 0.873427 0.221701
H285  H     H_    0.435690 0.136090 0.969261 0.218404
H286  H     H_    0.432464 0.080561 0.051844 0.270829
H287  H     H_    0.438089 0.052246 0.984889 0.268962
H288  H     H_    0.365281 0.053909 0.955480 0.261628
H289  H     H_    0.764830 0.223188 0.220825 0.173459
H290  H     H_    0.692747 0.195533 0.140885 0.136445
H291  H     H_    0.548515 0.229983 0.875863 0.208042
H292  H     H_    0.737158 0.240163 0.301009 0.230502
H293  H     H_    0.662227 0.214944 0.219727 0.221316
H294  H     H_    0.711807 0.139812 0.242960 0.265242
H295  H     H_    0.734088 0.161066 0.337191 0.268365
H296  H     H_    0.786997 0.165222 0.324489 0.264869
H297  H     H_    0.055979 0.621170 0.231374 0.182694
H298  H     H_    0.082944 0.626516 0.181494 0.139352
H299  H     H_    0.945837 0.631017 0.090568 0.232559
H300  H     H_    0.974468 0.631474 0.041332 0.209139
H301  H     H_    0.020102 0.553755 0.098998 0.264555
H302  H     H_    0.333234 0.583709 0.903660 0.162958
H303  H     H_    0.938247 0.554328 0.035971 0.266300
H304  H     H_    0.991170 0.553220 0.148458 0.270539
H305  H     H_    0.891441 0.826570 0.684630 0.171550
H306  H     H_    0.866596 0.791239 0.721683 0.127001
H307  H     H_    0.974773 0.770718 0.736065 0.228847
H308  H     H_    0.950858 0.734118 0.774528 0.222375
H309  H     H_    0.845691 0.727774 0.628281 0.265800
H310  H     H_    0.906387 0.706472 0.637600 0.270856
H311  H     H_    0.872658 0.761771 0.590784 0.267309
H312  H     H_    0.619336 0.306266 0.329958 0.171486
O1    O     O_R   0.321630 0.769940 0.143350 -0.619304
O2    O     O_R   0.508520 0.954180 0.591620 -0.574040
O3    O     O_R   0.991480 0.454180 0.408380 -0.574854
O4    O     O_R   0.008520 0.454180 0.591620 -0.605194
O5    O     O_R   0.416890 0.954190 0.408420 -0.577973
O6    O     O_R   0.583110 0.954190 0.591580 -0.578001
O7    O     O_R   0.916890 0.454190 0.408420 -0.582847
O8    O     O_R   0.083110 0.454190 0.591580 -0.573586
O9    O     O_R   0.269950 0.821660 0.039930 -0.628302
O10   O     O_R   0.730050 0.821660 0.960070 -0.648302
O11   O     O_R   0.769950 0.321660 0.039930 -0.646822
O12   O     O_R   0.678370 0.769940 0.856650 -0.639786
O13   O     O_R   0.230050 0.321660 0.960070 -0.628049
O14   O     O_R   0.341900 0.724110 0.051720 -0.611142
O15   O     O_R   0.658100 0.724110 0.948280 -0.624052
O16   O     O_R   0.841900 0.224110 0.051720 -0.612738
O17   O     O_R   0.158100 0.224110 0.948280 -0.614039
O18   O     O_R   0.290220 0.775830 0.948290 -0.627271
O19   O     O_R   0.709780 0.775830 0.051710 -0.624281
O20   O     O_R   0.790220 0.275830 0.948290 -0.626022
O21   O     O_R   0.209780 0.275830 0.051710 -0.626389
O22   O     O_R   0.230030 0.678320 0.960120 -0.643537
O23   O     O_R   0.821630 0.269940 0.143350 -0.625707
O24   O     O_R   0.769970 0.678320 0.039880 -0.629075
O25   O     O_R   0.730030 0.178320 0.960120 -0.636818
O26   O     O_R   0.269970 0.178320 0.039880 -0.642980
O27   O     O_R   0.178350 0.730040 0.856700 -0.621512
O28   O     O_R   0.821650 0.730040 0.143300 -0.620635
O29   O     O_R   0.678350 0.230040 0.856700 -0.619327
O30   O     O_R   0.321650 0.230040 0.143300 -0.622662
O31   O     O_R   0.209770 0.724150 0.051760 -0.583829
O32   O     O_R   0.790230 0.724150 0.948240 -0.649761
O33   O     O_R   0.709770 0.224150 0.051760 -0.633162
O34   O     O_R   0.178370 0.269940 0.856650 -0.620043
O35   O     O_R   0.290230 0.224150 0.948240 -0.586393
O36   O     O_R   0.158090 0.775870 0.948330 -0.634750
O37   O     O_R   0.841910 0.775870 0.051670 -0.623513
O38   O     O_R   0.658090 0.275870 0.948330 -0.634986
O39   O     O_R   0.341910 0.275870 0.051670 -0.632963
O40   O     O_R   0.991500 0.545800 0.408400 -0.593239
O41   O     O_R   0.008500 0.545800 0.591600 -0.595157
O42   O     O_R   0.491500 0.045800 0.408400 -0.595841
O43   O     O_R   0.508500 0.045800 0.591600 -0.598482
O44   O     O_3   0.446764 0.940187 0.259259 -0.635550
O45   O     O_R   0.916920 0.545810 0.408440 -0.616274
O46   O     O_3   0.507425 0.894233 0.669256 -0.620080
O47   O     O_3   0.993858 0.393705 0.331097 -0.621169
O48   O     O_3   0.052310 0.440327 0.739378 -0.635312
O49   O     O_3   0.811948 0.790435 0.859533 -0.668605
O50   O     O_3   0.161890 0.686382 0.098553 -0.632497
O51   O     O_3   0.333829 0.189553 0.893190 -0.633414
O52   O     O_3   0.691966 0.268027 0.151375 -0.661783
O53   O     O_3   0.044772 0.685396 0.186173 -0.661308
O54   O     O_3   0.953078 0.823703 0.812405 -0.655357
O55   O     O_3   0.554253 0.309383 0.201990 -0.655711
O56   O     O_R   0.083080 0.545810 0.591560 -0.627721
O57   O     O_3   0.448170 0.195296 0.800580 -0.661723
O58   O     O_3   0.606709 0.666370 0.983445 -0.657138
O59   O     O_3   0.411194 0.670591 0.050704 -0.655999
O60   O     O_3   0.095474 0.169049 0.962743 -0.657324
O61   O     O_3   0.908417 0.169959 0.044687 -0.658708
O62   O     O_3   0.997591 0.623901 0.642254 -0.634008
O63   O     O_3   0.000740 0.618591 0.350846 -0.633256
O64   O     O_3   0.500586 0.117072 0.654096 -0.635699
O65   O     O_3   0.501758 0.125743 0.359316 -0.635197
O66   O     O_3   0.222232 0.808977 0.254888 -0.652308
O67   O     O_R   0.416920 0.045810 0.408440 -0.628467
O68   O     O_3   0.853374 0.930879 0.965812 -0.640294
O69   O     O_3   0.649903 0.428447 0.058386 -0.624578
O70   O     O_3   0.290688 0.316519 0.762352 -0.651604
O71   O     O_3   0.326048 0.835095 0.420031 -0.599459
O72   O     O_3   0.794390 0.979510 0.818353 -0.614150
O73   O     O_3   0.713113 0.463918 0.215588 -0.602316
O74   O     O_3   0.192820 0.344146 0.599273 -0.598498
O75   O     O_3   0.426851 0.870094 0.458061 -0.577779
O76   O     O_3   0.688785 0.941189 0.674022 -0.589525
O77   O     O_3   0.821637 0.423101 0.351651 -0.603678
O78   O     O_R   0.583080 0.045810 0.591560 -0.609751
O79   O     O_3   0.084205 0.372446 0.548848 -0.578747
O80   O     O_R   0.491480 0.954180 0.408380 -0.607360
Zn1   Zn    Zn3+2 0.284500 0.715460 0.069080 0.940462
Zn2   Zn    Zn3+2 0.450210 0.999990 0.500010 0.983290
Zn3   Zn    Zn3+2 0.049790 0.499990 0.499990 0.989771
Zn4   Zn    Zn3+2 0.950210 0.499990 0.500010 0.995171
Zn5   Zn    Zn3+2 0.715500 0.715460 0.930920 0.905067
Zn6   Zn    Zn3+2 0.784500 0.215460 0.069080 0.911832
Zn7   Zn    Zn3+2 0.215500 0.215460 0.930920 0.939770
Zn8   Zn    Zn3+2 0.215490 0.784530 0.930970 0.939841
Zn9   Zn    Zn3+2 0.784510 0.784530 0.069030 0.940027
Zn10  Zn    Zn3+2 0.715490 0.284530 0.930970 0.936526
Zn11  Zn    Zn3+2 0.284510 0.284530 0.069030 0.941751
Zn12  Zn    Zn3+2 0.549790 0.999990 0.499990 0.983969

loop_
_geom_bond_atom_site_label_1
_geom_bond_atom_site_label_2
_ccdc_geom_bond_type
C21   C26   A    
O2    Zn2   S    
C140  O59   S    
C105  H297  S    
C114  C115  S    
C258  C262  A    
C23   C284  A    
C266  C278  A    
C208  C223  S    
C40   O37   A    
C112  O12   A    
C110  H310  S    
C237  C242  A    
C174  H162  S    
C3    C131  S    
C108  H306  S    
C46   H135  S    
C54   O3    A    
C93   H270  S    
C106  C107  S    
C29   C277  S    
C143  C144  S    
O6    Zn12  S    
C217  C222  A    
C108  C109  S    
C167  H147  S    
C5    H2    S    
C229  C234  A    
C129  C283  S    
C233  C237  A    
C182  C183  S    
C197  H215  S    
C204  O79   S    
C103  H292  S    
C191  O74   S    
C149  H98   S    
C124  C168  A    
C50   O67   A    
C195  H209  S    
C133  H61   S    
C121  H26   S    
O4    Zn4   S    
C70   C74   A    
C109  H308  S    
C113  H201  S    
C53   O2    A    
O31   Zn1   S    
C129  H49   S    
C4    H302  S    
C227  O16   A    
C170  H151  S    
C184  O72   S    
O26   Zn7   S    
C166  C233  S    
C155  H116  S    
C104  H296  S    
C151  H103  S    
C60   C263  A    
C198  H218  S    
C107  H301  S    
C255  C259  A    
C176  H167  S    
C25   C29   A    
C116  H9    S    
C132  H58   S    
C202  C203  S    
C27   C31   A    
C191  C192  S    
C89   H262  S    
C28   C32   A    
C140  C141  S    
C62   C66   A    
O20   Zn10  S    
C94   H272  S    
C83   H245  S    
C98   O51   S    
C17   C21   A    
C160  O65   S    
C150  O62   S    
C154  H110  S    
C196  H211  S    
C188  H194  S    
C270  C279  A    
C131  H53   S    
C19   C23   A    
C224  C233  A    
C17   C43   A    
C6    C10   A    
C125  H34   S    
C75   C241  A    
C18   C44   A    
C2    C274  A    
C80   H239  S    
C178  C180  S    
C175  C176  S    
C194  H207  S    
C16   C20   A    
C197  O76   S    
C123  H30   S    
C277  O26   A    
C76   C77   A    
C192  H202  S    
C258  C271  A    
C92   H267  S    
C91   H263  S    
C154  C155  S    
C141  H80   S    
O30   Zn11  S    
C128  H45   S    
C158  C159  S    
C228  O17   A    
C257  C261  A    
C36   C44   A    
C88   O48   S    
C183  H183  S    
C2    C71   A    
C76   C252  A    
C223  C232  A    
C27   C275  S    
C191  H199  S    
C164  H136  S    
C12   C132  S    
C201  O74   S    
O36   Zn8   S    
C243  C265  A    
C144  C145  S    
C236  O47   S    
C152  H105  S    
C98   H282  S    
C85   H251  S    
C13   C72   A    
C199  H219  S    
C62   C225  S    
C256  C269  A    
C126  H38   S    
C59   C63   A    
C33   C38   A    
C118  H16   S    
C200  H225  S    
C60   C64   A    
O1    Zn1   S    
C275  O24   A    
C237  O48   S    
C156  C158  S    
C190  C210  A    
C261  C266  A    
C153  O63   S    
O38   Zn10  S    
C215  C220  A    
C65   O58   S    
C208  O23   A    
C114  H4    S    
C251  C256  A    
C40   O32   A    
C80   H235  S    
O43   Zn2   S    
C193  H205  S    
C122  H27   S    
C181  O71   S    
C159  H121  S    
C122  C281  S    
C173  H158  S    
C97   H279  S    
C20   C47   A    
C105  O53   S    
C195  C196  S    
C144  H87   S    
C61   C65   A    
C166  H143  S    
C155  H114  S    
C246  O52   S    
C88   C89   S    
C200  C202  S    
C98   C99   S    
C20   C25   A    
C88   H259  S    
C115  H8    S    
C153  H108  S    
C73   C77   A    
C31   C36   A    
C147  H93   S    
C187  H193  S    
C113  C157  A    
C185  H187  S    
C196  H214  S    
C77   C263  A    
O23   Zn6   S    
C181  H177  S    
O13   Zn11  S    
C55   C242  S    
C29   C33   A    
C192  H203  S    
C69   O61   S    
C172  H156  S    
C225  O18   A    
C128  C282  S    
C84   H249  S    
C81   H241  S    
C218  C223  A    
C10   H57   S    
C85   C86   S    
C5    C9    A    
C191  H200  S    
C117  H11   S    
C134  H64   S    
C1    C221  S    
C102  H290  S    
O11   Zn10  S    
C68   H157  S    
C154  H111  S    
C125  H36   S    
C78   C80   S    
C42   O35   A    
C148  H96   S    
C163  H134  S    
C124  O66   S    
C65   C70   A    
C33   C127  S    
C184  C185  S    
C123  H32   S    
C203  H228  S    
C32   C126  S    
C4    C8    A    
C178  H172  S    
C274  H79   S    
C78   H212  S    
C36   O63   S    
C219  C224  S    
C156  H118  S    
C189  H197  S    
C171  O68   S    
C87   H257  S    
C42   C249  S    
C90   C217  A    
C4    C282  A    
C120  H21   S    
O80   Zn12  S    
C137  H70   S    
C89   C91   S    
C186  H191  S    
C244  C266  A    
C52   C238  S    
C63   C67   A    
C164  H138  S    
O28   Zn9   S    
C203  H229  S    
C121  H23   S    
C219  O13   A    
C142  H84   S    
C167  O66   S    
C245  C267  A    
C205  H233  S    
C246  C268  A    
O33   Zn6   S    
C152  H107  S    
C95   H274  S    
C47   C50   S    
C140  H77   S    
C162  H130  S    
O37   Zn9   S    
C71   C75   A    
C199  H220  S    
C30   C34   A    
C8    H35   S    
C57   H146  S    
C127  H42   S    
O7    Zn4   S    
C214  C218  A    
C262  C267  A    
C9    C14   A    
C248  C253  A    
C277  O30   A    
C130  H51   S    
C145  H92   S    
C176  H166  S    
C64   C69   A    
C95   O50   S    
C119  H17   S    
C39   C248  S    
O18   Zn8   S    
C245  O51   S    
C12   C17   A    
C143  H85   S    
C168  O71   S    
C97   H281  S    
C139  H76   S    
C234  O44   S    
C78   H224  S    
C171  H154  S    
C83   C84   S    
C139  H75   S    
C99   H285  S    
C8    C12   A    
C115  H6    S    
C128  H43   S    
C209  O76   S    
C32   C37   A    
C136  H67   S    
C52   O80   A    
C79   C216  A    
C26   C30   A    
C123  H31   S    
C204  H231  S    
C179  O72   S    
C156  O64   S    
C157  C201  A    
C31   C125  S    
C57   C68   A    
C160  H125  S    
C16   C136  S    
C206  H237  S    
C92   H266  S    
C177  O70   S    
C40   C247  S    
C159  H123  S    
O25   Zn6   S    
C245  C249  A    
C87   H256  S    
C215  C242  A    
C111  H3    S    
C243  O49   S    
C18   C22   A    
C199  H221  S    
C34   C43   A    
C106  H299  S    
C6    H13   S    
C186  H188  S    
C222  C231  A    
C26   C273  S    
C19   C45   A    
C254  H280  S    
C251  H258  S    
C247  C251  A    
C79   C124  A    
C39   O31   A    
C110  H311  S    
C203  H230  S    
C41   O33   A    
C161  H128  S    
C158  H119  S    
C117  C118  S    
C85   O47   S    
C138  H72   S    
C90   C135  A    
C228  O21   A    
C142  H83   S    
C254  C258  A    
C273  O27   A    
C206  H236  S    
O32   Zn5   S    
C184  H184  S    
C119  H18   S    
C165  H141  S    
C197  C198  S    
C186  H189  S    
C102  O52   S    
O14   Zn1   S    
O10   Zn9   S    
C149  H97   S    
C116  O57   S    
C44   C48   S    
C204  C205  S    
C121  H25   S    
C180  H173  S    
O35   Zn7   S    
C142  H82   S    
C211  O79   S    
C150  C151  S    
C231  C235  A    
C129  H48   S    
C201  C211  A    
C64   C227  S    
C212  C238  A    
C79   H168  S    
C93   H268  S    
C170  H152  S    
C82   H243  S    
C269  O53   S    
C58   C62   A    
C155  H115  S    
C137  O58   S    
C70   C274  A    
C96   H277  S    
C220  C224  A    
C24   H113  S    
C53   C239  S    
C161  C162  S    
C107  H304  S    
C15   C134  S    
C181  C182  S    
C15   C19   A    
C116  H10   S    
C45   C51   S    
C189  H198  S    
C89   H261  S    
C210  O77   S    
C139  H74   S    
C3    C7    A    
C177  H170  S    
C84   H248  S    
C24   C73   A    
C35   H124  S    
C94   H273  S    
C135  O68   S    
C100  H287  S    
C51   O78   A    
O27   Zn8   S    
C234  C238  A    
C82   H244  S    
C58   H112  S    
C216  C221  A    
C125  H33   S    
C101  C218  A    
O3    Zn3   S    
C147  C148  S    
C194  H208  S    
C157  O70   S    
C41   C250  S    
C151  C152  S    
C69   C73   A    
C50   O42   A    
C82   O46   S    
C113  C220  A    
C74   C230  A    
C68   C252  A    
C194  C195  S    
C249  C254  A    
C273  O22   A    
C208  O11   A    
C1    O1    A    
C46   C230  A    
C184  H185  S    
C147  O61   S    
C145  H91   S    
C105  H298  S    
C42   O39   A    
C182  H180  S    
C207  O75   S    
C6    C284  A    
C110  H309  S    
C174  H161  S    
O16   Zn6   S    
C90   H179  S    
O22   Zn1   S    
C3    C25   A    
C118  H14   S    
C167  C169  S    
C259  C264  A    
C152  H106  S    
C98   H283  S    
C95   H275  S    
C86   C87   S    
C260  C261  A    
C120  C279  S    
C96   H276  S    
C163  C229  S    
C207  C212  A    
C126  H39   S    
C82   C83   S    
C244  C248  A    
C7    C11   A    
C21   C282  A    
C197  H216  S    
C166  H144  S    
C149  H99   S    
O40   Zn3   S    
C11   C16   A    
C195  H210  S    
C133  H62   S    
C145  H89   S    
C180  H175  S    
O41   Zn4   S    
C122  H28   S    
C168  C207  A    
C56   C230  A    
C97   H278  S    
C170  H150  S    
C130  H50   S    
C144  H88   S    
C271  C280  A    
C14   C133  S    
C104  H295  S    
C151  H104  S    
C243  C247  A    
C88   H260  S    
C115  H7    S    
C198  H217  S    
C136  H66   S    
C185  H186  S    
C253  H269  S    
C272  C281  A    
C57   C263  A    
C122  H29   S    
C13   H101  S    
C235  C239  A    
C270  O54   S    
C35   C241  A    
C84   H250  S    
C48   O40   A    
C81   H240  S    
C141  H81   S    
C166  H142  S    
C63   C228  S    
C272  O57   S    
C94   H271  S    
C165  H140  S    
C83   H246  S    
C105  C106  S    
C268  C280  A    
C150  H100  S    
C22   C283  A    
C134  H65   S    
C131  H54   S    
C190  O73   S    
C187  C188  S    
C165  H139  S    
C109  C110  S    
C192  C193  S    
O8    Zn3   S    
C275  O28   A    
C185  C186  S    
C163  H133  S    
O34   Zn7   S    
C92   C93   S    
O17   Zn7   S    
C111  C114  S    
C271  O55   S    
C209  C213  A    
C91   H264  S    
C138  C139  S    
C54   C240  S    
C181  H176  S    
O78   Zn12  S    
C177  C178  S    
C221  C229  A    
C103  C104  S    
C174  O69   S    
C120  H22   S    
C56   C61   A    
C119  H19   S    
C260  C265  A    
C35   C46   A    
C120  H20   S    
C143  O60   S    
C108  H305  S    
C182  H178  S    
C41   O38   A    
C211  C215  A    
C171  C172  S    
O9    Zn8   S    
C93   C94   S    
C169  C170  S    
C14   C18   A    
C214  C240  A    
C95   C96   S    
C121  C280  S    
C232  C236  A    
C200  O77   S    
C78   O44   S    
C162  H131  S    
C119  C278  S    
C227  O20   A    
C86   H254  S    
C85   H252  S    
C111  O55   S    
C205  C206  S    
C150  H102  S    
C140  H78   S    
C187  O73   S    
C126  H37   S    
C118  H15   S    
C164  C231  S    
C127  H41   S    
C61   C226  S    
C67   C72   A    
C156  H117  S    
C10   C15   A    
C59   H223  S    
C28   C276  S    
C130  H52   S    
C9    H46   S    
C267  C281  A    
C173  H160  S    
C43   C49   S    
C39   O36   A    
C256  C260  A    
C193  H206  S    
O19   Zn9   S    
C116  C117  S    
C55   O4    A    
C159  H122  S    
C173  H159  S    
C130  C284  S    
C103  H293  S    
C202  H227  S    
C174  C175  S    
C171  H153  S    
C66   C71   A    
C53   O6    A    
C165  C232  S    
C100  H286  S    
C276  O25   A    
C128  H44   S    
C147  H94   S    
C198  C199  S    
C38   O65   S    
C196  H213  S    
O56   Zn3   S    
C219  O34   A    
C37   O64   S    
C132  H59   S    
O24   Zn5   S    
C204  H232  S    
C172  H155  S    
C52   O5    A    
C102  C103  S    
C175  H163  S    
C160  H126  S    
C67   O60   S    
C206  H238  S    
C81   H242  S    
C169  H148  S    
C87   H255  S    
C101  C146  A    
C244  O50   S    
C74   C75   A    
C49   O56   A    
C117  H12   S    
C134  H63   S    
C188  H195  S    
C212  C216  A    
C102  H289  S    
C148  C149  S    
C106  H300  S    
C213  C217  A    
C111  H312  S    
C265  C279  A    
C148  H95   S    
C262  C264  A    
C66   O59   S    
C193  H204  S    
C210  C214  A    
C133  H60   S    
C112  O10   A    
C255  H291  S    
C236  C240  A    
C13   C24   A    
C188  C189  S    
C11   H68   S    
C58   C241  A    
C178  H171  S    
C161  H127  S    
C158  H120  S    
C55   O8    A    
C60   H247  S    
C253  C257  A    
C153  H109  S    
C99   C100  S    
C264  C268  A    
C96   C97   S    
C167  H145  S    
C183  H181  S    
C2    H90   S    
C189  H196  S    
C72   C76   A    
C137  H71   S    
C127  H40   S    
C30   C123  S    
C183  H182  S    
C38   C47   A    
C56   H1    S    
C235  O46   S    
C1    O9    A    
C164  H137  S    
C202  H226  S    
C7    H24   S    
C180  H174  S    
O12   Zn5   S    
C276  O29   A    
C48   O45   A    
C23   C28   A    
C205  H234  S    
C129  H47   S    
C162  H129  S    
C175  H164  S    
O42   Zn12  S    
C172  C173  S    
C109  H307  S    
C226  O15   A    
C246  C250  A    
C250  C255  A    
C104  H294  S    
C194  O75   S    
C114  H5    S    
O45   Zn4   S    
C200  H222  S    
C5    C283  A    
C112  C222  S    
C101  H190  S    
C92   O49   S    
C80   C81   S    
C213  C239  A    
O39   Zn11  S    
C136  H69   S    
C107  H303  S    
O15   Zn5   S    
C176  H165  S    
O67   Zn2   S    
C49   O41   A    
C137  C138  S    
C179  C209  A    
C132  H56   S    
C22   C27   A    
C51   O43   A    
C160  C161  S    
C225  O14   A    
C143  H86   S    
C135  C179  A    
C54   O7    A    
C177  H169  S    
C141  C142  S    
C108  O54   S    
C34   O62   S    
C99   H284  S    
C146  O69   S    
C226  O19   A    
C169  H149  S    
C100  H288  S    
C269  C278  A    
C187  H192  S    
C138  H73   S    
C131  H55   S    
O5    Zn2   S    
C146  C190  A    
C86   H253  S    
O21   Zn11  S    
C59   C252  A    
C163  H132  S    
O29   Zn10  S    
C257  C270  A    
C153  C154  S    
C37   C45   A    
C91   H265  S    
C259  C272  A    
