data_mof_unit_51043.cif
_audit_creation_date              2012-12-10T17:37:19-0500
_audit_creation_method            fapswitch 2.2
_symmetry_space_group_name_H-M    P1
_symmetry_Int_Tables_number       1
_space_group_crystal_system       triclinic
_cell_length_a                    12.328747
_cell_length_b                    13.181965
_cell_length_c                    15.839659
_cell_angle_alpha                 77.920769
_cell_angle_beta                  101.067789
_cell_angle_gamma                 116.570784
_cell_volume                      2237.07254758

loop_
_atom_site_label
_atom_site_type_symbol
_atom_type_description
_atom_site_fract_x
_atom_site_fract_y
_atom_site_fract_z
_atom_type_partial_charge
C1    C     C_R   0.854854 0.286597 0.507440 0.769641
C2    C     C_3   0.998713 0.499484 0.917206 0.193809
C3    C     C_3   0.106404 0.579905 0.029720 -0.159435
C4    C     C_3   0.000154 0.499411 0.082810 0.193621
C5    C     C_3   0.013891 0.602861 0.956265 -0.157972
C6    C     C_3   0.907637 0.522364 0.010894 -0.157700
C7    C     C_1   0.998300 0.499593 0.825335 -0.078798
C8    C     C_1   0.000830 0.499511 0.174684 -0.079785
C9    C     C_R   0.275492 0.021253 0.385274 -0.193295
C10   C     C_R   0.228026 0.834442 0.469776 -0.046989
C11   C     C_R   0.815256 0.085388 0.563804 -0.191137
C12   C     C_R   0.999417 0.499771 0.659960 0.823393
C13   C     C_R   0.736474 0.970588 0.580859 -0.147693
C14   C     C_R   0.613173 0.932837 0.550670 -0.183484
C15   C     C_R   0.566402 0.009433 0.499326 0.078321
C16   C     C_R   0.649845 0.123753 0.473597 0.082009
C17   C     C_R   0.439804 0.976055 0.471808 0.072203
C18   C     C_R   0.400113 0.053189 0.412902 0.167243
C19   C     C_R   0.485312 0.160202 0.380463 -0.242534
C20   C     C_R   0.608377 0.194332 0.409164 -0.200095
C21   C     C_R   0.351020 0.868408 0.501579 -0.254196
C22   C     C_R   0.189758 0.911951 0.413127 -0.197579
C23   C     C_R   0.145084 0.713361 0.487448 0.794429
C24   C     C_R   0.772887 0.163602 0.512270 -0.100856
C25   C     C_R   0.345205 0.327317 0.636850 -0.302267
C26   C     C_R   0.760392 0.646053 0.383881 0.078390
C27   C     C_R   0.664388 0.678199 0.358694 -0.258415
C28   C     C_R   0.560578 0.623100 0.402343 -0.191325
C29   C     C_R   0.551648 0.534715 0.472301 -0.006641
C30   C     C_R   0.652812 0.505094 0.496030 0.286648
C31   C     C_R   0.446928 0.475042 0.519727 -0.038243
C32   C     C_R   0.445807 0.387349 0.589331 0.176269
C33   C     C_R   0.545256 0.360255 0.611568 -0.280442
C34   C     C_R   0.000475 0.500093 0.340043 0.819511
C35   C     C_R   0.646560 0.418190 0.566357 -0.176203
C36   C     C_R   0.342448 0.498150 0.501574 0.021661
C37   C     C_R   0.245755 0.354290 0.615750 0.073849
C38   C     C_3   0.984968 0.396026 0.043755 -0.159382
C39   C     C_3   0.892452 0.418983 0.970288 -0.159809
C40   C     C_1   0.998506 0.499701 0.749675 -0.183085
C41   C     C_1   0.000989 0.499723 0.250343 -0.183577
C42   C     C_3   0.091222 0.476526 0.989126 -0.158119
Cu1   Cu    Cu3+1 0.098270 0.475420 0.519690 0.935032
Cu2   Cu    Cu3+1 0.901730 0.524580 0.480310 0.922799
H1    H     H_    0.804632 0.352980 0.944495 0.127188
H2    H     H_    0.909199 0.113395 0.592868 0.150801
H3    H     H_    0.557750 0.842655 0.567091 0.129958
H4    H     H_    0.770498 0.910866 0.620093 0.142016
H5    H     H_    0.167677 0.308275 0.652099 0.120565
H6    H     H_    0.545203 0.293663 0.665037 0.150127
H7    H     H_    0.343627 0.260075 0.690071 0.134173
H8    H     H_    0.335235 0.563148 0.449873 0.124208
H9    H     H_    0.840666 0.689356 0.349682 0.123532
H10   H     H_    0.973140 0.311157 0.081050 0.127853
H11   H     H_    0.489102 0.651505 0.380076 0.135680
H12   H     H_    0.832296 0.541175 0.021221 0.128442
H13   H     H_    0.025717 0.687733 0.918975 0.128145
H14   H     H_    0.194226 0.645918 0.055497 0.128022
H15   H     H_    0.166563 0.457712 0.978805 0.128590
H16   H     H_    0.094657 0.886634 0.387688 0.146818
H17   H     H_    0.244782 0.079735 0.340175 0.132690
N1    N     N_R   0.246280 0.438200 0.549540 -0.179849
N2    N     N_R   0.754330 0.561180 0.450980 -0.206435
O1    O     O_R   0.972510 0.318130 0.524770 -0.580584
O2    O     O_R   0.806530 0.359650 0.491510 -0.604906
O3    O     O_R   0.082970 0.479240 0.637550 -0.575556
O4    O     O_R   0.916990 0.520750 0.604290 -0.591407
O5    O     O_R   0.193470 0.640350 0.508490 -0.587611
O6    O     O_R   0.027490 0.681870 0.475230 -0.587033
O7    O     O_R   0.083010 0.479250 0.395710 -0.575158
O8    O     O_R   0.917030 0.520760 0.362450 -0.588071
H18   H     H_    0.374920 0.808100 0.549070 0.148267
H19   H     H_    0.670346 0.275643 0.378093 0.176579
H20   H     H_    0.670457 0.746063 0.305159 0.141924
H21   H     H_    0.718322 0.392000 0.589458 0.206189
H22   H     H_    0.456761 0.217939 0.332501 0.145070

loop_
_geom_bond_atom_site_label_1
_geom_bond_atom_site_label_2
_ccdc_geom_bond_type
C1    O1    A    
C3    C42   S    
C23   O6    A    
C2    C7    S    
C4    C8    S    
C37   N1    A    
C10   C22   A    
C35   H21   S    
C26   C27   A    
C30   C35   A    
C9    H17   S    
C19   H22   S    
C38   C42   S    
C22   H16   S    
C5    C6    S    
C9    C22   A    
C15   C16   A    
C11   C24   A    
Cu2   O8    S    
C18   C19   A    
C25   C37   A    
C2    C39   S    
C19   C20   A    
Cu1   O5    S    
C1    O2    A    
C7    C40   T    
C27   H20   S    
C34   O7    A    
C36   H8    S    
C39   H1    S    
C25   C32   A    
C16   C24   A    
C13   C14   A    
Cu2   O2    S    
C34   C41   S    
C36   N1    A    
C28   H11   S    
Cu1   O1    S    
C10   C21   A    
C12   O4    A    
Cu2   O4    S    
C21   H18   S    
C8    C41   T    
C4    C6    S    
C33   H6    S    
C12   O3    A    
C17   C21   A    
C23   O5    A    
C12   C40   S    
C26   N2    A    
C25   H7    S    
C29   C30   A    
C37   H5    S    
C31   C32   A    
C38   H10   S    
C16   C20   A    
C14   C15   A    
C17   C18   A    
Cu2   O6    S    
C4    C38   S    
Cu1   O7    S    
Cu1   Cu2   S    
C2    C5    S    
C3    C4    S    
C26   H9    S    
C15   C17   A    
C28   C29   A    
C6    C39   S    
C6    H12   S    
C3    C5    S    
C42   H15   S    
C13   H4    S    
C14   H3    S    
C10   C23   S    
C5    H13   S    
C32   C33   A    
C29   C31   A    
C11   C13   A    
C38   C39   S    
C2    C42   S    
Cu1   O3    S    
C33   C35   A    
C20   H19   S    
C3    H14   S    
C9    C18   A    
C1    C24   S    
Cu2   N2    S    
C27   C28   A    
C31   C36   A    
C11   H2    S    
C30   N2    A    
C34   O8    A    
Cu1   N1    S    
