data_mof_unit_20167.cif
_audit_creation_date              2013-03-05T16:06:47-0500
_audit_creation_method            fapswitch 2.2
_symmetry_space_group_name_H-M    P1
_symmetry_Int_Tables_number       1
_space_group_crystal_system       triclinic
_cell_length_a                    6.959265
_cell_length_b                    14.533745
_cell_length_c                    16.197178
_cell_angle_alpha                 90.437545
_cell_angle_beta                  89.862482
_cell_angle_gamma                 90.133849
_cell_volume                      1638.19344568

loop_
_atom_site_label
_atom_site_type_symbol
_atom_site_description
_atom_site_fract_x
_atom_site_fract_y
_atom_site_fract_z
_atom_type_partial_charge
O1    O     O_R   0.505830 0.583360 0.413880 -0.599002
O2    O     O_R   0.175830 0.595460 0.585520 -0.604065
O3    O     O_R   0.005520 0.416640 0.586120 -0.580932
C1    C     C_R   0.344634 0.617401 0.614455 0.938202
O4    O     O_R   0.176120 0.594390 0.414490 -0.605133
O5    O     O_R   0.005810 0.415570 0.413870 -0.597176
C2    C     C_R   0.345142 0.616276 0.385951 0.921347
O6    O     O_R   0.505540 0.584430 0.586130 -0.598639
O7    O     O_3   0.339200 0.441330 0.500000 -0.241866
V1    V     V_3+5 0.064350 0.510880 0.500000 1.163745
O8    O     O_R   0.676100 0.404540 0.414480 -0.588730
C3    C     C_R   0.845179 0.382455 0.385806 0.949256
O9    O     O_R   0.675810 0.405610 0.585510 -0.559804
C4    C     C_R   0.844351 0.382129 0.612505 1.070248
V2    V     V_3+5 0.564340 0.489120 0.500000 1.199093
O10   O     O_3   0.839360 0.558670 0.500000 -0.298779
C5    C     C_2   0.724526 0.197777 0.778434 -0.199665
C6    C     C_2   0.887776 0.177041 0.818810 -0.497239
H1    H     H_    0.591414 0.165896 0.798722 0.185540
H2    H     H_    0.025162 0.203334 0.797926 0.199578
C7    C     C_2   0.713101 0.256193 0.702886 0.432110
C8    C     C_2   0.855738 0.315514 0.681250 -0.592191
H3    H     H_    0.986046 0.319473 0.717519 0.182683
C9    C     C_R   0.728080 0.180819 0.243328 0.160678
C10   C     C_R   0.882515 0.180374 0.187630 -0.227146
C11   C     C_R   0.034165 0.242434 0.203128 -0.157682
H4    H     H_    0.156792 0.244466 0.162160 0.139637
C12   C     C_R   0.022810 0.307071 0.268217 -0.157413
H5    H     H_    0.137631 0.356686 0.275584 0.132033
C13   C     C_R   0.859178 0.311793 0.319586 -0.232341
C14   C     C_R   0.716440 0.245018 0.307523 0.213974
C15   C     C_3   0.505647 0.256859 0.296070 -0.464550
C16   C     C_3   0.518184 0.186517 0.226409 -0.474767
H6    H     H_    0.469256 0.327120 0.274596 0.179010
H7    H     H_    0.421764 0.232219 0.350078 0.220214
H8    H     H_    0.488264 0.215733 0.164548 0.194779
H9    H     H_    0.442246 0.121031 0.240276 0.195167
C17   C     C_R   0.507473 0.681633 0.741298 0.172072
C18   C     C_R   0.353009 0.682144 0.685861 -0.227904
C19   C     C_R   0.201593 0.743560 0.703097 -0.155474
H10   H     H_    0.079052 0.746453 0.662414 0.140290
C20   C     C_R   0.212933 0.806441 0.769713 -0.139831
H11   H     H_    0.098175 0.855625 0.778332 0.136545
C21   C     C_R   0.376357 0.810156 0.821075 -0.229298
C22   C     C_R   0.519185 0.744126 0.806962 0.162185
C23   C     C_3   0.729823 0.756939 0.795148 -0.473476
C24   C     C_3   0.717241 0.688513 0.723969 -0.460479
H12   H     H_    0.814093 0.731055 0.848318 0.194056
H13   H     H_    0.765818 0.827907 0.775150 0.193458
H14   H     H_    0.793525 0.622896 0.736133 0.187009
H15   H     H_    0.746743 0.719552 0.662706 0.194122
C25   C     C_R   0.507817 0.681569 0.260119 0.159194
C26   C     C_R   0.353405 0.681407 0.315824 -0.221885
C27   C     C_R   0.201723 0.742938 0.300377 -0.153865
H16   H     H_    0.079199 0.745307 0.341396 0.139850
C28   C     C_R   0.212744 0.806606 0.235263 -0.153150
H17   H     H_    0.097879 0.855820 0.227991 0.133991
C29   C     C_R   0.376110 0.810974 0.183741 -0.226916
C30   C     C_R   0.519185 0.744850 0.195940 0.166225
C31   C     C_3   0.729818 0.757698 0.207613 -0.470899
C32   C     C_3   0.717545 0.688407 0.277193 -0.460229
H18   H     H_    0.765542 0.828449 0.229192 0.189456
H19   H     H_    0.814176 0.732547 0.153663 0.194180
H20   H     H_    0.746916 0.718727 0.339112 0.194454
H21   H     H_    0.794071 0.623012 0.263328 0.185068
O11   O     O_R   0.229930 0.912420 0.917160 -0.595693
O12   O     O_R   0.559420 0.902500 0.088780 -0.594719
O13   O     O_R   0.729660 0.081330 0.089380 -0.593476
C33   C     C_R   0.390164 0.880773 0.117486 0.933986
O14   O     O_R   0.559650 0.901420 0.917750 -0.595001
O15   O     O_R   0.729880 0.080250 0.917130 -0.595304
C34   C     C_R   0.390593 0.879614 0.888680 0.945331
O16   O     O_R   0.229700 0.913500 0.089410 -0.595495
O17   O     O_3   0.396250 0.055540 0.003280 -0.276136
V3    V     V_3+5 0.671130 0.986010 0.003260 1.146631
O18   O     O_R   0.059600 0.091310 0.917720 -0.598387
C35   C     C_R   0.891488 0.112337 0.888868 1.039221
O19   O     O_R   0.059370 0.092380 0.088750 -0.601437
C36   C     C_R   0.890563 0.114519 0.117371 0.934765
V4    V     V_3+5 0.171120 0.007820 0.003230 1.148827
O20   O     O_3   0.896130 0.938240 0.003240 -0.281113
N1    N     N_R   0.543534 0.246555 0.652786 0.244504
O21   O     O_R   0.375633 0.239138 0.687679 -0.438341
O22   O     O_R   0.559934 0.228096 0.574309 -0.397084

loop_
_geom_bond_atom_site_label_1
_geom_bond_atom_site_label_2
_geom_bond_distance
_ccdc_geom_bond_type
C1    O6    1.300280 A    
C26   C27   1.409153 A    
C21   C22   1.400437 A    
O13   V3    2.000361 S    
C23   H13   1.111320 S    
C11   H4    1.080252 S    
C31   H19   1.111545 S    
C12   H5    1.081284 S    
C25   C32   1.489121 S    
O5    C3    1.297876 A    
C13   C14   1.400115 A    
O19   V4    2.001803 S    
V2    O10   2.162377 S    
C16   H8    1.111537 S    
C28   H17   1.081144 S    
C31   H18   1.111330 S    
C17   C22   1.395734 A    
O1    C2    1.300868 A    
C27   H16   1.080150 S    
O8    V2    2.002007 S    
O11   C34   1.298818 A    
C33   O16   1.299347 A    
O1    V2    2.005500 S    
O7    V1    2.165508 S    
O13   C36   1.299484 A    
C19   C20   1.410925 A    
C30   C31   1.489576 S    
O17   V4    1.711901 S    
O9    C4    1.300003 A    
C20   C21   1.411397 A    
C24   H14   1.111691 S    
C23   H12   1.111539 S    
C27   C28   1.410189 A    
O17   V3    2.165554 S    
C15   H7    1.111576 S    
C9    C10   1.401538 A    
C18   C19   1.408621 A    
O4    C2    1.302441 A    
O19   C36   1.302076 A    
V3    O20   1.714332 S    
C24   H15   1.111615 S    
C29   C30   1.400834 A    
C22   C23   1.489305 S    
C16   H9    1.111713 S    
C31   C32   1.519239 S    
O12   C33   1.304302 A    
C15   H6    1.111273 S    
C32   H20   1.111577 S    
O2    C1    1.303839 A    
C25   C30   1.395200 A    
C14   C15   1.489627 S    
C1    C18   1.486576 S    
C5    C6    1.348116 D    
O18   C35   1.298848 A    
C17   C24   1.489190 S    
O3    C4    1.300224 A    
C19   H10   1.080055 S    
O6    V2    2.000711 S    
N1    O22   1.301901 A    
O9    V2    2.007087 S    
O12   V3    2.003075 S    
C20   H11   1.081145 S    
C2    C26   1.485054 S    
O2    V1    2.001601 S    
O15   C35   1.300092 A    
C25   C26   1.401504 A    
C23   C24   1.519347 S    
C3    C13   1.482474 S    
C10   C36   1.482427 S    
O18   V4    2.007045 S    
V4    O20   2.162396 S    
O5    V1    2.000390 S    
O8    C3    1.303892 A    
C29   C33   1.485254 S    
O11   V4    2.000958 S    
C11   C12   1.408909 A    
C9    C16   1.489466 S    
C15   C16   1.519283 S    
C4    C8    1.483470 S    
C12   C13   1.410223 A    
C10   C11   1.408440 A    
C9    C14   1.394066 A    
O4    V1    2.003124 S    
O3    V1    2.003286 S    
V1    O10   1.714388 S    
O15   V3    2.003289 S    
C17   C18   1.402363 A    
C6    C35   1.479592 S    
C5    H1    1.086126 S    
O16   V4    2.007083 S    
C28   C29   1.410289 A    
C21   C34   1.486971 S    
C6    H2    1.083190 S    
O7    V2    1.712377 S    
C5    C7    1.497049 S    
C32   H21   1.111710 S    
C7    N1    1.439709 S    
N1    O21   1.301356 A    
O14   V3    2.001580 S    
C8    H3    1.082865 S    
O14   C34   1.305742 A    
C7    C8    1.360300 D    
