data_mof_unit_36382.cif
_audit_creation_date              2012-10-26T18:27:10-0400
_audit_creation_method            fapswitch 2.2
_symmetry_space_group_name_H-M    P1
_symmetry_Int_Tables_number       1
_space_group_crystal_system       triclinic
_cell_length_a                    15.043274
_cell_length_b                    10.923373
_cell_length_c                    9.710562
_cell_angle_alpha                 90.191144
_cell_angle_beta                  90.013582
_cell_angle_gamma                 90.359012
_cell_volume                      1595.63126817

loop_
_atom_site_label
_atom_site_type_symbol
_atom_type_description
_atom_site_fract_x
_atom_site_fract_y
_atom_site_fract_z
_atom_type_partial_charge
C1    C     C_R   0.501905 0.265431 0.499912 0.562297
C2    C     C_R   0.186591 0.418217 0.414368 -0.135502
C3    C     C_R   0.232748 0.499043 0.500749 -0.006010
C4    C     C_R   0.329022 0.499786 0.500119 0.545167
C5    C     C_R   0.187112 0.578290 0.588853 -0.133142
C6    C     C_2   0.507982 0.932594 0.387488 -0.164091
C7    C     C_2   0.495972 0.866706 0.502286 -0.126110
C8    C     C_2   0.503860 0.066581 0.386579 -0.157223
C9    C     C_2   0.508142 0.133532 0.502181 -0.110181
C10   C     C_2   0.450709 0.426884 0.922847 0.076024
C11   C     C_2   0.440894 0.441920 0.077192 0.015918
C12   C     C_R   0.907790 0.584421 0.582540 0.008382
C13   C     C_R   0.499482 0.734620 0.500218 0.542033
C14   C     C_R   0.671173 0.500091 0.499425 0.600075
C15   C     C_R   0.814671 0.587888 0.577651 0.192062
C16   C     C_R   0.768103 0.501947 0.496459 0.000927
C17   C     C_R   0.813831 0.421070 0.408167 0.197542
C18   C     C_R   0.907149 0.416884 0.412992 0.002431
C19   C     C_R   0.953927 0.499569 0.499272 -0.026808
C20   C     C_3   0.756776 0.778996 0.563816 -0.024809
C21   C     C_3   0.720756 0.885787 0.647445 -0.382386
C22   C     C_3   0.606505 0.636669 0.885052 0.059795
C23   C     C_R   0.954697 0.330888 0.334359 -0.118376
C24   C     C_3   0.633574 0.741244 0.980633 -0.417335
C25   C     C_3   0.762345 0.386844 0.189961 0.002057
C26   C     C_3   0.700309 0.306488 0.104508 -0.367300
C27   C     C_R   0.047209 0.331671 0.334194 -0.148474
C28   C     C_R   0.093932 0.415678 0.415930 0.019592
C29   C     C_R   0.047381 0.498181 0.501345 0.067201
C30   C     C_R   0.094431 0.579857 0.588105 0.016825
C31   C     C_R   0.048185 0.662111 0.671864 -0.150332
C32   C     C_R   0.955678 0.664800 0.668764 -0.114890
Cu1   Cu    Cu3+1 0.500020 0.500020 0.638630 0.987183
Cu2   Cu    Cu3+1 0.499980 0.499980 0.361370 0.933423
H1    H     H_    0.481606 0.908175 0.601055 0.102824
H2    H     H_    0.223924 0.640500 0.655314 0.122956
H3    H     H_    0.083600 0.725061 0.739046 0.110600
H4    H     H_    0.921829 0.729937 0.734379 0.154012
H5    H     H_    0.519262 0.887378 0.289255 0.152985
H6    H     H_    0.708260 0.756751 0.480704 0.132955
H7    H     H_    0.820614 0.809510 0.516183 0.129801
H8    H     H_    0.766968 0.908332 0.733188 0.149730
H9    H     H_    0.713833 0.967316 0.580339 0.119447
H10   H     H_    0.654491 0.862628 0.690348 0.143082
H11   H     H_    0.618894 0.667628 0.779047 0.229471
H12   H     H_    0.497931 0.110730 0.286929 0.143558
H13   H     H_    0.649341 0.556274 0.907605 0.116603
H14   H     H_    0.624083 0.714807 0.089940 0.144420
H15   H     H_    0.704748 0.764496 0.964133 0.114730
H16   H     H_    0.592882 0.823402 0.958637 0.151605
H17   H     H_    0.828862 0.386689 0.140190 0.118310
H18   H     H_    0.736694 0.482259 0.187982 0.134246
H19   H     H_    0.633162 0.304036 0.151922 0.177721
H20   H     H_    0.694899 0.343482 0.998487 0.086508
H21   H     H_    0.726585 0.211809 0.099035 0.148436
H22   H     H_    0.518399 0.092939 0.602378 0.094531
H23   H     H_    0.415054 0.351969 0.873798 0.077976
H24   H     H_    0.383987 0.399291 0.126522 0.116389
H25   H     H_    0.559511 0.517125 0.109160 0.234597
H26   H     H_    0.920809 0.262815 0.272018 0.147273
H27   H     H_    0.082235 0.266181 0.270435 0.107372
H28   H     H_    0.222984 0.356008 0.348112 0.108451
N1    N     N_2   0.499020 0.498660 0.846910 -0.062581
N2    N     N_2   0.499000 0.498630 0.153040 -0.332029
O1    O     O_R   0.500020 0.321960 0.617040 -0.520548
O2    O     O_3   0.515583 0.609464 0.904071 -0.475656
O3    O     O_3   0.766461 0.339932 0.325600 -0.552294
O4    O     O_R   0.499980 0.321920 0.382900 -0.501333
O5    O     O_R   0.370270 0.499990 0.617090 -0.497433
O6    O     O_R   0.370240 0.499950 0.382940 -0.497602
O7    O     O_R   0.500020 0.678080 0.617100 -0.487288
O8    O     O_R   0.499980 0.678040 0.382960 -0.493128
O9    O     O_R   0.629760 0.500050 0.617060 -0.502625
O10   O     O_R   0.629730 0.500010 0.382910 -0.506240
O11   O     O_3   0.769096 0.676755 0.650721 -0.587796

loop_
_geom_bond_atom_site_label_1
_geom_bond_atom_site_label_2
_ccdc_geom_bond_type
C8    C9    D    
C26   H20   S    
C15   O11   S    
C25   H17   S    
C6    C7    D    
C13   O8    A    
C32   H4    S    
C21   H10   S    
C13   O7    A    
C14   O9    A    
Cu2   O6    S    
C24   H14   S    
C1    O1    A    
C31   C32   A    
C25   O3    S    
C12   C15   A    
Cu1   O5    S    
C30   C31   A    
Cu1   N1    S    
C26   H21   S    
C22   H11   S    
C22   C24   S    
Cu2   N2    S    
C2    C3    A    
N1    O2    S    
Cu1   O1    S    
C9    H22   S    
C12   C32   A    
H25   N2    S    
C29   C30   A    
Cu2   O10   S    
C6    C8    S    
C14   O10   A    
C12   C19   A    
Cu1   O9    S    
C28   C29   A    
C24   H15   S    
Cu1   Cu2   S    
C20   H7    S    
C23   C27   A    
C26   H19   S    
C14   C16   S    
C24   H16   S    
C23   H26   S    
C20   H6    S    
C8    H12   S    
C4    O6    A    
C25   H18   S    
C17   O3    S    
C15   C16   A    
Cu1   O7    S    
C18   C23   A    
C11   H24   S    
C5    H2    S    
Cu2   O8    S    
C7    C13   S    
C1    O4    A    
C1    C9    S    
C20   C21   S    
C10   H23   S    
C17   C18   A    
C5    C30   A    
C10   C11   S    
Cu2   O4    S    
C27   C28   A    
C2    H28   S    
C18   C19   A    
C6    H5    S    
C4    O5    A    
C2    C28   A    
C21   H8    S    
C27   H27   S    
C3    C5    A    
C25   C26   S    
C21   H9    S    
C7    H1    S    
C22   H13   S    
C22   O2    S    
C3    C4    S    
C10   N1    D    
C20   O11   S    
C31   H3    S    
C16   C17   A    
C11   N2    D    
C19   C29   A    
