data_mof_unit_34626.cif
_audit_creation_date              2012-10-26T21:21:03-0400
_audit_creation_method            fapswitch 2.2
_symmetry_space_group_name_H-M    P1
_symmetry_Int_Tables_number       1
_space_group_crystal_system       triclinic
_cell_length_a                    10.777725
_cell_length_b                    10.939368
_cell_length_c                    9.695888
_cell_angle_alpha                 89.514153
_cell_angle_beta                  90.053835
_cell_angle_gamma                 90.028864
_cell_volume                      1143.117995

loop_
_atom_site_label
_atom_site_type_symbol
_atom_type_description
_atom_site_fract_x
_atom_site_fract_y
_atom_site_fract_z
_atom_type_partial_charge
C1    C     C_R   0.497200 0.265419 0.500686 0.542183
C2    C     C_2   0.486855 0.133703 0.504218 -0.129811
C3    C     C_2   0.428073 0.429905 0.922664 -0.004908
C4    C     C_R   0.262615 0.496225 0.500011 0.537234
C5    C     C_2   0.430158 0.427869 0.078393 -0.007434
C6    C     C_R   0.498774 0.734799 0.499140 0.581176
C7    C     C_R   0.737404 0.495857 0.500087 0.536508
C8    C     C_R   0.129912 0.299488 0.643571 -0.119572
C9    C     C_R   0.065848 0.207006 0.714862 0.060327
C10   C     C_R   0.935921 0.208288 0.714674 -0.126616
C11   C     C_R   0.871125 0.299970 0.644647 -0.132157
C12   C     C_R   0.065749 0.394563 0.574086 -0.001385
C13   C     C_R   0.934685 0.394696 0.574426 0.023941
C14   C     C_2   0.135133 0.108515 0.787769 0.568402
C15   C     C_R   0.128907 0.487565 0.499830 0.008713
C16   C     C_R   0.063934 0.574519 0.422469 -0.136606
C17   C     C_R   0.935976 0.574451 0.422569 -0.142327
C18   C     C_R   0.871198 0.487514 0.500144 0.013539
C19   C     C_2   0.469686 0.935389 0.386777 0.069422
C20   C     C_2   0.502816 0.867318 0.497602 -0.048501
C21   C     C_2   0.481639 0.069173 0.387731 -0.154090
Cu1   Cu    Cu3+1 0.500020 0.500020 0.638630 0.951809
Cu2   Cu    Cu3+1 0.499980 0.499980 0.361370 0.964432
H1    H     H_    0.112703 0.644566 0.364186 0.140134
H2    H     H_    0.887063 0.644410 0.364285 0.131269
H3    H     H_    0.538444 0.908378 0.590798 0.066284
H4    H     H_    0.482504 0.115619 0.288197 0.151648
H5    H     H_    0.301360 0.036976 0.840747 0.337388
H6    H     H_    0.482436 0.903715 0.182111 0.228529
H7    H     H_    0.335986 0.915893 0.242397 0.237489
H8    H     H_    0.478205 0.091367 0.605111 0.133040
H9    H     H_    0.363484 0.368969 0.871792 0.162161
H10   H     H_    0.562155 0.554603 0.893486 0.210405
H11   H     H_    0.369494 0.363096 0.130273 0.143689
H12   H     H_    0.554262 0.562244 0.105506 0.210875
H13   H     H_    0.229991 0.294958 0.640544 0.166831
H14   H     H_    0.883882 0.137293 0.767462 0.152403
H15   H     H_    0.771020 0.294113 0.644333 0.145092
N1    N     N_2   0.498640 0.498660 0.846910 -0.346962
N2    N     N_2   0.498610 0.498630 0.153040 -0.342955
N3    N     N_3   0.423624 0.879280 0.263499 -0.583638
O1    O     O_R   0.500020 0.321960 0.617040 -0.500233
O2    O     O_R   0.264945 0.108834 0.787858 -0.737159
O3    O     O_R   0.499980 0.321920 0.382900 -0.499020
O4    O     O_R   0.319670 0.500020 0.617100 -0.497865
O5    O     O_R   0.319630 0.499980 0.382950 -0.493215
O6    O     O_R   0.500020 0.678080 0.617100 -0.500033
O7    O     O_R   0.499980 0.678040 0.382960 -0.451858
O8    O     O_R   0.680370 0.500020 0.617050 -0.502439
O9    O     O_R   0.680330 0.499980 0.382900 -0.496880
O10   O     O_2   0.079158 0.026812 0.848140 -0.519261

loop_
_geom_bond_atom_site_label_1
_geom_bond_atom_site_label_2
_ccdc_geom_bond_type
C8    C9    A    
C11   H15   S    
C2    H8    S    
C9    C14   S    
H7    N3    S    
C6    C20   S    
C9    C10   A    
H5    O2    S    
C19   C20   D    
C12   C15   A    
C8    C12   A    
C7    C18   S    
C17   H2    S    
C5    H11   S    
C4    C15   S    
H12   N2    S    
C21   H4    S    
C3    N1    D    
C16   H1    S    
Cu2   O5    S    
C4    O5    A    
C11   C13   A    
Cu1   O1    S    
C20   H3    S    
C13   C18   A    
C2    C21   D    
C10   H14   S    
Cu1   N1    S    
C19   C21   S    
Cu1   O6    S    
C4    O4    A    
Cu1   O8    S    
C8    H13   S    
C3    H9    S    
C10   C11   A    
Cu2   N2    S    
C19   N3    S    
C1    O1    A    
Cu1   O4    S    
C12   C13   A    
C7    O8    A    
C17   C18   A    
C1    C2    S    
C6    O6    A    
C5    N2    D    
Cu1   Cu2   S    
C16   C17   A    
Cu2   O9    S    
Cu2   O7    S    
C1    O3    A    
H6    N3    S    
H10   N1    S    
C15   C16   A    
Cu2   O3    S    
C14   O10   D    
C7    O9    A    
C14   O2    S    
C3    C5    S    
C6    O7    A    
