data_mof_unit_18507.cif
_audit_creation_date              2012-12-10T17:35:47-0500
_audit_creation_method            fapswitch 2.2
_symmetry_space_group_name_H-M    P1
_symmetry_Int_Tables_number       1
_space_group_crystal_system       triclinic
_cell_length_a                    10.633915
_cell_length_b                    12.160077
_cell_length_c                    12.800747
_cell_angle_alpha                 94.17831
_cell_angle_beta                  95.950819
_cell_angle_gamma                 89.174021
_cell_volume                      1641.91990194

loop_
_atom_site_label
_atom_site_type_symbol
_atom_type_description
_atom_site_fract_x
_atom_site_fract_y
_atom_site_fract_z
_atom_type_partial_charge
C1    C     C_R   0.478186 0.520838 0.696960 0.887244
C2    C     C_R   0.505831 0.477481 0.299403 0.870115
C3    C     C_R   0.432925 0.437000 0.858212 -0.309793
C4    C     C_R   0.503207 0.555440 0.129504 -0.274842
C5    C     C_R   0.451912 0.443275 0.967514 0.003645
C6    C     C_R   0.473550 0.548301 0.021596 -0.008405
C7    C     C_R   0.423496 0.942965 0.369615 0.161218
C8    C     C_R   0.633189 0.055704 0.598088 0.108949
C9    C     C_R   0.420383 0.830223 0.388515 0.418822
C10   C     C_R   0.609132 0.169947 0.595357 0.448399
C11   C     C_R   0.553473 0.862302 0.547616 0.526704
C12   C     C_R   0.464858 0.136990 0.442440 0.483248
C13   C     C_R   0.552710 0.979056 0.534906 -0.221492
C14   C     C_R   0.475609 0.020261 0.449538 -0.271145
C15   C     C_R   0.741929 0.503851 0.512148 0.925918
C16   C     C_R   0.256497 0.496081 0.491638 0.881971
C17   C     C_3   0.973895 0.439211 0.582865 0.468083
C18   C     C_3   0.019967 0.556577 0.424056 0.423425
C19   C     C_3   0.066408 0.536745 0.593368 -0.528337
C20   C     C_3   0.929401 0.458244 0.414594 -0.503084
C21   C     C_3   0.119683 0.490212 0.490574 -0.237364
C22   C     C_3   0.876713 0.506852 0.516349 -0.238278
C23   C     C_3   0.026797 0.392485 0.482819 0.472893
C24   C     C_3   0.968940 0.603678 0.525124 0.490762
C25   C     C_R   0.505673 0.461553 0.185538 -0.284144
C26   C     C_R   0.441123 0.531827 0.804563 -0.225926
C27   C     C_R   0.457543 0.644465 0.966765 0.149221
C28   C     C_R   0.461205 0.347173 0.023071 0.167301
C29   C     C_R   0.421661 0.633899 0.858503 0.430577
C30   C     C_R   0.496095 0.356198 0.131542 0.438704
H1    H     H_    0.123397 0.565241 0.667631 0.160887
H2    H     H_    0.873019 0.428068 0.340384 0.145863
H3    H     H_    0.518498 0.635114 0.171487 0.274378
H4    H     H_    0.418992 0.358790 0.813980 0.210921
N1    N     N_R   0.523490 0.207800 0.519350 -0.199953
N2    N     N_R   0.476510 0.792200 0.480650 -0.203734
O1    O     O_R   0.506270 0.421700 0.658830 -0.608628
O2    O     O_R   0.493730 0.578300 0.341170 -0.565861
O3    O     O_R   0.491200 0.609310 0.646410 -0.587000
O4    O     O_R   0.508800 0.390690 0.353590 -0.545913
O5    O     O_R   0.693580 0.406210 0.506230 -0.581352
O6    O     O_R   0.306420 0.593790 0.493770 -0.640055
O7    O     O_R   0.678510 0.593830 0.493810 -0.572195
O8    O     O_R   0.321490 0.406170 0.506190 -0.635405
Zn1   Zn    Zn3+2 0.510060 0.374730 0.508290 1.006616
Zn2   Zn    Zn3+2 0.489940 0.625270 0.491710 1.013756
O9    O     O_3   0.947078 0.374779 0.665251 -0.586711
C31   C     C_3   0.060981 0.342534 0.723427 0.094834
H5    H     H_    0.070320 0.390917 0.800828 0.149414
H6    H     H_    0.148577 0.355652 0.684963 0.147507
C32   C     C_3   0.057460 0.220340 0.742038 -0.755212
H7    H     H_    0.058259 0.169793 0.666377 0.267503
H8    H     H_    0.142180 0.198134 0.794757 0.226962
H9    H     H_    0.971845 0.200756 0.779383 0.278614
O10   O     O_3   0.033580 0.618886 0.337190 -0.661077
C33   C     C_3   0.913583 0.650316 0.287690 0.111213
H10   H     H_    0.831496 0.632759 0.331233 0.168576
H11   H     H_    0.898263 0.604537 0.209180 0.150540
C34   C     C_3   0.908958 0.773610 0.272647 -0.833068
H12   H     H_    0.985522 0.797651 0.226711 0.238298
H13   H     H_    0.816965 0.794846 0.229185 0.244780
H14   H     H_    0.917159 0.821719 0.349973 0.269310
O11   O     O_3   0.054820 0.280156 0.461937 -0.657397
C35   C     C_3   0.942947 0.216893 0.448384 0.152734
H15   H     H_    0.868744 0.251223 0.392112 0.146136
H16   H     H_    0.904066 0.210891 0.524952 0.240243
C36   C     C_3   0.973193 0.101509 0.403946 -0.939577
H17   H     H_    0.055338 0.067416 0.451964 0.257892
H18   H     H_    0.889920 0.047477 0.404072 0.247440
H19   H     H_    0.996900 0.103819 0.321739 0.251705
O12   O     O_3   0.945770 0.716741 0.549831 -0.547533
C37   C     C_3   0.061336 0.774129 0.550335 0.102467
H20   H     H_    0.089710 0.775004 0.469788 0.159159
H21   H     H_    0.139949 0.738480 0.601497 0.155675
C38   C     C_3   0.046827 0.892445 0.590620 -0.799208
H22   H     H_    0.024756 0.896009 0.673549 0.296037
H23   H     H_    0.135942 0.937744 0.586578 0.176345
H24   H     H_    0.970154 0.930344 0.540099 0.301390
O13   O     O_3   0.522318 0.261427 0.183388 -0.499521
C39   C     C_3   0.653811 0.240453 0.185996 0.157368
H25   H     H_    0.706955 0.301074 0.242647 0.098027
H26   H     H_    0.688094 0.244542 0.106828 0.119675
C40   C     C_3   0.683170 0.125248 0.220864 -0.666892
H27   H     H_    0.629484 0.063355 0.166429 0.308604
H28   H     H_    0.785502 0.107456 0.218884 0.170595
H29   H     H_    0.658321 0.118743 0.302236 0.256995
O14   O     O_3   0.372450 0.721893 0.805086 -0.634163
C41   C     C_3   0.254665 0.756600 0.839134 0.097084
H30   H     H_    0.240056 0.735888 0.920396 0.151738
H31   H     H_    0.177425 0.717150 0.785209 0.137266
C42   C     C_3   0.242710 0.881142 0.834951 -0.739262
H32   H     H_    0.258967 0.905213 0.755508 0.231704
H33   H     H_    0.146884 0.908766 0.853076 0.214640
H34   H     H_    0.313813 0.923018 0.893531 0.311339
Br1   Br    Br    0.492120 0.789883 0.033028 -0.508108
Br2   Br    Br    0.427824 0.201854 0.955686 -0.568209
O15   O     O_3   0.407938 0.181461 0.353420 -0.521740
C43   C     C_3   0.277268 0.190788 0.360169 0.201851
H35   H     H_    0.258250 0.226891 0.438565 0.190033
H36   H     H_    0.231845 0.108672 0.348187 0.133764
C44   C     C_3   0.219797 0.262663 0.274444 -0.659635
H37   H     H_    0.244613 0.228493 0.196312 0.278687
H38   H     H_    0.115332 0.265257 0.272430 0.208709
H39   H     H_    0.256285 0.348013 0.289173 0.223533
O16   O     O_3   0.643625 0.815918 0.616942 -0.533154
C45   C     C_3   0.607099 0.830794 0.719604 0.180909
H40   H     H_    0.510497 0.802576 0.719810 0.204943
H41   H     H_    0.607057 0.918521 0.750044 0.151903
C46   C     C_3   0.697807 0.766723 0.793084 -0.688468
H42   H     H_    0.795649 0.797336 0.792661 0.265367
H43   H     H_    0.670942 0.777916 0.874499 0.231141
H44   H     H_    0.695915 0.677521 0.767444 0.232560
O17   O     O_3   0.685678 0.245415 0.658052 -0.538245
C47   C     C_3   0.662775 0.241130 0.764713 0.187301
H45   H     H_    0.701987 0.165370 0.798951 0.171043
H46   H     H_    0.560251 0.242198 0.772379 0.139036
C48   C     C_3   0.725263 0.338667 0.830933 -0.742445
H47   H     H_    0.698193 0.417544 0.796332 0.260383
H48   H     H_    0.696643 0.341148 0.912018 0.192929
H49   H     H_    0.829400 0.330404 0.836173 0.254981
O18   O     O_3   0.389727 0.756280 0.303401 -0.557646
C49   C     C_3   0.257945 0.746091 0.285044 0.169373
H50   H     H_    0.210226 0.826515 0.271623 0.135979
H51   H     H_    0.223063 0.712257 0.353798 0.188354
C50   C     C_3   0.226150 0.667573 0.187813 -0.709843
H52   H     H_    0.259559 0.582998 0.203846 0.239506
H53   H     H_    0.123028 0.664849 0.164818 0.218034
H54   H     H_    0.271297 0.695892 0.120469 0.262815
Br3   Br    Br    0.385144 0.979792 0.224828 -0.405799
Br4   Br    Br    0.795215 0.015233 0.665733 -0.586743

loop_
_geom_bond_atom_site_label_1
_geom_bond_atom_site_label_2
_ccdc_geom_bond_type
O14   C41   S    
C37   H21   S    
C16   C21   S    
C27   C29   A    
C18   C21   S    
C27   Br1   S    
O10   C33   S    
C19   H1    S    
C4    C25   A    
C17   C23   S    
C18   C24   S    
C11   N2    A    
C19   C21   S    
C48   H48   S    
C5    C6    A    
C45   H40   S    
C33   H10   S    
O6    Zn2   S    
O2    Zn2   S    
C15   C22   S    
C40   H27   S    
C28   C30   A    
C11   O16   S    
C9    N2    A    
C9    O18   S    
C20   C23   S    
N2    Zn2   S    
C10   N1    A    
C7    C14   A    
C16   O8    A    
C1    O1    A    
C23   O11   S    
C34   H12   S    
C44   H38   S    
C13   C14   A    
C39   C40   S    
O7    Zn2   S    
O15   C43   S    
C31   C32   S    
O4    Zn1   S    
C34   H13   S    
C7    Br3   S    
C36   H17   S    
C44   H37   S    
O13   C39   S    
C15   O5    A    
C39   H26   S    
C48   H49   S    
C42   H32   S    
C39   H25   S    
C3    H4    S    
C3    C5    A    
C32   H7    S    
C32   H8    S    
C35   H16   S    
C38   H22   S    
C35   C36   S    
C42   H33   S    
C5    C28   A    
C2    O2    A    
C6    C27   A    
C41   C42   S    
C12   O15   S    
C12   N1    A    
C38   H23   S    
O18   C49   S    
C10   O17   S    
C18   O10   S    
O3    Zn2   S    
C30   O13   S    
C4    C6    A    
C31   H5    S    
C40   H28   S    
C41   H31   S    
C44   H39   S    
C43   H36   S    
C21   C23   S    
C8    Br4   S    
C1    C26   S    
C22   C24   S    
C46   H44   S    
O1    Zn1   S    
N1    Zn1   S    
C16   O6    A    
O8    Zn1   S    
O17   C47   S    
C20   H2    S    
C25   C30   A    
C7    C9    A    
C4    H3    S    
C34   H14   S    
C3    C26   A    
C17   O9    S    
C20   C22   S    
C37   H20   S    
O9    C31   S    
C47   H46   S    
C47   H45   S    
C43   C44   S    
O16   C45   S    
C17   C22   S    
C33   C34   S    
C28   Br2   S    
C32   H9    S    
C35   H15   S    
C36   H19   S    
C49   C50   S    
C46   H43   S    
C19   C24   S    
C12   C14   A    
C15   O7    A    
O12   C37   S    
C48   H47   S    
C42   H34   S    
C11   C13   A    
C37   C38   S    
C50   H52   S    
C45   H41   S    
C50   H54   S    
C31   H6    S    
C17   C19   S    
C33   H11   S    
C2    C25   S    
C18   C20   S    
C38   H24   S    
C29   O14   S    
C47   C48   S    
C1    O3    A    
O11   C35   S    
C8    C13   A    
C2    O4    A    
C40   H29   S    
C41   H30   S    
C26   C29   A    
C8    C10   A    
C43   H35   S    
C50   H53   S    
O5    Zn1   S    
C36   H18   S    
C49   H50   S    
C46   H42   S    
C49   H51   S    
C24   O12   S    
C45   C46   S    
