data_mof_unit_28257.cif
_audit_creation_date              2012-12-10T17:22:41-0500
_audit_creation_method            fapswitch 2.2
_symmetry_space_group_name_H-M    P1
_symmetry_Int_Tables_number       1
_space_group_crystal_system       triclinic
_cell_length_a                    10.637903
_cell_length_b                    10.799279
_cell_length_c                    9.583463
_cell_angle_alpha                 89.171997
_cell_angle_beta                  90.518615
_cell_angle_gamma                 92.547014
_cell_volume                      1099.72288429

loop_
_atom_site_label
_atom_site_type_symbol
_atom_type_description
_atom_site_fract_x
_atom_site_fract_y
_atom_site_fract_z
_atom_type_partial_charge
C1    C     C_R   0.515319 0.263580 0.502091 0.857391
C2    C     C_3   0.960314 0.596417 0.421497 -0.168900
C3    C     C_3   0.035643 0.487974 0.370210 0.290919
C4    C     C_3   0.122703 0.499341 0.497591 -0.087819
C5    C     C_R   0.529015 0.107557 0.771731 0.419152
C6    C     C_R   0.467358 0.048458 0.884115 -0.158544
C7    C     C_R   0.395739 0.939288 0.863843 -0.226402
C8    C     C_R   0.396807 0.881886 0.734696 -0.143821
C9    C     C_R   0.464810 0.937258 0.622151 0.046763
C10   C     C_R   0.510880 0.060741 0.634540 -0.046002
C11   C     C_R   0.536350 0.129659 0.509252 -0.181176
C12   C     C_R   0.259485 0.499093 0.499239 0.783895
C13   C     C_R   0.560482 0.065445 0.385963 0.357117
C14   C     C_R   0.541763 0.937731 0.383475 -0.258255
C15   C     C_R   0.492154 0.872826 0.499370 -0.151292
C16   C     C_R   0.665103 0.666891 0.143201 -0.166477
C17   C     C_R   0.745168 0.749110 0.070456 -0.213247
C18   C     C_R   0.746327 0.748150 0.926744 -0.184993
C19   C     C_R   0.666845 0.665514 0.854915 -0.133985
C20   C     C_R   0.581751 0.581583 0.924672 0.219420
C21   C     C_R   0.581318 0.581902 0.074337 0.218747
C22   C     C_R   0.422669 0.422013 0.074414 0.000166
C23   C     C_R   0.493249 0.737636 0.499313 0.788086
C24   C     C_R   0.422429 0.422291 0.926428 -0.006180
C25   C     C_R   0.740367 0.500570 0.500682 0.804539
C26   C     C_3   0.036587 0.406069 0.575906 0.255402
C27   C     C_3   0.950306 0.391197 0.446972 -0.249970
C28   C     C_3   0.876679 0.500129 0.501918 -0.050062
C29   C     C_3   0.961023 0.511844 0.633358 -0.126643
C30   C     C_3   0.047541 0.607084 0.552279 -0.254755
Cu1   Cu    Cu3+1 0.499990 0.499990 0.640660 0.964376
Cu2   Cu    Cu3+1 0.500010 0.500010 0.359340 0.967389
H1    H     H_    0.908730 0.303292 0.404527 0.168442
H2    H     H_    0.345957 0.894988 0.950433 0.162732
H3    H     H_    0.343683 0.794762 0.723778 0.159858
H4    H     H_    0.567323 0.889181 0.290492 0.191937
H5    H     H_    0.359556 0.357879 0.130088 0.127581
H6    H     H_    0.673479 0.674233 0.253113 0.193485
H7    H     H_    0.807711 0.813237 0.126405 0.165455
H8    H     H_    0.809734 0.811584 0.870164 0.159255
H9    H     H_    0.676698 0.671831 0.745012 0.194080
H10   H     H_    0.359057 0.358423 0.871444 0.141046
H11   H     H_    0.927597 0.520841 0.742024 0.150444
H12   H     H_    0.089836 0.694646 0.594812 0.145651
H13   H     H_    0.925801 0.674521 0.357348 0.127935
H14   H     H_    0.477623 0.085350 0.988074 0.211256
N1    N     N_R   0.501210 0.501210 0.147910 -0.193239
N2    N     N_R   0.501250 0.501290 0.852040 -0.189531
O1    O     O_R   0.499990 0.319640 0.618810 -0.551890
O2    O     O_R   0.500000 0.319660 0.381240 -0.536247
O3    O     O_R   0.316850 0.499960 0.618770 -0.578939
O4    O     O_R   0.316860 0.499980 0.381190 -0.582117
O5    O     O_R   0.500000 0.680340 0.618760 -0.609653
O6    O     O_R   0.500010 0.680360 0.381190 -0.604675
O7    O     O_R   0.683140 0.500020 0.618810 -0.580936
O8    O     O_R   0.683150 0.500040 0.381230 -0.588485
N3    N     N_2   0.083430 0.304418 0.658323 -0.447858
H15   H     H_    0.142574 0.250388 0.603186 0.235996
C31   C     C_3   0.988718 0.232712 0.735294 -0.601761
H16   H     H_    0.034258 0.159851 0.798256 0.217270
H17   H     H_    0.919640 0.187538 0.662358 0.242887
H18   H     H_    0.939280 0.293121 0.807656 0.262648
N4    N     N_2   0.078868 0.474077 0.228688 -0.419536
H19   H     H_    0.134662 0.399179 0.218333 0.246265
C32   C     C_3   0.981821 0.478601 0.122388 -0.645974
H20   H     H_    0.024515 0.469653 0.017885 0.220778
H21   H     H_    0.935563 0.568577 0.125084 0.238656
H22   H     H_    0.910412 0.401498 0.138126 0.252727
Cl1   Cl    Cl    0.626468 0.138688 0.236161 -0.630527
Cl2   Cl    Cl    0.653312 0.214844 0.813969 -0.619855

loop_
_geom_bond_atom_site_label_1
_geom_bond_atom_site_label_2
_ccdc_geom_bond_type
C21   N1    A    
C4    C26   S    
N4    C32   S    
C16   C21   A    
C1    O2    A    
C3    N4    S    
C26   C29   S    
C4    C12   S    
C24   H10   S    
C9    C10   A    
C12   O4    A    
C19   C20   A    
C1    C11   S    
C25   O8    A    
C8    H3    S    
C2    C30   S    
C32   H22   S    
C30   H12   S    
C15   C23   S    
C22   N1    A    
C26   C27   S    
C4    C30   S    
C31   H16   S    
C20   N2    A    
C13   C14   A    
C27   H1    S    
C25   C28   S    
C11   C13   A    
Cu2   O2    S    
N3    H15   S    
C29   C30   S    
C13   Cl1   S    
Cu1   O1    S    
C5    C6    A    
C29   H11   S    
Cu2   O6    S    
C28   C29   S    
C26   N3    S    
C23   O5    A    
C6    C7    A    
C2    C3    S    
C3    C27   S    
C2    H13   S    
C14   H4    S    
Cu1   N2    S    
C7    H2    S    
C22   C24   A    
C31   H17   S    
N3    C31   S    
C10   C11   A    
C3    C4    S    
C24   N2    A    
C16   C17   A    
C19   H9    S    
C5    C10   A    
C12   O3    A    
C20   C21   A    
C23   O6    A    
C17   C18   A    
C32   H20   S    
C17   H7    S    
C16   H6    S    
C27   C28   S    
Cu1   O3    S    
C7    C8    A    
C18   H8    S    
C14   C15   A    
C18   C19   A    
C31   H18   S    
C2    C28   S    
C6    H14   S    
Cu1   O7    S    
N4    H19   S    
C22   H5    S    
C1    O1    A    
Cu2   O8    S    
Cu1   Cu2   S    
Cu1   O5    S    
C25   O7    A    
C9    C15   A    
Cu2   N1    S    
C8    C9    A    
C32   H21   S    
C5    Cl2   S    
Cu2   O4    S    
