data_mof_unit_44777.cif
_audit_creation_date              2013-03-05T15:49:09-0500
_audit_creation_method            fapswitch 2.2
_symmetry_space_group_name_H-M    P1
_symmetry_Int_Tables_number       1
_space_group_crystal_system       triclinic
_cell_length_a                    22.43205
_cell_length_b                    12.992291
_cell_length_c                    26.967791
_cell_angle_alpha                 90.017314
_cell_angle_beta                  90.717918
_cell_angle_gamma                 89.848243
_cell_volume                      7858.94853693

loop_
_atom_site_label
_atom_site_type_symbol
_atom_site_description
_atom_site_fract_x
_atom_site_fract_y
_atom_site_fract_z
_atom_type_partial_charge
O1    O     O_R   0.769900 0.064540 0.196060 -0.441565
O2    O     O_R   0.230100 0.064540 0.803940 -0.460147
O3    O     O_R   0.269900 0.564540 0.196060 -0.440567
O4    O     O_R   0.730100 0.564540 0.803940 -0.442258
O5    O     O_R   0.750800 0.274080 0.199250 -0.470755
O6    O     O_R   0.249200 0.274080 0.800750 -0.487377
O7    O     O_R   0.250800 0.774080 0.199250 -0.467697
O8    O     O_R   0.749200 0.774080 0.800750 -0.470501
C1    C     C_R   0.720993 0.345717 0.178278 0.557158
C2    C     C_R   0.279366 0.345070 0.821645 0.570384
C3    C     C_R   0.220911 0.845812 0.178277 0.557971
C4    C     C_R   0.778993 0.845719 0.821706 0.553976
O9    O     O_R   0.669990 0.371670 0.194150 -0.517288
O10   O     O_R   0.330010 0.371670 0.805850 -0.499776
O11   O     O_R   0.169990 0.871670 0.194150 -0.519216
O12   O     O_R   0.830010 0.871670 0.805850 -0.520152
O13   O     O_R   0.574600 0.238480 0.197800 -0.491711
O14   O     O_R   0.425400 0.238480 0.802200 -0.499218
O15   O     O_R   0.074600 0.738480 0.197800 -0.493188
O16   O     O_R   0.925400 0.738480 0.802200 -0.494391
C5    C     C_R   0.553831 0.157269 0.177374 0.551926
C6    C     C_R   0.446695 0.157213 0.822304 0.542082
C7    C     C_R   0.053641 0.657250 0.177499 0.552673
C8    C     C_R   0.946516 0.657230 0.822391 0.552293
O17   O     O_R   0.566130 0.068680 0.194240 -0.520520
O18   O     O_R   0.433870 0.068680 0.805760 -0.520788
O19   O     O_R   0.066130 0.568680 0.194240 -0.520496
O20   O     O_R   0.933870 0.568680 0.805760 -0.519614
O21   O     O_R   0.680610 0.992490 0.199570 -0.511410
O22   O     O_R   0.319390 0.992490 0.800430 -0.510009
O23   O     O_R   0.180610 0.492490 0.199570 -0.510683
O24   O     O_R   0.819390 0.492490 0.800430 -0.513103
C9    C     C_R   0.731131 0.001877 0.179344 0.595256
C10   C     C_R   0.268793 0.001252 0.820394 0.588912
C11   C     C_R   0.231503 0.500861 0.179651 0.583169
C12   C     C_R   0.768914 0.501812 0.820668 0.589196
O25   O     O_R   0.770060 0.065440 0.307230 -0.505031
O26   O     O_R   0.229940 0.065440 0.692770 -0.519217
O27   O     O_R   0.270060 0.565440 0.307230 -0.502975
O28   O     O_R   0.729940 0.565440 0.692770 -0.518779
O29   O     O_R   0.750960 0.274920 0.302300 -0.512471
O30   O     O_R   0.249040 0.274920 0.697700 -0.505095
O31   O     O_R   0.250960 0.774920 0.302300 -0.510920
O32   O     O_R   0.749040 0.774920 0.697700 -0.506229
C13   C     C_R   0.721626 0.348080 0.321396 0.541037
C14   C     C_R   0.278622 0.347371 0.678290 0.550530
C15   C     C_R   0.221625 0.848075 0.321399 0.542162
C16   C     C_R   0.778628 0.847353 0.678283 0.542461
O33   O     O_R   0.670160 0.372580 0.305320 -0.514901
O34   O     O_R   0.329840 0.372580 0.694680 -0.513482
O35   O     O_R   0.170160 0.872580 0.305320 -0.515023
O36   O     O_R   0.829840 0.872580 0.694680 -0.516454
O37   O     O_R   0.574760 0.239320 0.300850 -0.499873
O38   O     O_R   0.425240 0.239320 0.699150 -0.502731
O39   O     O_R   0.074760 0.739320 0.300850 -0.500434
O40   O     O_R   0.925240 0.739320 0.699150 -0.501937
C17   C     C_R   0.554554 0.158991 0.321718 0.547951
C18   C     C_R   0.445711 0.158795 0.678426 0.549313
C19   C     C_R   0.054558 0.658991 0.321721 0.547287
C20   C     C_R   0.945718 0.658796 0.678430 0.553062
O41   O     O_R   0.566290 0.069580 0.305400 -0.508746
O42   O     O_R   0.433710 0.069580 0.694600 -0.489432
O43   O     O_R   0.066290 0.569580 0.305400 -0.509644
O44   O     O_R   0.933710 0.569580 0.694600 -0.488123
O45   O     O_R   0.680760 0.993330 0.302620 -0.483198
O46   O     O_R   0.319240 0.993330 0.697380 -0.462817
O47   O     O_R   0.180760 0.493330 0.302620 -0.483772
O48   O     O_R   0.819240 0.493330 0.697380 -0.464639
C21   C     C_R   0.731655 0.002908 0.323162 0.579702
C22   C     C_R   0.268007 0.000363 0.677389 0.569166
C23   C     C_R   0.231654 0.502915 0.323165 0.579180
C24   C     C_R   0.768012 0.500378 0.677384 0.564819
Cr1   Cr    Cr6+3 0.756570 0.170940 0.251190 1.092564
Cr2   Cr    Cr6+3 0.243430 0.170940 0.748810 1.078948
Cr3   Cr    Cr6+3 0.256570 0.670940 0.251190 1.098647
Cr4   Cr    Cr6+3 0.743430 0.670940 0.748810 1.089345
Cr5   Cr    Cr6+3 0.623740 0.299110 0.249580 1.055694
Cr6   Cr    Cr6+3 0.376260 0.299110 0.750420 1.055178
Cr7   Cr    Cr6+3 0.123740 0.799110 0.249580 1.053474
Cr8   Cr    Cr6+3 0.876260 0.799110 0.750420 1.052740
Cr9   Cr    Cr6+3 0.625990 0.036240 0.250480 1.061310
Cr10  Cr    Cr6+3 0.374010 0.036240 0.749520 1.075227
Cr11  Cr    Cr6+3 0.125990 0.536240 0.250480 1.057898
Cr12  Cr    Cr6+3 0.874010 0.536240 0.749520 1.077585
O49   O     O_3   0.668770 0.168760 0.250420 -0.274960
O50   O     O_3   0.331230 0.168760 0.749580 -0.273875
O51   O     O_3   0.168770 0.668760 0.250420 -0.274189
O52   O     O_3   0.831230 0.668760 0.749580 -0.270443
C25   C     C_R   0.517642 0.070234 0.101658 -0.123752
C26   C     C_R   0.488088 0.070450 0.896372 -0.124524
C27   C     C_R   0.016664 0.569956 0.102170 -0.126698
C28   C     C_R   0.986607 0.570651 0.896944 -0.120686
C29   C     C_R   0.510113 0.070296 0.050497 0.013950
C30   C     C_R   0.498285 0.070436 0.947246 0.021146
C31   C     C_R   0.007962 0.570111 0.051147 0.004467
C32   C     C_R   0.995638 0.570537 0.947952 0.005090
C33   C     C_R   0.502233 0.977119 0.973076 -0.133840
C34   C     C_R   0.507487 0.977044 0.024501 -0.131418
C35   C     C_R   0.000185 0.477161 0.973667 -0.130449
C36   C     C_R   0.005714 0.476924 0.025070 -0.133323
H1    H     H_    0.484216 0.997205 0.877320 0.143192
H2    H     H_    0.520998 0.996929 0.120726 0.148089
H3    H     H_    0.983766 0.497480 0.877706 0.147204
H4    H     H_    0.021069 0.496597 0.121058 0.145564
H5    H     H_    0.499918 0.904229 0.953600 0.134286
H6    H     H_    0.510029 0.904103 0.043914 0.142267
H7    H     H_    0.998520 0.404340 0.954091 0.145709
H8    H     H_    0.009058 0.403938 0.044375 0.144760
C37   C     C_R   0.476295 0.162916 0.871112 0.002705
C38   C     C_R   0.526908 0.162797 0.127512 0.001893
C39   C     C_R   0.974971 0.663060 0.871615 0.008917
C40   C     C_R   0.025820 0.662606 0.127991 0.001415
C41   C     C_R   0.521754 0.257229 0.102301 -0.096562
C42   C     C_R   0.482312 0.257358 0.896161 -0.085470
C43   C     C_R   0.019325 0.757061 0.103022 -0.094292
C44   C     C_R   0.979516 0.757444 0.896930 -0.084893
C45   C     C_R   0.511547 0.258692 0.050914 0.017606
C46   C     C_R   0.495038 0.258827 0.947177 0.038626
C47   C     C_R   0.007983 0.758558 0.051788 0.006784
C48   C     C_R   0.991017 0.758846 0.948114 0.009963
C49   C     C_R   0.507573 0.164704 0.024823 0.081874
C50   C     C_R   0.500983 0.164786 0.973001 0.095216
C51   C     C_R   0.004184 0.664600 0.025635 0.056080
C52   C     C_R   0.997217 0.664789 0.973857 0.056307
C53   C     C_R   0.507371 0.351985 0.024845 -0.101701
C54   C     C_R   0.498518 0.352041 0.973382 -0.097985
C55   C     C_R   0.002788 0.851882 0.025859 -0.089835
C56   C     C_R   0.993775 0.852015 0.974418 -0.093192
H9    H     H_    0.473560 0.329003 0.876773 0.155679
H10   H     H_    0.528672 0.328959 0.122074 0.161742
H11   H     H_    0.970793 0.829074 0.877512 0.160968
H12   H     H_    0.026164 0.828813 0.122797 0.164013
H13   H     H_    0.494053 0.424888 0.954129 0.157012
H14   H     H_    0.510476 0.424801 0.044291 0.175376
H15   H     H_    0.988980 0.924876 0.955222 0.183059
H16   H     H_    0.005503 0.924649 0.045370 0.193607
C57   C     C_R   0.736627 0.963200 0.128467 0.018836
C58   C     C_R   0.263185 0.960866 0.870812 0.013884
C59   C     C_R   0.240293 0.452346 0.130893 0.011793
C60   C     C_R   0.763495 0.463172 0.871543 0.018372
C61   C     C_R   0.792154 0.940526 0.106626 0.219338
C62   C     C_R   0.208205 0.930389 0.891207 0.220090
C63   C     C_R   0.297465 0.440358 0.109838 0.219764
C64   C     C_R   0.707995 0.440685 0.893352 0.220482
C65   C     C_R   0.794547 0.929554 0.054859 -0.029351
C66   C     C_R   0.205019 0.916083 0.942750 -0.049608
C67   C     C_R   0.301499 0.419016 0.058997 -0.048840
C68   C     C_R   0.705578 0.429702 0.945111 -0.030870
C69   C     C_R   0.743007 0.941988 0.025250 0.035056
C70   C     C_R   0.255129 0.933420 0.973436 0.022245
C71   C     C_R   0.249934 0.404859 0.029848 0.023955
C72   C     C_R   0.757064 0.441928 0.974759 0.034699
C73   C     C_R   0.688077 0.958672 0.047591 -0.112427
C74   C     C_R   0.309874 0.956884 0.952318 -0.085929
C75   C     C_R   0.193898 0.410361 0.051519 -0.096557
C76   C     C_R   0.811994 0.458415 0.952453 -0.110883
C77   C     C_R   0.684848 0.968095 0.098550 -0.151749
C78   C     C_R   0.313933 0.969858 0.901645 -0.156324
C79   C     C_R   0.189093 0.433683 0.101503 -0.155086
C80   C     C_R   0.815251 0.467902 0.901491 -0.151460
C81   C     C_R   0.705526 0.868515 0.946528 -0.112519
C82   C     C_R   0.293716 0.866630 0.053253 -0.129658
C83   C     C_R   0.225856 0.452723 0.943098 -0.131600
C84   C     C_R   0.794495 0.368094 0.053472 -0.111755
C85   C     C_R   0.711168 0.846012 0.896375 0.080219
C86   C     C_R   0.288912 0.847565 0.103810 0.077105
C87   C     C_R   0.232636 0.441641 0.891960 0.068073
C88   C     C_R   0.788807 0.345534 0.103606 0.080339
C89   C     C_R   0.796433 0.960948 0.893385 -0.129125
C90   C     C_R   0.199458 0.953524 0.104708 -0.118417
C91   C     C_R   0.296415 0.293220 0.907115 -0.112319
C92   C     C_R   0.703423 0.460989 0.106604 -0.126720
C93   C     C_R   0.789566 0.985962 0.943406 0.203605
C94   C     C_R   0.205041 0.974901 0.054218 0.229125
C95   C     C_R   0.289298 0.302604 0.958263 0.232212
C96   C     C_R   0.710319 0.486025 0.056597 0.204768
C97   C     C_R   0.745867 0.933917 0.970903 -0.010670
C98   C     C_R   0.251039 0.926042 0.027707 0.009583
C99   C     C_R   0.254539 0.384874 0.976441 -0.002173
C100  C     C_R   0.754135 0.433805 0.029104 -0.011144
C101  C     C_R   0.759673 0.887436 0.869911 -0.022828
C102  C     C_R   0.239036 0.886080 0.129522 -0.017146
C103  C     C_R   0.268673 0.362095 0.874098 0.009173
C104  C     C_R   0.740256 0.387277 0.130071 -0.023006
H17   H     H_    0.670617 0.831026 0.967173 0.181830
H18   H     H_    0.330132 0.831450 0.033325 0.137156
H19   H     H_    0.199163 0.515843 0.956990 0.142706
H20   H     H_    0.829454 0.330399 0.032827 0.183279
H21   H     H_    0.836599 0.911601 0.037469 0.164222
H22   H     H_    0.163356 0.892727 0.959189 0.162521
H23   H     H_    0.344886 0.412415 0.042037 0.161897
H24   H     H_    0.663542 0.411891 0.962468 0.162858
H25   H     H_    0.831919 0.997479 0.873036 0.180876
H26   H     H_    0.162528 0.987680 0.124360 0.182175
H27   H     H_    0.323223 0.230651 0.892660 0.138146
H28   H     H_    0.667868 0.497675 0.126952 0.182995
H29   H     H_    0.647781 0.967928 0.025440 0.127679
H30   H     H_    0.349187 0.969369 0.975274 0.170858
H31   H     H_    0.153774 0.398736 0.029440 0.147361
H32   H     H_    0.852267 0.467467 0.974630 0.130601
H33   H     H_    0.641871 0.986430 0.114176 0.143681
H34   H     H_    0.356429 0.994071 0.887024 0.148890
H35   H     H_    0.144768 0.442579 0.116444 0.145693
H36   H     H_    0.858220 0.486141 0.885897 0.144688
C105  C     C_R   0.528624 0.169261 0.371235 0.029004
C106  C     C_R   0.472955 0.168557 0.629386 0.024411
C107  C     C_R   0.028644 0.669258 0.371244 0.028992
C108  C     C_R   0.972981 0.668561 0.629398 0.026001
C109  C     C_R   0.539548 0.259116 0.398882 -0.119631
C110  C     C_R   0.465063 0.260064 0.602311 -0.122389
C111  C     C_R   0.039578 0.759113 0.398890 -0.119930
C112  C     C_R   0.965095 0.760067 0.602321 -0.121859
C113  C     C_R   0.528638 0.261298 0.449529 -0.117933
C114  C     C_R   0.476975 0.262610 0.551825 -0.117728
C115  C     C_R   0.028684 0.761293 0.449540 -0.117873
C116  C     C_R   0.977022 0.762613 0.551837 -0.117609
C117  C     C_R   0.505651 0.174299 0.473354 0.033931
C118  C     C_R   0.497867 0.174195 0.527629 0.032341
C119  C     C_R   0.005705 0.674294 0.473370 0.034078
C120  C     C_R   0.997923 0.674198 0.527646 0.032218
C121  C     C_R   0.490896 0.086883 0.445063 -0.109948
C122  C     C_R   0.509974 0.084974 0.555481 -0.113003
C123  C     C_R   0.990945 0.586875 0.445083 -0.109979
C124  C     C_R   0.010030 0.584982 0.555502 -0.112630
C125  C     C_R   0.502651 0.084132 0.394445 -0.109286
C126  C     C_R   0.497324 0.081992 0.605919 -0.108433
C127  C     C_R   0.002684 0.584126 0.394462 -0.109575
C128  C     C_R   0.997366 0.582001 0.605938 -0.106122
H37   H     H_    0.560315 0.325593 0.382178 0.138828
H38   H     H_    0.445819 0.327842 0.619262 0.139608
H39   H     H_    0.060337 0.825591 0.382181 0.138543
H40   H     H_    0.945843 0.827843 0.619266 0.139709
H41   H     H_    0.527827 0.016641 0.538029 0.112955
H42   H     H_    0.471465 0.019773 0.462263 0.112931
H43   H     H_    0.027891 0.516650 0.538054 0.113160
H44   H     H_    0.971521 0.519764 0.462286 0.112773
H45   H     H_    0.504072 0.010628 0.625996 0.153798
H46   H     H_    0.493738 0.014034 0.373936 0.138904
H47   H     H_    0.004115 0.510641 0.626018 0.155265
H48   H     H_    0.993766 0.514027 0.373955 0.138121
H49   H     H_    0.540823 0.329492 0.470361 0.105413
H50   H     H_    0.466961 0.332329 0.531338 0.111327
H51   H     H_    0.040872 0.829488 0.470370 0.105475
H52   H     H_    0.967009 0.832328 0.531347 0.111289
C129  C     C_R   0.735044 0.979339 0.375490 0.053552
C130  C     C_R   0.258350 0.950361 0.629212 0.036304
C131  C     C_R   0.235037 0.479365 0.375498 0.053609
C132  C     C_R   0.758372 0.450420 0.629194 0.034675
C133  C     C_R   0.738477 0.878742 0.394044 0.070069
C134  C     C_R   0.305101 0.897378 0.605220 0.084243
C135  C     C_R   0.238484 0.378776 0.394061 0.070098
C136  C     C_R   0.805142 0.397505 0.605191 0.083463
C137  C     C_R   0.737862 0.863734 0.445316 -0.095263
C138  C     C_R   0.303311 0.887459 0.554039 -0.099690
C139  C     C_R   0.237868 0.363786 0.445335 -0.095336
C140  C     C_R   0.803353 0.387617 0.554010 -0.099332
C141  C     C_R   0.733355 0.948605 0.477506 0.006724
C142  C     C_R   0.253546 0.920869 0.526410 0.011563
C143  C     C_R   0.233348 0.448667 0.477519 0.006750
C144  C     C_R   0.753574 0.420984 0.526388 0.011670
C145  C     C_R   0.728318 0.048090 0.458422 -0.133705
C146  C     C_R   0.203454 0.958128 0.551468 -0.131767
C147  C     C_R   0.228299 0.548144 0.458426 -0.133432
C148  C     C_R   0.703476 0.458203 0.551450 -0.131916
C149  C     C_R   0.728815 0.063081 0.407746 -0.139303
C150  C     C_R   0.206174 0.974238 0.602299 -0.141576
C151  C     C_R   0.228795 0.563117 0.407747 -0.139182
C152  C     C_R   0.706192 0.474285 0.602284 -0.142668
C153  C     C_R   0.778309 0.992937 0.558887 -0.112787
C154  C     C_R   0.218936 0.984119 0.443136 -0.108635
C155  C     C_R   0.278275 0.493028 0.558912 -0.112673
C156  C     C_R   0.718951 0.484191 0.443114 -0.108582
C157  C     C_R   0.788595 0.970113 0.608554 -0.118561
C158  C     C_R   0.211880 0.968254 0.392406 -0.103788
C159  C     C_R   0.288562 0.470190 0.608578 -0.115941
C160  C     C_R   0.711888 0.468296 0.392388 -0.103897
C161  C     C_R   0.713242 0.836391 0.603892 -0.122925
C162  C     C_R   0.282523 0.827098 0.397002 -0.133373
C163  C     C_R   0.213229 0.336437 0.603902 -0.122301
C164  C     C_R   0.782530 0.327138 0.396995 -0.133709
C165  C     C_R   0.703479 0.858532 0.554105 -0.123096
C166  C     C_R   0.286867 0.838843 0.447823 -0.128995
C167  C     C_R   0.203465 0.358591 0.554116 -0.122993
C168  C     C_R   0.786883 0.338916 0.447813 -0.129105
C169  C     C_R   0.737449 0.934385 0.531077 0.031929
C170  C     C_R   0.253599 0.915331 0.471811 0.035402
C171  C     C_R   0.237429 0.434461 0.531093 0.031773
C172  C     C_R   0.753619 0.415422 0.471793 0.035332
C173  C     C_R   0.757831 0.888890 0.630797 0.023953
C174  C     C_R   0.241573 0.886420 0.369605 0.028899
C175  C     C_R   0.257814 0.388937 0.630812 0.026391
C176  C     C_R   0.741579 0.386447 0.369595 0.028666
H53   H     H_    0.804756 0.052165 0.541481 0.116758
H54   H     H_    0.195153 0.047400 0.460000 0.108130
H55   H     H_    0.304714 0.552274 0.541511 0.116773
H56   H     H_    0.695168 0.547478 0.459973 0.108275
H57   H     H_    0.822921 0.011930 0.628655 0.148645
H58   H     H_    0.180889 0.016195 0.371633 0.153288
H59   H     H_    0.322880 0.512015 0.628685 0.150238
H60   H     H_    0.680894 0.516224 0.371611 0.153457
H61   H     H_    0.742219 0.786473 0.460040 0.130199
H62   H     H_    0.342303 0.856519 0.536184 0.123469
H63   H     H_    0.242233 0.286531 0.460065 0.130108
H64   H     H_    0.842352 0.356725 0.536147 0.123775
H65   H     H_    0.671067 0.814076 0.533127 0.108722
H66   H     H_    0.313473 0.783140 0.468073 0.103056
H67   H     H_    0.171062 0.314127 0.533134 0.108741
H68   H     H_    0.813490 0.283224 0.468069 0.102916
H69   H     H_    0.688726 0.773486 0.620239 0.136640
H70   H     H_    0.306644 0.763994 0.380203 0.139795
H71   H     H_    0.188721 0.273515 0.620242 0.136436
H72   H     H_    0.806647 0.264022 0.380203 0.139348
H73   H     H_    0.723848 0.114020 0.482740 0.123632
H74   H     H_    0.162792 0.978514 0.531775 0.107073
H75   H     H_    0.223818 0.614081 0.482738 0.124052
H76   H     H_    0.662809 0.478570 0.531760 0.107040
H77   H     H_    0.723115 0.140322 0.393415 0.118864
H78   H     H_    0.168658 0.011288 0.619924 0.141649
H79   H     H_    0.223083 0.640350 0.393410 0.118580
H80   H     H_    0.668667 0.511296 0.619915 0.141479
I1    I     I_    0.746201 0.749270 0.346787 -0.365924
I2    I     I_    0.381398 0.830265 0.640674 -0.373135
I3    I     I_    0.246224 0.249288 0.346815 -0.365514
I4    I     I_    0.881475 0.330456 0.640620 -0.380290
N1    N     N_R   0.845666 0.927786 0.136048 0.094741
O53   O     O_R   0.843127 0.891148 0.180877 -0.303942
O54   O     O_R   0.897682 0.941609 0.116300 -0.329351
N2    N     N_R   0.156102 0.913286 0.860594 0.095191
O55   O     O_R   0.161325 0.881913 0.815019 -0.303550
O56   O     O_R   0.103163 0.917972 0.879695 -0.334773
N3    N     N_R   0.351208 0.447653 0.139319 0.102001
O57   O     O_R   0.352703 0.411624 0.184342 -0.291385
O58   O     O_R   0.400977 0.475377 0.118993 -0.332775
N4    N     N_R   0.654521 0.428178 0.863905 0.094560
O59   O     O_R   0.657142 0.391477 0.819078 -0.319655
O60   O     O_R   0.602473 0.442282 0.883626 -0.335661
I5    I     I_    0.644438 0.746049 0.866928 -0.227944
I6    I     I_    0.359294 0.758229 0.135668 -0.251203
I7    I     I_    0.188929 0.547286 0.843868 -0.299912
I8    I     I_    0.855510 0.244894 0.133013 -0.210786
N5    N     N_R   0.826875 0.063953 0.965471 0.075603
O61   O     O_R   0.805325 0.127161 0.998166 -0.335633
O62   O     O_R   0.880254 0.079996 0.948816 -0.341835
N6    N     N_R   0.163692 0.045360 0.030809 0.083453
O63   O     O_R   0.181252 0.107726 0.996218 -0.280976
O64   O     O_R   0.109963 0.055683 0.047810 -0.351799
N7    N     N_R   0.316802 0.227698 0.990702 0.081654
O65   O     O_R   0.365026 0.180021 0.977203 -0.387394
O66   O     O_R   0.291056 0.199130 0.031401 -0.284901
N8    N     N_R   0.672918 0.564210 0.034542 0.075426
O67   O     O_R   0.694403 0.627335 0.001886 -0.335248
O68   O     O_R   0.619499 0.580496 0.051171 -0.344928

loop_
_geom_bond_atom_site_label_1
_geom_bond_atom_site_label_2
_geom_bond_distance
_ccdc_geom_bond_type
O4    C12   1.269794 A    
C68   H24   1.083533 S    
O39   C19   1.273041 A    
C121  H42   1.082896 S    
C62   C66   1.405163 A    
C23   C131  1.445194 S    
C144  C148  1.403400 A    
C137  H61   1.083309 S    
Cr7   O51   1.969601 S    
C5    C38   1.468852 S    
C60   C80   1.407409 A    
C147  C151  1.380701 A    
C7    C40   1.468270 S    
C141  C145  1.395167 A    
C91   C103  1.401594 A    
C29   C49   1.409341 A    
C74   C78   1.381126 A    
O25   C21   1.264913 A    
C112  H40   1.083250 S    
C32   C35   1.400414 A    
C121  C125  1.393962 A    
C156  H56   1.082100 S    
C1    O9    1.271231 A    
O44   Cr12  2.056163 S    
C161  C165  1.387804 A    
C16   C173  1.460440 S    
C11   C59   1.473248 S    
C66   C70   1.406052 A    
C3    O11   1.269254 A    
C72   C76   1.395030 A    
C9    C57   1.467542 S    
C106  C126  1.403281 A    
C63   N3    1.439107 S    
C134  C138  1.386298 A    
C71   C75   1.394500 A    
C153  H53   1.083541 S    
C163  C167  1.387804 A    
C61   C65   1.404939 A    
C33   H5    1.083818 S    
O2    C10   1.270089 A    
C59   C79   1.408775 A    
O17   Cr9   2.056048 S    
C150  H78   1.083320 S    
C157  C173  1.401523 A    
C134  I2    2.134309 S    
C124  C128  1.393545 A    
C159  H59   1.083291 S    
C139  C143  1.407404 A    
C117  C121  1.405945 A    
O16   Cr8   1.934685 S    
C84   C88   1.390979 A    
C55   H16   1.083315 S    
C91   H27   1.085133 S    
C56   H15   1.083528 S    
C89   H25   1.083131 S    
C30   C33   1.400491 A    
C109  C113  1.390857 A    
O28   Cr4   2.060046 S    
O12   Cr8   2.057289 S    
C72   C100  1.471714 S    
O15   C7    1.276862 A    
O6    C2    1.272624 A    
O46   Cr10  1.938364 S    
C71   C99   1.468264 S    
C4    C101  1.477837 S    
C108  C112  1.405015 A    
C6    C37   1.468728 S    
C30   C50   1.409798 A    
C21   C129  1.445144 S    
C132  C136  1.416084 A    
C114  C118  1.403320 A    
C92   H28   1.083146 S    
C81   C97   1.400671 A    
C90   C94   1.396937 A    
C129  C149  1.400569 A    
Cr12  O52   1.968905 S    
C84   H20   1.083292 S    
O7    Cr3   1.941667 S    
C28   C39   1.403754 A    
C17   O41   1.270190 A    
C47   C51   1.411870 A    
C19   O43   1.270190 A    
C34   H6    1.083824 S    
C114  H50   1.082719 S    
C20   O44   1.269319 A    
C24   C132  1.466322 S    
Cr8   O52   1.974186 S    
C1    C104  1.477866 S    
C148  H76   1.082061 S    
C116  H52   1.082719 S    
C161  H69   1.083221 S    
O46   C22   1.266385 A    
C127  H48   1.083154 S    
O19   Cr11  2.056048 S    
C14   C175  1.460468 S    
C139  H63   1.083316 S    
N8    O67   1.301393 A    
C165  H65   1.083496 S    
C140  H64   1.080308 S    
C16   O36   1.269584 A    
C143  C147  1.395180 A    
O27   C23   1.264919 A    
C93   C97   1.410699 A    
O31   C15   1.267492 A    
C81   C85   1.390912 A    
O32   C16   1.269899 A    
O47   Cr11  1.936737 S    
C26   C30   1.388068 A    
O21   C9    1.270038 A    
C146  H74   1.082056 S    
C86   C102  1.413937 A    
C136  I4    2.134316 S    
C33   C34   1.390360 A    
C51   C52   1.403134 A    
C61   N1    1.439802 S    
O24   C12   1.268598 A    
C124  H43   1.082911 S    
C74   H30   1.083637 S    
C123  C127  1.393969 A    
C161  C173  1.406164 A    
O8    Cr4   1.941556 S    
C46   C50   1.411703 A    
N1    O54   1.301570 A    
C106  C110  1.405021 A    
C69   C73   1.394778 A    
C59   C63   1.417236 A    
O11   Cr7   2.060215 S    
C67   H23   1.083742 S    
O27   Cr3   2.059588 S    
O3    Cr3   2.053892 S    
C138  H62   1.080299 S    
C131  C151  1.400587 A    
Cr5   O49   1.969601 S    
C126  H45   1.083165 S    
C90   C102  1.408963 A    
C107  C111  1.405450 A    
C142  C146  1.403408 A    
C147  H75   1.083855 S    
C43   H12   1.084148 S    
N5    O62   1.301471 A    
C36   H8    1.083883 S    
C41   H10   1.084138 S    
O22   C10   1.267134 A    
C75   C79   1.386960 A    
C4    O12   1.273035 A    
C76   C80   1.382745 A    
C2    O10   1.267181 A    
N4    O59   1.301349 A    
C117  C118  1.476225 S    
C25   C38   1.404557 A    
C10   C58   1.464544 S    
C44   C48   1.401159 A    
C27   C40   1.404735 A    
C67   C71   1.402850 A    
O5    C1    1.273082 A    
C154  H54   1.082097 S    
N3    O58   1.301606 A    
C58   C78   1.406368 A    
O3    C11   1.271295 A    
O8    C4    1.275081 A    
Cr1   O49   1.969660 S    
C96   N8    1.439744 S    
C86   I6    2.129510 S    
C158  C174  1.399406 A    
C155  H55   1.083542 S    
C144  C172  1.474081 S    
C37   C42   1.406491 A    
C41   C45   1.401853 A    
Cr3   O51   1.969660 S    
C43   C47   1.401887 A    
C83   C99   1.408029 A    
C77   H33   1.082900 S    
C75   H31   1.083816 S    
O26   Cr2   2.060046 S    
C19   C107  1.469114 S    
C5    O17   1.266180 A    
O29   C13   1.267492 A    
O28   C24   1.273158 A    
O14   C6    1.275973 A    
C129  C133  1.401211 A    
C68   C72   1.405741 A    
N2    O55   1.301367 A    
C163  H71   1.083222 S    
C131  C135  1.401222 A    
O40   Cr8   1.937834 S    
C57   C77   1.407206 A    
O41   Cr9   2.054479 S    
C108  C128  1.403282 A    
C168  H68   1.080719 S    
C135  I3    2.118127 S    
C140  C144  1.402307 A    
O33   Cr5   2.054308 S    
O5    Cr1   1.941667 S    
C157  H57   1.083289 S    
C82   C98   1.402426 A    
C123  H44   1.082896 S    
O29   Cr1   1.934676 S    
C137  C141  1.407380 A    
C96   C100  1.410850 A    
N6    O63   1.301268 A    
C89   C93   1.397761 A    
C26   C37   1.404126 A    
C130  C150  1.403486 A    
C45   C53   1.403726 A    
Cr9   O49   1.973346 S    
C92   C96   1.397917 A    
C47   C55   1.403700 A    
C53   H14   1.083518 S    
C18   O42   1.269312 A    
Cr11  O51   1.973346 S    
O26   C22   1.273156 A    
C125  H46   1.083154 S    
O20   Cr12  2.057319 S    
C162  H70   1.083399 S    
C111  H39   1.083292 S    
C154  C170  1.408183 A    
C166  H66   1.080713 S    
C130  C134  1.416058 A    
C152  H80   1.083321 S    
C18   C106  1.469474 S    
C31   C51   1.409282 A    
O30   C14   1.269918 A    
C81   H17   1.083301 S    
C82   C86   1.391370 A    
C105  C125  1.402671 A    
C39   C44   1.406640 A    
C88   I8    2.130260 S    
C84   C100  1.400609 A    
O42   Cr10  2.056163 S    
O18   Cr10  2.057319 S    
O31   Cr3   1.934676 S    
C2    C103  1.454443 S    
C3    C102  1.477398 S    
C162  C174  1.401174 A    
O34   Cr6   2.052169 S    
C133  I1    2.118114 S    
C160  H60   1.083161 S    
O6    Cr2   1.941556 S    
C165  C169  1.397773 A    
O24   Cr12  1.937924 S    
O30   Cr2   1.935721 S    
C87   I7    2.118800 S    
O48   Cr12  1.938364 S    
C8    O20   1.266261 A    
C168  C172  1.403830 A    
C58   C62   1.414250 A    
N7    O65   1.301015 A    
C90   H26   1.083044 S    
O37   C17   1.273035 A    
C31   C36   1.400642 A    
C20   C108  1.469479 S    
C15   O35   1.267979 A    
Cr10  O50   1.968905 S    
C167  C171  1.397780 A    
O40   C20   1.273295 A    
O43   Cr11  2.054479 S    
C63   C67   1.402718 A    
N3    O57   1.301433 A    
O21   Cr9   1.935779 S    
C115  C119  1.402906 A    
O39   Cr7   1.940503 S    
C135  C139  1.396716 A    
C13   O33   1.267957 A    
C156  C160  1.390577 A    
C141  C169  1.458223 S    
C110  H38   1.083251 S    
O15   Cr7   1.936716 S    
C89   C101  1.408412 A    
C49   C50   1.403479 A    
C22   C130  1.466342 S    
C107  C127  1.402677 A    
C94   N6    1.441530 S    
C154  C158  1.390590 A    
C53   C54   1.399513 A    
C42   H9    1.084034 S    
O23   C11   1.272701 A    
C55   C56   1.399398 A    
C119  C120  1.476238 S    
C57   C61   1.414765 A    
C65   H21   1.083521 S    
N8    O68   1.301475 A    
C60   C64   1.414807 A    
C80   H36   1.083287 S    
C93   N5    1.439736 S    
C48   C56   1.403932 A    
C155  C171  1.402665 A    
C145  H73   1.083852 S    
C164  H72   1.083397 S    
C35   H7    1.083804 S    
C115  H51   1.082806 S    
C153  C157  1.388278 A    
O1    Cr1   2.053892 S    
C113  H49   1.082806 S    
C159  C175  1.401532 A    
O45   C21   1.269125 A    
O47   C23   1.269138 A    
C73   C77   1.382439 A    
N1    O53   1.301376 A    
O13   C5    1.276551 A    
C119  C123  1.405945 A    
C6    O18   1.266137 A    
C138  C142  1.402343 A    
O36   Cr8   2.052169 S    
C15   C174  1.457623 S    
C95   N7    1.441124 S    
C65   C69   1.405822 A    
O38   Cr6   1.937834 S    
C111  C115  1.390864 A    
C122  H41   1.082910 S    
O22   Cr10  1.937924 S    
C25   H2    1.084480 S    
O37   Cr5   1.940503 S    
C28   C32   1.387918 A    
C27   H4    1.084507 S    
C64   C68   1.404880 A    
O1    C9    1.271241 A    
N5    O61   1.301397 A    
O7    C3    1.274950 A    
C164  C176  1.401156 A    
C149  H77   1.082177 S    
C143  C171  1.458269 S    
C153  C169  1.402649 A    
C155  C159  1.388317 A    
C151  H79   1.082181 S    
C158  H58   1.083164 S    
N4    O60   1.301532 A    
C73   H29   1.083648 S    
C122  C126  1.393535 A    
C17   C105  1.469099 S    
C133  C137  1.396698 A    
O23   Cr11  1.935779 S    
C83   H19   1.083620 S    
C45   C49   1.411616 A    
C28   H3    1.084505 S    
O45   Cr9   1.936737 S    
C87   C103  1.399517 A    
C112  C116  1.391186 A    
C54   H13   1.083440 S    
C88   C104  1.416251 A    
C7    O19   1.265668 A    
Cr4   O52   1.969512 S    
O2    Cr2   2.055565 S    
O48   C24   1.266362 A    
C136  C140  1.386261 A    
Cr6   O50   1.974186 S    
C94   C98   1.411933 A    
C25   C29   1.387904 A    
C76   H32   1.083798 S    
C8    C39   1.467737 S    
O13   Cr5   1.936716 S    
C167  H67   1.083498 S    
C118  C122  1.405484 A    
O35   Cr7   2.054308 S    
O9    Cr5   2.060215 S    
C32   C52   1.409922 A    
O16   C8    1.275323 A    
C128  H47   1.083163 S    
N2    O56   1.301621 A    
C82   H18   1.083462 S    
C113  C117  1.402905 A    
C95   C99   1.412670 A    
C110  C114  1.391185 A    
C91   C95   1.395819 A    
C83   C87   1.396694 A    
C26   H1    1.084489 S    
N7    O66   1.301239 A    
C92   C104  1.408333 A    
C79   H35   1.083379 S    
C35   C36   1.390213 A    
C105  C109  1.405445 A    
C148  C152  1.387246 A    
C69   C97   1.471500 S    
C109  H37   1.083294 S    
Cr2   O50   1.969512 S    
C145  C149  1.380670 A    
C12   C60   1.467665 S    
C38   C41   1.406647 A    
C85   I5    2.130230 S    
C42   C46   1.401730 A    
O14   Cr6   1.934685 S    
N6    O64   1.301455 A    
C166  C170  1.403833 A    
C163  C175  1.406162 A    
C162  C166  1.381218 A    
C78   H34   1.083630 S    
C120  C124  1.405484 A    
O38   C18   1.273293 A    
O25   Cr1   2.059588 S    
C164  C168  1.381192 A    
C146  C150  1.387242 A    
C132  C152  1.403492 A    
C156  C172  1.408155 A    
C14   O34   1.269591 A    
C70   C98   1.470768 S    
C142  C170  1.474146 S    
C85   C101  1.416215 A    
C64   N4    1.439792 S    
C44   H11   1.084139 S    
C62   N2    1.440143 S    
C13   C176  1.457583 S    
O10   Cr6   2.057289 S    
O4    Cr4   2.055565 S    
C160  C176  1.399415 A    
C27   C31   1.387338 A    
C70   C74   1.394613 A    
C66   H22   1.083531 S    
C46   C54   1.403845 A    
O32   Cr4   1.935721 S    
C116  C120  1.403320 A    
C29   C34   1.400583 A    
C40   C43   1.406333 A    
C48   C52   1.411308 A    
