data_mof_unit_20556.cif
_audit_creation_date              2012-12-11T14:07:50-0500
_audit_creation_method            fapswitch 2.2
_symmetry_space_group_name_H-M    P1
_symmetry_Int_Tables_number       1
_space_group_crystal_system       triclinic
_cell_length_a                    20.274374
_cell_length_b                    16.988891
_cell_length_c                    15.694437
_cell_angle_alpha                 89.999914
_cell_angle_beta                  51.817037
_cell_angle_gamma                 89.99968
_cell_volume                      4249.16193435

loop_
_atom_site_label
_atom_site_type_symbol
_atom_type_description
_atom_site_fract_x
_atom_site_fract_y
_atom_site_fract_z
_atom_type_partial_charge
C1    C     C_R   0.366397 0.194649 0.009797 0.307314
C2    C     C_R   0.366395 0.805352 0.009800 0.307310
C3    C     C_R   0.866396 0.694649 0.009798 0.307315
C4    C     C_R   0.866395 0.305352 0.009800 0.307308
C5    C     C_R   0.663163 0.910119 0.058816 0.737012
C6    C     C_R   0.663159 0.089884 0.058821 0.737022
C7    C     C_R   0.163164 0.410121 0.058812 0.737006
C8    C     C_R   0.163159 0.589884 0.058822 0.737023
C9    C     C_R   0.705246 0.151512 0.986457 -0.262783
C10   C     C_R   0.705253 0.848495 0.986447 -0.262777
C11   C     C_R   0.205245 0.651512 0.986459 -0.262781
C12   C     C_R   0.205257 0.348498 0.986440 -0.262775
C13   C     C_R   0.598860 0.815310 0.701728 -0.190445
C14   C     C_R   0.598863 0.184687 0.701725 -0.190433
C15   C     C_R   0.098854 0.315310 0.701731 -0.190439
C16   C     C_R   0.098865 0.684687 0.701724 -0.190436
C17   C     C_3   0.195587 0.129139 0.524188 -0.463494
C18   C     C_3   0.195589 0.870861 0.524189 -0.463508
C19   C     C_3   0.695603 0.629137 0.524196 -0.463506
C20   C     C_3   0.695585 0.370859 0.524186 -0.463507
C21   C     C_3   0.140368 0.176859 0.629807 -0.284961
C22   C     C_3   0.140377 0.823139 0.629806 -0.284948
C23   C     C_3   0.640384 0.676859 0.629811 -0.284949
C24   C     C_3   0.640372 0.323139 0.629804 -0.284952
C25   C     C_3   0.301480 0.240525 0.446168 -0.371354
C26   C     C_3   0.301484 0.759477 0.446161 -0.371356
C27   C     C_3   0.801480 0.740537 0.446146 -0.371351
C28   C     C_3   0.801485 0.259480 0.446168 -0.371361
C29   C     C_3   0.691146 0.736951 0.418427 -0.403812
C30   C     C_3   0.691174 0.263020 0.418406 -0.403803
C31   C     C_3   0.191167 0.236974 0.418411 -0.403799
C32   C     C_3   0.191167 0.763027 0.418412 -0.403799
C33   C     C_3   0.250892 0.186051 0.426534 0.378429
C34   C     C_3   0.250893 0.813951 0.426532 0.378430
C35   C     C_3   0.750890 0.686047 0.426534 0.378430
C36   C     C_3   0.750895 0.313948 0.426532 0.378431
C37   C     C_3   0.649847 0.766325 0.603653 0.341958
C38   C     C_3   0.649851 0.233671 0.603649 0.341966
C39   C     C_3   0.149844 0.266327 0.603653 0.341963
C40   C     C_3   0.149851 0.733672 0.603649 0.341959
C41   C     C_3   0.742227 0.791033 0.545976 -0.413640
C42   C     C_3   0.742232 0.208975 0.545988 -0.413654
C43   C     C_3   0.242225 0.291024 0.545994 -0.413641
C44   C     C_3   0.242232 0.708972 0.545981 -0.413648
C45   C     C_R   0.349591 0.829234 0.223241 -0.098014
C46   C     C_R   0.349593 0.170769 0.223242 -0.098011
C47   C     C_R   0.849593 0.329232 0.223241 -0.098015
C48   C     C_R   0.849590 0.670766 0.223242 -0.098015
C49   C     C_3   0.627533 0.780199 0.526255 -0.355658
C50   C     C_3   0.627552 0.219782 0.526238 -0.355672
C51   C     C_3   0.127546 0.280215 0.526241 -0.355667
C52   C     C_3   0.127546 0.719789 0.526243 -0.355668
C53   C     C_2   0.271895 0.696443 0.968898 0.028097
C54   C     C_2   0.271906 0.303565 0.968880 0.028120
C55   C     C_2   0.771895 0.196443 0.968896 0.028098
C56   C     C_2   0.771902 0.803562 0.968886 0.028109
C57   C     C_2   0.759775 0.273490 0.987972 -0.127285
C58   C     C_2   0.759781 0.726515 0.987961 -0.127287
C59   C     C_2   0.259775 0.773491 0.987972 -0.127287
C60   C     C_2   0.259784 0.226517 0.987956 -0.127285
C61   C     C_R   0.348280 0.895748 0.922966 -0.147616
C62   C     C_R   0.348284 0.104256 0.922961 -0.147617
C63   C     C_R   0.848280 0.395748 0.922967 -0.147615
C64   C     C_R   0.848283 0.604255 0.922963 -0.147617
C65   C     C_R   0.365664 0.086854 0.317579 -0.114400
C66   C     C_R   0.365663 0.913148 0.317579 -0.114402
C67   C     C_R   0.865663 0.586851 0.317579 -0.114398
C68   C     C_R   0.865664 0.413146 0.317579 -0.114402
C69   C     C_R   0.323916 0.177974 0.970566 0.000496
C70   C     C_R   0.323911 0.822030 0.970574 0.000492
C71   C     C_R   0.823914 0.677972 0.970569 0.000494
C72   C     C_R   0.823911 0.322030 0.970575 0.000492
C73   C     C_R   0.313073 0.857098 0.326159 -0.043058
C74   C     C_R   0.313075 0.142905 0.326159 -0.043062
C75   C     C_R   0.813075 0.357095 0.326159 -0.043056
C76   C     C_R   0.813071 0.642900 0.326160 -0.043062
C77   C     C_R   0.660981 0.177590 0.952543 0.279544
C78   C     C_R   0.660987 0.822416 0.952533 0.279542
C79   C     C_R   0.160981 0.677590 0.952544 0.279544
C80   C     C_R   0.160991 0.322419 0.952527 0.279534
C81   C     C_R   0.589451 0.800491 0.795018 0.813388
C82   C     C_R   0.589454 0.199508 0.795015 0.813376
C83   C     C_R   0.089448 0.300491 0.795018 0.813388
C84   C     C_R   0.089454 0.699508 0.795015 0.813378
C85   C     C_R   0.590287 0.105192 0.698162 -0.253503
C86   C     C_R   0.590285 0.894806 0.698164 -0.253504
C87   C     C_R   0.090288 0.605192 0.698161 -0.253500
C88   C     C_R   0.090281 0.394806 0.698166 -0.253509
H1    H     H_    0.155375 0.093211 0.513297 0.171106
H2    H     H_    0.155371 0.906786 0.513304 0.171111
H3    H     H_    0.655393 0.593193 0.513319 0.171107
H4    H     H_    0.655368 0.406780 0.513296 0.171110
H5    H     H_    0.573659 0.658475 0.676709 0.186337
H6    H     H_    0.573645 0.341512 0.676698 0.186326
H7    H     H_    0.073641 0.158483 0.676697 0.186317
H8    H     H_    0.073651 0.841515 0.676705 0.186334
H9    H     H_    0.161319 0.163280 0.679018 0.232923
H10   H     H_    0.161337 0.836713 0.679008 0.232913
H11   H     H_    0.661343 0.663292 0.679016 0.232916
H12   H     H_    0.661327 0.336718 0.679010 0.232916
H13   H     H_    0.341333 0.204955 0.458122 0.171064
H14   H     H_    0.341334 0.795048 0.458120 0.171061
H15   H     H_    0.841350 0.704981 0.458082 0.171061
H16   H     H_    0.841329 0.295054 0.458131 0.171062
H17   H     H_    0.758567 0.784835 0.601626 0.182538
H18   H     H_    0.758560 0.215175 0.601649 0.182533
H19   H     H_    0.258553 0.284819 0.601655 0.182554
H20   H     H_    0.258564 0.715168 0.601638 0.182529
H21   H     H_    0.727228 0.782073 0.353707 0.188752
H22   H     H_    0.727275 0.217891 0.353700 0.188765
H23   H     H_    0.227263 0.282101 0.353700 0.188758
H24   H     H_    0.227263 0.717899 0.353703 0.188763
H25   H     H_    0.657507 0.699406 0.398301 0.164023
H26   H     H_    0.657542 0.300546 0.398248 0.164025
H27   H     H_    0.157532 0.199442 0.398260 0.164022
H28   H     H_    0.157534 0.800558 0.398259 0.164022
H29   H     H_    0.562973 0.758422 0.564612 0.168872
H30   H     H_    0.562995 0.241558 0.564578 0.168881
H31   H     H_    0.062987 0.258442 0.564582 0.168874
H32   H     H_    0.062989 0.741568 0.564589 0.168878
H33   H     H_    0.629120 0.843627 0.508131 0.167105
H34   H     H_    0.629141 0.156352 0.508122 0.167103
H35   H     H_    0.129138 0.343645 0.508122 0.167103
H36   H     H_    0.129131 0.656359 0.508128 0.167102
H37   H     H_    0.344091 0.279403 0.374760 0.177471
H38   H     H_    0.344099 0.720604 0.374750 0.177472
H39   H     H_    0.844074 0.779417 0.374736 0.177478
H40   H     H_    0.844103 0.220606 0.374759 0.177471
H41   H     H_    0.323710 0.784146 0.205278 0.147561
H42   H     H_    0.323713 0.215858 0.205277 0.147562
H43   H     H_    0.823713 0.284144 0.205277 0.147563
H44   H     H_    0.823711 0.715856 0.205280 0.147561
H45   H     H_    0.751606 0.853981 0.521045 0.179054
H46   H     H_    0.751622 0.146029 0.521049 0.179057
H47   H     H_    0.251614 0.353972 0.521062 0.179054
H48   H     H_    0.251619 0.646026 0.521041 0.179058
H49   H     H_    0.331394 0.667627 0.932424 0.181997
H50   H     H_    0.331405 0.332380 0.932409 0.181997
H51   H     H_    0.831395 0.167627 0.932421 0.181996
H52   H     H_    0.831400 0.832378 0.932415 0.181998
H53   H     H_    0.700106 0.301411 0.021006 0.179874
H54   H     H_    0.700113 0.698595 0.020989 0.179872
H55   H     H_    0.200106 0.801411 0.021004 0.179875
H56   H     H_    0.200114 0.198598 0.020983 0.179868
H57   H     H_    0.331677 0.924802 0.877275 0.150257
H58   H     H_    0.331683 0.075203 0.877265 0.150257
H59   H     H_    0.831677 0.424802 0.877275 0.150256
H60   H     H_    0.831682 0.575202 0.877268 0.150256
H61   H     H_    0.364133 0.062314 0.381999 0.098489
H62   H     H_    0.364132 0.937687 0.381998 0.098488
H63   H     H_    0.864134 0.562312 0.381997 0.098489
H64   H     H_    0.864133 0.437685 0.381999 0.098488
H65   H     H_    0.588516 0.072554 0.640582 0.146430
H66   H     H_    0.588516 0.927442 0.640581 0.146430
H67   H     H_    0.088519 0.572555 0.640580 0.146429
H68   H     H_    0.088510 0.427443 0.640586 0.146431
H69   H     H_    0.234034 0.087472 0.531523 0.164982
H70   H     H_    0.234035 0.912531 0.531520 0.164981
H71   H     H_    0.734062 0.587485 0.531526 0.164986
H72   H     H_    0.734027 0.412534 0.531519 0.164982
N1    N     N_R   0.408680 0.130160 0.995800 -0.083223
N2    N     N_R   0.408680 0.869840 0.995800 -0.083223
N3    N     N_R   0.908680 0.630160 0.995800 -0.083222
N4    N     N_R   0.908680 0.369840 0.995800 -0.083224
N5    N     N_R   0.421680 0.867580 0.153120 -0.033394
N6    N     N_R   0.421680 0.132420 0.153120 -0.033394
N7    N     N_R   0.921680 0.367580 0.153120 -0.033395
N8    N     N_R   0.921680 0.632420 0.153120 -0.033393
N9    N     N_R   0.403730 0.921770 0.935950 -0.067728
N10   N     N_R   0.403730 0.078230 0.935950 -0.067728
N11   N     N_R   0.903730 0.421770 0.935950 -0.067729
N12   N     N_R   0.903730 0.578230 0.935950 -0.067728
N13   N     N_R   0.426630 0.075970 0.212960 -0.043008
N14   N     N_R   0.426630 0.924030 0.212960 -0.043008
N15   N     N_R   0.926630 0.575970 0.212960 -0.043008
N16   N     N_R   0.926630 0.424030 0.212960 -0.043007
N17   N     N_R   0.591320 0.134600 0.004200 -0.112567
N18   N     N_R   0.591320 0.865400 0.004200 -0.112564
N19   N     N_R   0.091320 0.634600 0.004200 -0.112568
N20   N     N_R   0.091320 0.365400 0.004200 -0.112563
N21   N     N_R   0.578320 0.867660 0.846880 -0.108769
N22   N     N_R   0.578320 0.132340 0.846880 -0.108773
N23   N     N_R   0.078320 0.367660 0.846880 -0.108769
N24   N     N_R   0.078320 0.632340 0.846880 -0.108773
N25   N     N_R   0.573370 0.074390 0.787040 -0.073149
N26   N     N_R   0.573370 0.925610 0.787040 -0.073148
N27   N     N_R   0.073370 0.574390 0.787040 -0.073149
N28   N     N_R   0.073370 0.425610 0.787040 -0.073149
N29   N     N_R   0.596270 0.927870 0.064040 -0.159811
N30   N     N_R   0.596270 0.072130 0.064040 -0.159814
N31   N     N_R   0.096270 0.427870 0.064040 -0.159809
N32   N     N_R   0.096270 0.572130 0.064040 -0.159815
Ni1   Ni    Ni4+2 0.500000 0.131190 0.000000 0.306196
Ni2   Ni    Ni4+2 0.500000 0.868810 0.000000 0.306197
Ni3   Ni    Ni4+2 0.000000 0.631190 0.000000 0.306197
Ni4   Ni    Ni4+2 0.000000 0.368810 0.000000 0.306195
Ni5   Ni    Ni4+2 0.488650 1.000000 0.862740 0.188709
Ni6   Ni    Ni4+2 0.988650 0.500000 0.862740 0.188708
Ni7   Ni    Ni4+2 0.511350 1.000000 0.137260 0.256872
Ni8   Ni    Ni4+2 0.011350 0.500000 0.137260 0.256872
Br1   Br    Br    0.391538 0.297875 0.035799 -0.450535
Br2   Br    Br    0.391536 0.702126 0.035802 -0.450543
Br3   Br    Br    0.891537 0.797874 0.035801 -0.450535
Br4   Br    Br    0.891536 0.202125 0.035801 -0.450546
Br5   Br    Br    0.697341 0.262897 0.851643 -0.544446
Br6   Br    Br    0.697365 0.737120 0.851610 -0.544482
Br7   Br    Br    0.197342 0.762896 0.851641 -0.544450
Br8   Br    Br    0.197376 0.237124 0.851592 -0.544489
F1    F     F_    0.562883 0.730133 0.846025 -0.657380
F2    F     F_    0.562883 0.269867 0.846019 -0.657374
F3    F     F_    0.062881 0.230132 0.846025 -0.657377
F4    F     F_    0.062883 0.769867 0.846019 -0.657376
F5    F     F_    0.672134 0.929735 0.134656 -0.610003
F6    F     F_    0.672130 0.070266 0.134661 -0.610002
F7    F     F_    0.172136 0.429736 0.134652 -0.610003
F8    F     F_    0.172128 0.570267 0.134664 -0.610003

loop_
_geom_bond_atom_site_label_1
_geom_bond_atom_site_label_2
_ccdc_geom_bond_type
C61   C70   A    
C44   H48   S    
N8    N15   A    
C23   H11   S    
C45   H41   S    
C22   H10   S    
N13   Ni7   S    
C63   N11   A    
C51   H35   S    
N7    Ni4   S    
C48   C76   A    
C39   C51   S    
C2    Br2   S    
N6    Ni1   S    
C81   N21   A    
C1    Br1   S    
N5    Ni2   S    
C2    N2    A    
C6    C9    A    
C41   H45   S    
C82   N22   A    
C68   N16   A    
C26   C44   S    
N19   Ni3   S    
C68   C75   A    
N18   Ni2   S    
N14   Ni7   S    
N17   Ni1   S    
C30   H22   S    
C53   H49   S    
C80   N20   A    
C29   H21   S    
C66   N14   A    
C66   H62   S    
N11   Ni6   S    
C24   H6    S    
C32   H24   S    
C84   F4    S    
C56   H52   S    
C79   Br7   S    
C58   C71   S    
C4    Br4   S    
C13   C81   A    
C16   C84   A    
C55   H51   S    
C45   C73   A    
C26   H38   S    
C64   C71   A    
C63   H59   S    
C61   H57   S    
C32   C52   S    
C25   H37   S    
C15   C88   A    
N17   N30   A    
C27   H39   S    
C26   C34   S    
C49   H29   S    
N19   N32   A    
C20   C24   S    
C67   N15   A    
N8    Ni3   S    
C6    F6    S    
C13   C86   A    
C16   C87   A    
C51   H31   S    
C4    N4    A    
N26   Ni5   S    
N12   Ni6   S    
C9    C55   S    
N28   Ni6   S    
C28   H16   S    
C40   C44   S    
C13   C37   S    
C11   C53   S    
C3    N3    A    
C54   H50   S    
N29   Ni7   S    
C30   C50   S    
C59   H55   S    
N2    Ni2   S    
C24   H12   S    
C64   H60   S    
C37   C41   S    
C28   C42   S    
C25   C43   S    
C85   H65   S    
C17   C33   S    
N16   Ni8   S    
C46   N6    A    
C31   H27   S    
C18   H70   S    
N30   Ni7   S    
C41   H17   S    
C34   C73   S    
C44   H20   S    
C85   N25   A    
C7    C12   A    
C62   N10   A    
C35   C76   S    
N27   Ni6   S    
C67   H63   S    
C18   H2    S    
C84   N24   A    
C17   H1    S    
N31   Ni8   S    
C10   C56   S    
C26   H14   S    
N18   N29   A    
C22   C40   S    
C20   C36   S    
C54   C60   D    
C21   H7    S    
C27   C35   S    
N5    N14   A    
C40   C52   S    
C66   C73   A    
C1    C69   A    
C65   C74   A    
C23   H5    S    
C62   C69   A    
C47   H43   S    
C77   N17   A    
N22   N25   A    
C32   C34   S    
C64   N12   A    
C3    C71   A    
C78   Br6   S    
C68   H64   S    
C36   C75   S    
C77   Br5   S    
C14   C38   S    
C47   N7    A    
C27   C41   S    
C24   C38   S    
C48   N8    A    
N3    Ni3   S    
C49   H33   S    
C6    N30   A    
C4    C72   A    
C31   C33   S    
N23   Ni4   S    
N1    Ni1   S    
N22   Ni1   S    
C43   H19   S    
C50   H34   S    
C29   C49   S    
C43   H47   S    
N21   Ni2   S    
C18   C34   S    
C15   C39   S    
C37   C49   S    
C11   C79   A    
C16   C40   S    
N1    N10   A    
C52   H32   S    
C32   H28   S    
C80   Br8   S    
C86   N26   A    
C50   H30   S    
C55   C57   D    
C20   H72   S    
C87   H67   S    
C20   H4    S    
C61   N9    A    
C14   C82   A    
C88   H68   S    
C46   C74   A    
C17   H69   S    
C19   C23   S    
N9    Ni5   S    
C30   H26   S    
C29   H25   S    
C83   N23   A    
N6    N13   A    
C7    F7    S    
C58   H54   S    
C7    N31   A    
C65   N13   A    
C78   N18   A    
C22   H8    S    
C21   C39   S    
N3    N12   A    
C14   C85   A    
C31   C51   S    
C8    F8    S    
N20   N31   A    
N20   Ni4   S    
C46   H42   S    
C87   N27   A    
N21   N26   A    
N4    Ni4   S    
C38   C42   S    
C38   C50   S    
C30   C36   S    
N24   Ni3   S    
C53   C59   D    
C29   C35   S    
N24   N27   A    
C57   H53   S    
C42   H46   S    
C5    N29   A    
C19   H71   S    
C18   C22   S    
C9    C77   A    
C47   C75   A    
C5    C10   A    
C23   C37   S    
N23   N28   A    
C60   H56   S    
C52   H36   S    
C25   H13   S    
C86   H66   S    
N2    N9    A    
C60   C69   S    
C8    N32   A    
C8    C11   A    
C15   C83   A    
C5    F5    S    
C12   C80   A    
C27   H15   S    
C56   C58   D    
C10   C78   A    
C79   N19   A    
N32   Ni8   S    
C57   C72   S    
C65   H61   S    
C12   C54   S    
N15   Ni8   S    
C19   H3    S    
C21   H9    S    
C59   C70   S    
C1    N1    A    
C42   H18   S    
C33   C74   S    
C88   N28   A    
C63   C72   A    
C28   C36   S    
C81   F1    S    
C62   H58   S    
C39   C43   S    
C31   H23   S    
C3    Br3   S    
C48   H44   S    
N4    N11   A    
C19   C35   S    
C67   C76   A    
N25   Ni5   S    
C2    C70   A    
C45   N5    A    
N10   Ni5   S    
C83   F3    S    
C28   H40   S    
C25   C33   S    
N7    N16   A    
C82   F2    S    
C17   C21   S    
