data_mof_unit_31009.cif
_audit_creation_date              2012-12-10T17:31:14-0500
_audit_creation_method            fapswitch 2.2
_symmetry_space_group_name_H-M    P1
_symmetry_Int_Tables_number       1
_space_group_crystal_system       triclinic
_cell_length_a                    11.972502
_cell_length_b                    12.855038
_cell_length_c                    15.614298
_cell_angle_alpha                 86.764551
_cell_angle_beta                  117.52711
_cell_angle_gamma                 93.927214
_cell_volume                      2125.25552416

loop_
_atom_site_label
_atom_site_type_symbol
_atom_type_description
_atom_site_fract_x
_atom_site_fract_y
_atom_site_fract_z
_atom_type_partial_charge
C1    C     C_R   0.477407 0.299255 0.499732 0.886078
C2    C     C_R   0.668627 0.969507 0.547449 -0.238401
C3    C     C_R   0.343092 0.137655 0.461835 -0.221942
C4    C     C_R   0.656912 0.862344 0.538177 -0.221927
C5    C     C_R   0.571283 0.131632 0.530031 -0.295162
C6    C     C_R   0.428722 0.868368 0.469986 -0.295162
C7    C     C_R   0.560483 0.025416 0.519769 0.181471
C8    C     C_R   0.439522 0.974584 0.480250 0.181473
C9    C     C_R   0.014405 0.617649 0.431604 -0.358040
C10   C     C_R   0.985586 0.382344 0.568383 -0.358075
C11   C     C_R   0.132677 0.604282 0.435992 0.069879
C12   C     C_R   0.522594 0.700745 0.500270 0.886088
C13   C     C_R   0.867314 0.395711 0.563994 0.069891
C14   C     C_R   0.154052 0.446148 0.526443 -0.062459
C15   C     C_R   0.845948 0.553852 0.473557 -0.062488
C16   C     C_R   0.579823 0.500510 0.681167 0.883230
C17   C     C_R   0.420176 0.499482 0.318834 0.883240
C18   C     C_R   0.035326 0.456469 0.524026 0.071867
C19   C     C_R   0.964670 0.543528 0.475967 0.071871
C20   C     C_R   0.633793 0.501816 0.787269 -0.179594
C21   C     C_R   0.366196 0.498146 0.212733 -0.179645
C22   C     C_R   0.741373 0.392479 0.928960 -0.244695
C23   C     C_R   0.542947 0.366451 0.051482 -0.228686
C24   C     C_R   0.258614 0.607462 0.071032 -0.244727
C25   C     C_R   0.737851 0.441167 0.845811 -0.020717
C26   C     C_R   0.262122 0.558774 0.154178 -0.020624
C27   C     C_R   0.562312 0.542949 0.827750 -0.086237
C28   C     C_R   0.437681 0.457005 0.172262 -0.086204
C29   C     C_R   0.576193 0.501459 0.918426 0.045193
C30   C     C_R   0.423823 0.498497 0.081593 0.045213
C31   C     C_R   0.652635 0.414547 0.958847 0.150186
C32   C     C_R   0.347377 0.585407 0.041166 0.150158
C33   C     C_R   0.508020 0.534336 0.965766 0.058038
C34   C     C_R   0.457089 0.633511 0.948550 -0.228658
C35   C     C_R   0.492010 0.465624 0.034264 0.058035
C36   C     C_R   0.536887 0.382700 0.232559 0.135231
C37   C     C_R   0.502617 0.285722 0.262169 -0.173764
C38   C     C_R   0.595028 0.215946 0.318942 -0.119361
C39   C     C_R   0.722133 0.242695 0.347330 -0.121557
C40   C     C_R   0.757177 0.339406 0.319165 -0.139622
C41   C     C_R   0.665359 0.409922 0.263187 -0.080420
C42   C     C_R   0.463078 0.617233 0.767457 0.135264
C43   C     C_R   0.334617 0.589989 0.736859 -0.080485
C44   C     C_R   0.242771 0.660486 0.680887 -0.139616
C45   C     C_R   0.633413 0.346504 0.023682 -0.240556
C46   C     C_R   0.277773 0.757197 0.652695 -0.121548
C47   C     C_R   0.404865 0.783969 0.681051 -0.119369
C48   C     C_R   0.497306 0.714214 0.737821 -0.173698
C49   C     C_R   0.155968 0.570921 0.176475 0.169396
C50   C     C_R   0.091472 0.481636 0.191206 -0.106502
C51   C     C_R   0.982475 0.491006 0.201283 -0.138760
C52   C     C_R   0.936938 0.589403 0.196750 -0.097974
C53   C     C_R   0.001440 0.678716 0.183704 -0.170522
C54   C     C_R   0.110358 0.669731 0.173370 -0.182757
C55   C     C_R   0.843969 0.428967 0.823492 0.169468
C56   C     C_R   0.366614 0.653455 0.976341 -0.240615
C57   C     C_R   0.889334 0.330117 0.826386 -0.182706
C58   C     C_R   0.998237 0.321049 0.816052 -0.170636
C59   C     C_R   0.062968 0.410320 0.803223 -0.098013
C60   C     C_R   0.017673 0.508760 0.798902 -0.138745
C61   C     C_R   0.908683 0.518212 0.808970 -0.106632
C62   C     C_R   0.537083 0.812180 0.501135 -0.048153
C63   C     C_R   0.462921 0.187820 0.498875 -0.048140
C64   C     C_R   0.331379 0.030492 0.452568 -0.238397
H1    H     H_    0.829715 0.337712 0.597904 0.131074
H2    H     H_    0.761563 0.008317 0.577199 0.132963
H3    H     H_    0.790159 0.619910 0.435840 0.125748
H4    H     H_    0.209842 0.380091 0.564162 0.125741
H5    H     H_    0.681513 0.273964 0.047130 0.144538
H6    H     H_    0.318512 0.725993 0.952889 0.144545
H7    H     H_    0.404411 0.264080 0.240616 0.114987
H8    H     H_    0.568021 0.140954 0.340656 0.141356
H9    H     H_    0.793509 0.188549 0.391299 0.118095
H10   H     H_    0.855595 0.359920 0.341074 0.132152
H11   H     H_    0.693802 0.485138 0.242821 0.113036
H12   H     H_    0.170267 0.662273 0.402069 0.131042
H13   H     H_    0.306205 0.514773 0.757247 0.113053
H14   H     H_    0.144364 0.639956 0.659004 0.132178
H15   H     H_    0.206376 0.811328 0.608730 0.118100
H16   H     H_    0.431839 0.858961 0.659314 0.141339
H17   H     H_    0.595501 0.735872 0.759350 0.114967
H18   H     H_    0.123819 0.404650 0.192385 0.110726
H19   H     H_    0.932484 0.421916 0.211468 0.123204
H20   H     H_    0.852155 0.596523 0.203970 0.123086
H21   H     H_    0.966481 0.754933 0.180886 0.126829
H22   H     H_    0.158239 0.739587 0.161945 0.121715
H23   H     H_    0.962559 0.685609 0.393968 0.138836
H24   H     H_    0.841275 0.260293 0.837651 0.121739
H25   H     H_    0.033004 0.244800 0.818699 0.126825
H26   H     H_    0.147742 0.403135 0.796006 0.123082
H27   H     H_    0.067845 0.577816 0.788890 0.123269
H28   H     H_    0.876524 0.595224 0.807962 0.110743
H29   H     H_    0.335841 0.829184 0.439933 0.151458
H30   H     H_    0.664164 0.170817 0.560083 0.151451
H31   H     H_    0.740999 0.818659 0.562321 0.154085
H32   H     H_    0.259005 0.181340 0.437688 0.154078
H33   H     H_    0.037427 0.314379 0.606011 0.138827
H34   H     H_    0.811332 0.335634 0.969290 0.137003
H35   H     H_    0.188641 0.664289 0.030681 0.136946
H36   H     H_    0.516067 0.303811 0.088063 0.166507
H37   H     H_    0.483972 0.696149 0.911968 0.166492
H38   H     H_    0.238442 0.991682 0.422818 0.132972
N1    N     N_R   0.799120 0.480200 0.517090 -0.091030
N2    N     N_R   0.200880 0.519800 0.482910 -0.091024
O1    O     O_R   0.580150 0.341050 0.504560 -0.618971
O2    O     O_R   0.419850 0.658950 0.495440 -0.618974
O3    O     O_R   0.388090 0.353760 0.493600 -0.633234
O4    O     O_R   0.611910 0.646240 0.506400 -0.633216
O5    O     O_R   0.650890 0.490020 0.640860 -0.613129
O6    O     O_R   0.349110 0.509980 0.359140 -0.613162
O7    O     O_R   0.458830 0.502730 0.629890 -0.593428
O8    O     O_R   0.541170 0.497270 0.370110 -0.593432
Zn1   Zn    Zn3+2 0.628240 0.491510 0.507320 0.947776
Zn2   Zn    Zn3+2 0.371760 0.508490 0.492680 0.947757

loop_
_geom_bond_atom_site_label_1
_geom_bond_atom_site_label_2
_ccdc_geom_bond_type
C30   C32   A    
C21   C26   A    
C34   C56   A    
C23   C45   A    
C29   C33   A    
C27   C29   A    
C24   H35   S    
C14   C18   A    
C2    C7    A    
C17   O6    A    
C5    H30   S    
C7    C8    A    
C13   H1    S    
C53   C54   A    
C64   H38   S    
C30   C35   A    
O2    Zn2   S    
C22   H34   S    
O1    Zn1   S    
C36   C37   A    
N1    Zn1   S    
C24   C26   A    
C11   H12   S    
C46   H15   S    
C20   C25   A    
C49   C54   A    
C4    C62   A    
C48   H17   S    
C5    C63   A    
C18   C19   A    
C52   H20   S    
C15   C19   A    
C9    C19   A    
C22   C25   A    
C11   N2    A    
C13   N1    A    
O6    Zn2   S    
C61   H28   S    
O5    Zn1   S    
C23   H36   S    
C59   C60   A    
C36   C41   A    
C54   H22   S    
C47   H16   S    
C1    C63   S    
O8    Zn1   S    
C44   C46   A    
C16   O5    A    
C50   C51   A    
C38   H8    S    
C34   H37   S    
C22   C31   A    
C45   H5    S    
C51   C52   A    
C44   H14   S    
C26   C49   S    
C39   C40   A    
C5    C7    A    
C6    C8    A    
C58   C59   A    
C3    C64   A    
C17   C21   S    
C60   C61   A    
C59   H26   S    
O4    Zn1   S    
C10   H33   S    
C2    C4    A    
C43   C44   A    
C24   C32   A    
O3    Zn2   S    
C37   C38   A    
C41   H11   S    
C4    H31   S    
C12   C62   S    
C14   N2    A    
C47   C48   A    
C16   C20   S    
C6    H29   S    
C15   H3    S    
C33   C34   A    
C42   C48   A    
C9    C11   A    
C3    H32   S    
C1    O3    A    
N2    Zn2   S    
C40   C41   A    
C21   C28   A    
C8    C64   A    
C23   C35   A    
C55   C57   A    
C42   C43   A    
C17   O8    A    
C51   H19   S    
C52   C53   A    
C50   H18   S    
C12   O4    A    
C60   H27   S    
C46   C47   A    
C25   C55   S    
C2    H2    S    
C10   C13   A    
C20   C27   A    
C3    C63   A    
C43   H13   S    
C56   H6    S    
C57   H24   S    
C6    C62   A    
C37   H7    S    
C29   C31   A    
C9    H23   S    
C12   O2    A    
C27   C42   S    
C57   C58   A    
C38   C39   A    
C10   C18   A    
C55   C61   A    
C28   C30   A    
C33   C35   A    
C40   H10   S    
O7    Zn2   S    
C39   H9    S    
C58   H25   S    
C28   C36   S    
C49   C50   A    
C31   C45   A    
C14   H4    S    
C53   H21   S    
C15   N1    A    
C32   C56   A    
C16   O7    A    
C1    O1    A    
