data_mof_unit_68426.cif
_audit_creation_date              2012-12-11T18:15:41-0500
_audit_creation_method            fapswitch 2.2
_symmetry_space_group_name_H-M    P1
_symmetry_Int_Tables_number       1
_space_group_crystal_system       triclinic
_cell_length_a                    20.10898
_cell_length_b                    20.104594
_cell_length_c                    8.407124
_cell_angle_alpha                 90.00101
_cell_angle_beta                  91.883292
_cell_angle_gamma                 90.000423
_cell_volume                      3397.02037124

loop_
_atom_site_label
_atom_site_type_symbol
_atom_type_description
_atom_site_fract_x
_atom_site_fract_y
_atom_site_fract_z
_atom_type_partial_charge
Ba1   Ba    Ba6+2 0.999980 0.452130 0.155200 1.615632
Ba2   Ba    Ba6+2 0.999980 0.547870 0.655200 1.615633
Ba3   Ba    Ba6+2 0.499980 0.952130 0.155200 1.615622
Ba4   Ba    Ba6+2 0.499980 0.047870 0.655200 1.615623
C1    C     C_3   0.949633 0.139079 0.423111 -0.094430
C2    C     C_R   0.115841 0.660559 0.177516 -0.272593
C3    C     C_R   0.615853 0.839448 0.677501 -0.272713
C4    C     C_R   0.615853 0.160550 0.177499 -0.272711
C5    C     C_R   0.127468 0.286052 0.576709 0.012405
C6    C     C_R   0.127474 0.713944 0.076689 0.012378
C7    C     C_R   0.627500 0.786074 0.576653 0.012385
C8    C     C_R   0.627503 0.213921 0.076649 0.012399
C9    C     C_R   0.173859 0.237419 0.622849 -0.152105
C10   C     C_R   0.173865 0.762576 0.122833 -0.152161
C11   C     C_R   0.673893 0.737443 0.622792 -0.152183
C12   C     C_3   0.949564 0.860860 0.923082 -0.094396
C13   C     C_R   0.673896 0.262553 0.122788 -0.152189
C14   C     C_R   0.210595 0.243189 0.767876 -0.003281
C15   C     C_R   0.210599 0.756808 0.267864 -0.003296
C16   C     C_R   0.710617 0.743205 0.767839 -0.003376
C17   C     C_R   0.710619 0.256793 0.267834 -0.003389
C18   C     C_R   0.200979 0.299361 0.867181 -0.032646
C19   C     C_R   0.200980 0.700637 0.367171 -0.032620
C20   C     C_R   0.700992 0.799372 0.867156 -0.032614
C21   C     C_R   0.700993 0.200627 0.367152 -0.032634
C22   C     C_R   0.798749 0.700148 0.950809 -0.047325
C23   C     C_3   0.449553 0.639199 0.423251 -0.094300
C24   C     C_R   0.798749 0.299853 0.450806 -0.047280
C25   C     C_R   0.298741 0.200141 0.950823 -0.047381
C26   C     C_R   0.298742 0.799859 0.450817 -0.047381
C27   C     C_R   0.788507 0.756040 0.050821 -0.003351
C28   C     C_R   0.788506 0.243962 0.550817 -0.003376
C29   C     C_R   0.288499 0.256033 0.050836 -0.003326
C30   C     C_R   0.288498 0.743968 0.550830 -0.003333
C31   C     C_R   0.849738 0.652834 0.993607 0.027427
C32   C     C_R   0.849736 0.347169 0.493607 0.027490
C33   C     C_R   0.349736 0.152832 0.993611 0.027366
C34   C     C_3   0.449604 0.360811 0.923404 -0.094401
C35   C     C_R   0.349736 0.847169 0.493608 0.027364
C36   C     C_R   0.887630 0.662958 0.136011 -0.123468
C37   C     C_R   0.887625 0.337048 0.636016 -0.123647
C38   C     C_R   0.387627 0.162956 0.136015 -0.123178
C39   C     C_R   0.387627 0.837046 0.636013 -0.123209
C40   C     C_3   0.024828 0.210317 0.924169 0.355696
C41   C     C_3   0.024782 0.789740 0.423778 0.355498
C42   C     C_3   0.524720 0.710213 0.923226 0.355029
C43   C     C_3   0.524730 0.289781 0.423236 0.354938
C44   C     C_R   0.872994 0.714909 0.239706 0.048068
C45   C     C_R   0.151604 0.347629 0.821316 0.042783
C46   C     C_R   0.872984 0.285100 0.739713 0.048043
C47   C     C_R   0.372993 0.214907 0.239709 0.048204
C48   C     C_R   0.372991 0.785095 0.739705 0.048191
C49   C     C_R   0.824696 0.761868 0.196165 -0.181468
C50   C     C_R   0.824692 0.238138 0.696165 -0.181463
C51   C     C_R   0.324692 0.261864 0.196174 -0.181467
C52   C     C_R   0.324690 0.738138 0.696168 -0.181472
C53   C     C_R   0.757980 0.694148 0.811562 -0.035296
C54   C     C_R   0.757981 0.305851 0.311557 -0.035293
C55   C     C_R   0.257965 0.194136 0.811588 -0.035328
C56   C     C_R   0.151604 0.652370 0.321307 0.042778
C57   C     C_R   0.257967 0.805862 0.311580 -0.035318
C58   C     C_3   0.058012 0.142435 0.935037 -0.355587
C59   C     C_3   0.057959 0.857620 0.434841 -0.355561
C60   C     C_3   0.557882 0.642323 0.934267 -0.355653
C61   C     C_3   0.557885 0.357678 0.434320 -0.355616
C62   C     C_3   0.803916 0.462939 0.804892 0.285818
C63   C     C_3   0.803916 0.537059 0.304885 0.285808
C64   C     C_3   0.303918 0.962936 0.804906 0.285905
C65   C     C_3   0.303918 0.037062 0.304897 0.285916
C66   C     C_3   0.738229 0.425032 0.779371 -0.111798
C67   C     C_R   0.651612 0.847635 0.821299 0.042829
C68   C     C_3   0.738227 0.574958 0.279329 -0.111761
C69   C     C_3   0.238233 0.925028 0.779384 -0.111875
C70   C     C_3   0.238230 0.074965 0.279357 -0.111866
C71   C     C_3   0.190304 0.540761 0.996037 0.309225
C72   C     C_3   0.190301 0.459237 0.496034 0.309214
C73   C     C_3   0.690309 0.040760 0.996039 0.309094
C74   C     C_3   0.690309 0.959241 0.496045 0.309144
C75   C     C_3   0.253332 0.582744 0.006349 -0.394990
C76   C     C_3   0.253326 0.417251 0.506330 -0.394964
C77   C     C_3   0.753340 0.082739 0.006335 -0.394804
C78   C     C_R   0.651612 0.152364 0.321297 0.042821
C79   C     C_3   0.753340 0.917264 0.506351 -0.394888
C80   C     C_3   0.979770 0.208697 0.418207 0.441975
C81   C     C_3   0.979678 0.791233 0.917817 0.442074
C82   C     C_3   0.479578 0.708860 0.417222 0.442202
C83   C     C_3   0.479577 0.291143 0.917222 0.442269
C84   C     C_R   0.241287 0.305189 0.007033 -0.032031
C85   C     C_R   0.241287 0.694811 0.507024 -0.032027
C86   C     C_R   0.741296 0.805197 0.007016 -0.032048
C87   C     C_R   0.741297 0.194803 0.507010 -0.032076
C88   C     C_R   0.115839 0.339438 0.677529 -0.272520
H1    H     H_    0.945412 0.241911 0.348828 0.058002
H2    H     H_    0.749012 0.627573 0.249586 0.061321
H3    H     H_    0.741968 0.866009 0.545215 0.066010
H4    H     H_    0.976149 0.619585 0.090626 0.204674
H5    H     H_    0.926502 0.573312 0.211405 0.193072
H6    H     H_    0.976148 0.380414 0.590635 0.204648
H7    H     H_    0.926500 0.426695 0.711402 0.193095
H8    H     H_    0.476149 0.119587 0.090627 0.204718
H9    H     H_    0.426504 0.073311 0.211405 0.193038
H10   H     H_    0.476150 0.880415 0.590630 0.204711
H11   H     H_    0.426504 0.926691 0.711407 0.193044
H12   H     H_    0.893015 0.141640 0.216873 0.199943
H13   H     H_    0.249024 0.872410 0.749716 0.061333
H14   H     H_    0.918705 0.065504 0.271312 0.171439
H15   H     H_    0.893299 0.858663 0.716255 0.200075
H16   H     H_    0.918925 0.934715 0.771674 0.171444
H17   H     H_    0.394053 0.640510 0.215220 0.200274
H18   H     H_    0.419682 0.564722 0.272748 0.171463
H19   H     H_    0.394199 0.359646 0.715286 0.200297
H20   H     H_    0.419859 0.435379 0.773104 0.171466
H21   H     H_    0.249018 0.127582 0.249653 0.061332
H22   H     H_    0.169815 0.536491 0.116070 0.016250
H23   H     H_    0.169815 0.463509 0.616070 0.016240
H24   H     H_    0.669826 0.036488 0.116077 0.016279
H25   H     H_    0.669824 0.963516 0.616082 0.016278
H26   H     H_    0.153856 0.565471 0.913265 0.061545
H27   H     H_    0.153849 0.434530 0.413266 0.061575
H28   H     H_    0.653858 0.065471 0.913276 0.061511
H29   H     H_    0.945386 0.758122 0.847925 0.058445
H30   H     H_    0.653859 0.934527 0.413284 0.061511
H31   H     H_    0.289654 0.560383 0.093208 0.121889
H32   H     H_    0.289653 0.439611 0.593183 0.121891
H33   H     H_    0.789667 0.060368 0.093168 0.121958
H34   H     H_    0.789665 0.939637 0.593186 0.121938
H35   H     H_    0.276021 0.585242 0.887814 0.118546
H36   H     H_    0.276010 0.414752 0.387789 0.118535
H37   H     H_    0.776019 0.085242 0.887789 0.118607
H38   H     H_    0.776021 0.914757 0.387807 0.118585
H39   H     H_    0.984279 0.227068 0.542734 -0.139686
H40   H     H_    0.445371 0.741739 0.346412 0.059086
H41   H     H_    0.984024 0.772680 0.042224 -0.139748
H42   H     H_    0.483648 0.727762 0.541392 -0.139789
H43   H     H_    0.483620 0.272192 0.041347 -0.139799
H44   H     H_    0.985639 0.104758 0.483974 0.105081
H45   H     H_    0.985489 0.895072 0.984630 0.104967
H46   H     H_    0.485302 0.605269 0.486335 0.104682
H47   H     H_    0.485358 0.394676 0.986625 0.104717
H48   H     H_    0.903506 0.140264 0.492792 0.029063
H49   H     H_    0.903311 0.859573 0.992274 0.029048
H50   H     H_    0.403012 0.640675 0.491320 0.029012
H51   H     H_    0.445357 0.258310 0.846332 0.059112
H52   H     H_    0.403042 0.359352 0.991392 0.029052
H53   H     H_    0.110608 0.146442 0.899994 0.065564
H54   H     H_    0.110494 0.853680 0.399179 0.065507
H55   H     H_    0.610358 0.646216 0.898157 0.065545
H56   H     H_    0.610374 0.353790 0.398196 0.065552
H57   H     H_    0.082065 0.377974 0.638192 0.049829
H58   H     H_    0.082066 0.622024 0.138180 0.049857
H59   H     H_    0.582070 0.877978 0.638177 0.049883
H60   H     H_    0.582070 0.122019 0.138176 0.049888
H61   H     H_    0.182210 0.196046 0.543859 0.100067
H62   H     H_    0.709546 0.446888 0.676796 0.102180
H63   H     H_    0.182217 0.803949 0.043845 0.100092
H64   H     H_    0.682250 0.696073 0.543796 0.100155
H65   H     H_    0.682253 0.303922 0.043791 0.100155
H66   H     H_    0.815288 0.802799 0.276161 0.074734
H67   H     H_    0.815284 0.197207 0.776159 0.074790
H68   H     H_    0.315284 0.302795 0.276171 0.074683
H69   H     H_    0.315282 0.697208 0.776163 0.074679
H70   H     H_    0.236784 0.347952 0.083640 0.101137
H71   H     H_    0.236783 0.652049 0.583632 0.101115
H72   H     H_    0.736789 0.847957 0.083630 0.101108
H73   H     H_    0.709544 0.553081 0.176770 0.102176
H74   H     H_    0.736790 0.152043 0.583624 0.101111
H75   H     H_    0.762790 0.651716 0.734565 0.096878
H76   H     H_    0.762791 0.348282 0.234561 0.096861
H77   H     H_    0.262774 0.151703 0.734594 0.096882
H78   H     H_    0.262776 0.848295 0.234587 0.096884
H79   H     H_    0.052865 0.244826 0.004731 0.095493
H80   H     H_    0.052937 0.755153 0.503925 0.095089
H81   H     H_    0.553003 0.744838 0.003041 0.094722
H82   H     H_    0.553020 0.255144 0.503067 0.094732
H83   H     H_    0.027522 0.228221 0.799608 -0.045948
H84   H     H_    0.209555 0.946876 0.676792 0.102138
H85   H     H_    0.027318 0.771981 0.299061 -0.046030
H86   H     H_    0.527084 0.727885 0.798398 -0.045988
H87   H     H_    0.527097 0.272111 0.298367 -0.045989
H88   H     H_    0.056933 0.123422 0.058929 0.167332
H89   H     H_    0.057103 0.876455 0.558953 0.167374
H90   H     H_    0.557198 0.623571 0.058462 0.167495
H91   H     H_    0.557206 0.376411 0.558569 0.167545
H92   H     H_    0.031636 0.106854 0.854043 0.108413
H93   H     H_    0.031412 0.893311 0.354387 0.108541
H94   H     H_    0.531212 0.606591 0.854155 0.108671
H95   H     H_    0.209550 0.053102 0.176779 0.102132
H96   H     H_    0.531200 0.393428 0.354229 0.108681
H97   H     H_    0.825695 0.469609 0.686965 0.000049
H98   H     H_    0.825704 0.530386 0.186968 0.000045
H99   H     H_    0.325701 0.969601 0.686983 0.000006
H100  H     H_    0.325703 0.030392 0.186977 0.000004
H101  H     H_    0.837500 0.433621 0.885794 0.040795
H102  H     H_    0.837493 0.566383 0.385794 0.040809
H103  H     H_    0.337500 0.933622 0.885820 0.040825
H104  H     H_    0.337497 0.066380 0.385810 0.040819
H105  H     H_    0.727824 0.417624 0.021450 0.180733
H106  H     H_    0.749019 0.372416 0.749678 0.061320
H107  H     H_    0.677674 0.474543 0.931960 0.205509
H108  H     H_    0.727827 0.582397 0.521419 0.180725
H109  H     H_    0.677671 0.525467 0.431958 0.205496
H110  H     H_    0.227816 0.917643 0.021459 0.180789
H111  H     H_    0.177667 0.974548 0.931928 0.205419
H112  H     H_    0.227822 0.082376 0.521443 0.180788
H113  H     H_    0.177668 0.025458 0.431938 0.205396
H114  H     H_    0.241953 0.634002 0.045183 0.066078
H115  H     H_    0.241945 0.365994 0.545164 0.066092
H116  H     H_    0.741969 0.133994 0.045196 0.065988
N1    N     N_3   0.697563 0.426787 0.920390 -0.485395
N2    N     N_3   0.934343 0.885229 0.762396 -0.452665
N3    N     N_3   0.435007 0.614209 0.262775 -0.452968
N4    N     N_3   0.435146 0.385881 0.763022 -0.453091
N5    N     N_3   0.697562 0.573223 0.420359 -0.485386
N6    N     N_3   0.197560 0.926794 0.920389 -0.485586
N7    N     N_3   0.197561 0.073214 0.420374 -0.485617
N8    N     N_3   0.942120 0.620626 0.179707 -0.476253
N9    N     N_3   0.942116 0.379378 0.679712 -0.476248
N10   N     N_3   0.442119 0.120626 0.179707 -0.476236
N11   N     N_3   0.442119 0.879376 0.679708 -0.476239
N12   N     N_3   0.934124 0.114990 0.262333 -0.452559
O1    O     O_2   0.130070 0.404060 0.104920 -0.469972
O2    O     O_3   0.958521 0.795139 0.470664 -0.592921
O3    O     O_3   0.458531 0.704874 0.970679 -0.593336
O4    O     O_3   0.458535 0.295127 0.470697 -0.593385
O5    O     O_3   0.924190 0.533610 0.949240 -0.503549
O6    O     O_3   0.924190 0.466390 0.449240 -0.503537
O7    O     O_3   0.424190 0.033610 0.949240 -0.503558
O8    O     O_3   0.424190 0.966390 0.449240 -0.503546
O9    O     O_3   0.075780 0.466370 0.861070 -0.490662
O10   O     O_3   0.075780 0.533630 0.361070 -0.490660
O11   O     O_3   0.575780 0.966370 0.861070 -0.490663
O12   O     O_2   0.130070 0.595940 0.604920 -0.469969
O13   O     O_3   0.575780 0.033630 0.361070 -0.490655
O14   O     O_3   0.022320 0.344950 0.359800 -0.501406
O15   O     O_3   0.022320 0.655050 0.859800 -0.501444
O16   O     O_3   0.522320 0.844950 0.359800 -0.501526
O17   O     O_3   0.522320 0.155050 0.859800 -0.501512
O18   O     O_2   0.130484 0.289618 0.243428 -0.490541
O19   O     O_2   0.130467 0.710398 0.743383 -0.490426
O20   O     O_2   0.630462 0.789593 0.243322 -0.490296
O21   O     O_2   0.630460 0.210408 0.743314 -0.490311
O22   O     O_3   0.207004 0.477709 0.940161 -0.640329
O23   O     O_2   0.630070 0.904060 0.104920 -0.469963
O24   O     O_3   0.207003 0.522289 0.440159 -0.640335
O25   O     O_3   0.707005 0.977707 0.940156 -0.640355
O26   O     O_3   0.707004 0.022292 0.440153 -0.640358
O27   O     O_3   0.042231 0.206274 0.347340 -0.584442
O28   O     O_3   0.042231 0.793737 0.847397 -0.584388
O29   O     O_3   0.542276 0.706245 0.347506 -0.584205
O30   O     O_3   0.542281 0.293753 0.847534 -0.584197
O31   O     O_2   0.869860 0.403670 0.205810 -0.463981
O32   O     O_2   0.869860 0.596330 0.705810 -0.463974
O33   O     O_2   0.369860 0.903670 0.205810 -0.463978
O34   O     O_2   0.630070 0.095940 0.604920 -0.469970
O35   O     O_2   0.369860 0.096330 0.705810 -0.463974
O36   O     O_3   0.977590 0.344880 0.951200 -0.458311
O37   O     O_3   0.977590 0.655120 0.451200 -0.458214
O38   O     O_3   0.477590 0.844880 0.951200 -0.458105
O39   O     O_3   0.477590 0.155120 0.451200 -0.458107
O40   O     O_2   0.870615 0.289038 0.073643 -0.492457
O41   O     O_2   0.870606 0.710943 0.573620 -0.492551
O42   O     O_2   0.370602 0.789063 0.073614 -0.492679
O43   O     O_2   0.370604 0.210938 0.573619 -0.492661
O44   O     O_3   0.791258 0.475061 0.372057 -0.651455
O45   O     O_3   0.791257 0.524940 0.872057 -0.651449
O46   O     O_3   0.291258 0.975061 0.372054 -0.651441
O47   O     O_3   0.291257 0.024939 0.872051 -0.651444
O48   O     O_3   0.958507 0.204846 0.970537 -0.592811
P1    P     P_3+3 0.136530 0.426510 0.931350 0.970010
P2    P     P_3+3 0.918441 0.719036 0.434647 0.972262
P3    P     P_3+3 0.418438 0.780968 0.934644 0.971987
P4    P     P_3+3 0.418441 0.219034 0.434650 0.971980
P5    P     P_3+3 0.082331 0.717523 0.882036 0.950984
P6    P     P_3+3 0.082333 0.282481 0.382047 0.950816
P7    P     P_3+3 0.582347 0.217511 0.882020 0.951206
P8    P     P_3+3 0.582345 0.782486 0.382020 0.951198
P9    P     P_3+3 0.136530 0.573490 0.431350 0.970036
P10   P     P_3+3 0.636530 0.926510 0.931350 0.970053
P11   P     P_3+3 0.636530 0.073490 0.431350 0.970050
P12   P     P_3+3 0.863410 0.426100 0.379280 0.952615
P13   P     P_3+3 0.863410 0.573900 0.879280 0.952581
P14   P     P_3+3 0.363410 0.926100 0.379280 0.952557
P15   P     P_3+3 0.363410 0.073900 0.879280 0.952551
P16   P     P_3+3 0.918438 0.280965 0.934639 0.972410

loop_
_geom_bond_atom_site_label_1
_geom_bond_atom_site_label_2
_ccdc_geom_bond_type
Ba1   O6    S    
C29   C51   A    
C1    H44   S    
H14   N12   S    
C43   O4    S    
C30   C52   A    
C59   H89   S    
C70   N7    S    
C83   O30   S    
C68   H73   S    
C42   H86   S    
C87   H74   S    
C15   C19   A    
C78   P11   S    
C40   H83   S    
Ba4   O34   S    
C73   H28   S    
Ba4   P15   S    
Ba2   P9    S    
Ba3   O33   S    
C63   O44   S    
C63   H98   S    
O45   P13   S    
C14   C55   A    
C40   O48   S    
H15   N2    S    
C62   C66   S    
C3    C7    A    
H112  N7    S    
C49   H66   S    
C46   C50   A    
C9    C14   A    
O48   P16   S    
C80   O27   S    
C4    C78   A    
C41   O2    S    
H20   N4    S    
C4    H60   S    
C29   C84   A    
Ba1   Ba2   S    
Ba2   O32   S    
C58   H88   S    
C10   H63   S    
C39   C48   A    
C45   P1    S    
C28   C87   A    
Ba1   P1    S    
C35   P14   S    
Ba1   O5    S    
C62   H97   S    
C25   C29   A    
C23   H50   S    
C5    C88   A    
C58   H92   S    
Ba1   O1    S    
C63   C68   S    
Ba4   O7    S    
C33   C38   A    
C5    C9    A    
H19   N4    S    
C32   P12   S    
C64   O47   S    
C43   H87   S    
C6    P5    S    
H111  N6    S    
Ba2   O9    S    
C74   O26   S    
O42   P3    D    
O31   P12   D    
C7    C11   A    
H9    N10   S    
C82   H42   S    
Ba3   P14   S    
H12   N12   S    
C43   H82   S    
H7    N9    S    
C34   C83   S    
C59   H93   S    
H5    N8    S    
C8    C13   A    
C81   O28   S    
Ba4   O17   S    
C19   C85   A    
C81   H29   S    
O25   P10   S    
O5    P13   S    
C63   H102  S    
C13   H65   S    
C33   P15   S    
C59   H54   S    
C47   C51   A    
Ba1   O36   S    
C41   H85   S    
C38   C47   A    
C68   H2    S    
O46   P14   S    
C82   O29   S    
Ba3   O38   S    
C68   N5    S    
C50   H67   S    
C61   H96   S    
H8    N10   S    
C22   C27   A    
C66   H106  S    
C14   C18   A    
C47   P4    S    
C42   H81   S    
C32   C37   A    
O17   P7    S    
C71   H26   S    
O9    P1    S    
C72   H23   S    
Ba2   O5    S    
C58   H53   S    
C74   H30   S    
C74   C79   S    
C65   H100  S    
C28   C50   A    
O40   P16   D    
Ba2   P13   S    
O23   P10   D    
C19   C56   A    
O13   P11   S    
Ba3   O23   S    
C21   C87   A    
C23   H46   S    
O36   P16   S    
O10   P9    S    
C72   H27   S    
Ba4   O11   S    
C2    C56   A    
C5    P6    S    
C24   C28   A    
C74   H25   S    
Ba1   P12   S    
C81   H41   S    
C6    C10   A    
C65   O46   S    
C1    C80   S    
C26   C30   A    
Ba3   P10   S    
C35   C39   A    
C76   H36   S    
C64   H99   S    
C40   C58   S    
C64   C69   S    
C70   H21   S    
C75   H31   S    
C52   H69   S    
C41   C59   S    
C65   H104  S    
C27   C49   A    
C42   O3    S    
C31   P13   S    
C86   H72   S    
C11   C16   A    
O16   P8    S    
C2    H58   S    
O12   P9    D    
C23   C82   S    
O7    P15   S    
O22   P1    S    
O3    P3    S    
C83   H43   S    
Ba3   O16   S    
O4    P4    S    
O34   P11   D    
C22   C31   A    
C77   H37   S    
C73   C77   S    
Ba1   O14   S    
C4    C8    A    
C27   C86   A    
C79   H3    S    
C36   N8    S    
C23   N3    S    
H108  N5    S    
C11   H64   S    
O29   P8    S    
C65   C70   S    
C71   H22   S    
O6    P12   S    
O30   P7    S    
H110  N6    S    
C61   H56   S    
O27   P6    S    
O38   P3    S    
O37   P2    S    
C9    H61   S    
O41   P2    D    
C62   O45   S    
H10   N11   S    
C79   H38   S    
C77   H116  S    
C3    H59   S    
O14   P6    S    
O43   P4    D    
H107  N1    S    
Ba1   O10   S    
Ba4   O39   S    
C18   C84   A    
C56   P9    S    
O19   P5    D    
C60   H55   S    
C12   C81   S    
O15   P5    S    
C69   N6    S    
C26   C57   A    
C45   C88   A    
C25   C33   A    
Ba3   Ba4   S    
C73   H24   S    
C41   H80   S    
Ba3   O7    S    
C37   C46   A    
C88   H57   S    
C62   H101  S    
O1    P1    D    
O33   P14   D    
Ba2   O6    S    
C1    H48   S    
C70   H95   S    
C61   H91   S    
C34   H47   S    
O8    P14   S    
C36   C44   A    
C75   H114  S    
C17   C21   A    
C51   H68   S    
C12   H45   S    
O11   P10   S    
C77   H33   S    
C66   H62   S    
C34   H52   S    
C10   C15   A    
C39   N11   S    
C18   C45   A    
C72   C76   S    
C38   N10   S    
C20   C86   A    
C2    C6    A    
H16   N2    S    
C60   H90   S    
Ba1   O31   S    
C53   H75   S    
C24   C54   A    
C44   C49   A    
O47   P15   S    
H109  N5    S    
C80   H39   S    
C67   P10   S    
C69   H84   S    
H4    N8    S    
C69   H13   S    
H113  N7    S    
C83   H51   S    
C72   O24   S    
H18   N3    S    
C12   N2    S    
C31   C36   A    
C40   H79   S    
C75   H35   S    
C17   C54   A    
C71   O22   S    
C8    P7    S    
O32   P13   D    
Ba3   O13   S    
C3    C67   A    
C82   H40   S    
O2    P2    S    
C21   C78   A    
O18   P6    D    
C15   C57   A    
C84   H70   S    
O24   P9    S    
O44   P12   S    
C85   H71   S    
C26   C35   A    
C12   H49   S    
C64   H103  S    
C73   O25   S    
C80   H1    S    
Ba4   O8    S    
C46   P16   S    
O26   P11   S    
C16   C20   A    
C22   C53   A    
C13   C17   A    
Ba2   O12   S    
C30   C85   A    
C55   H77   S    
H105  N1    S    
O21   P7    D    
Ba4   O35   S    
C25   C55   A    
C44   P2    S    
C48   P3    S    
O20   P8    D    
Ba2   O15   S    
O28   P5    S    
C76   H115  S    
C1    N12   S    
C24   C32   A    
H6    N9    S    
O35   P15   D    
C7    P8    S    
C42   C60   S    
C66   N1    S    
Ba2   O37   S    
Ba4   P11   S    
C57   H78   S    
C79   H34   S    
C76   H32   S    
C34   N4    S    
C16   C53   A    
H17   N3    S    
C71   C75   S    
Ba3   O8    S    
C43   C61   S    
C60   H94   S    
O39   P4    S    
C48   C52   A    
C20   C67   A    
H11   N11   S    
C37   N9    S    
C54   H76   S    
