data_mof_unit_8812.cif
_audit_creation_date              2012-12-10T16:58:26-0500
_audit_creation_method            fapswitch 2.2
_symmetry_space_group_name_H-M    P1
_symmetry_Int_Tables_number       1
_space_group_crystal_system       triclinic
_cell_length_a                    7.75559
_cell_length_b                    8.555705
_cell_length_c                    23.299243
_cell_angle_alpha                 90.614293
_cell_angle_beta                  86.127454
_cell_angle_gamma                 93.912679
_cell_volume                      1538.85640681

loop_
_atom_site_label
_atom_site_type_symbol
_atom_type_description
_atom_site_fract_x
_atom_site_fract_y
_atom_site_fract_z
_atom_type_partial_charge
C1    C     C_R   0.546014 0.794827 0.498517 0.966731
C2    C     C_R   0.365422 0.434989 0.295112 -0.056886
C3    C     C_R   0.414992 0.564186 0.771432 0.103904
C4    C     C_R   0.380503 0.445538 0.234075 0.122213
C5    C     C_R   0.555206 0.484692 0.790668 0.285798
C6    C     C_R   0.537851 0.512884 0.207005 0.276999
C7    C     C_2   0.570123 0.958524 0.497801 -0.400842
C8    C     C_2   0.429772 0.041476 0.501810 -0.398295
C9    C     C_R   0.502956 0.500516 0.610696 0.870546
C10   C     C_R   0.497709 0.499454 0.389349 0.867715
C11   C     C_R   0.578497 0.363706 0.119044 0.469033
C12   C     C_R   0.453953 0.205173 0.501355 0.962553
C13   C     C_R   0.646195 0.619776 0.875844 0.485947
C14   C     C_R   0.604923 0.643347 0.115722 0.470013
C15   C     C_R   0.563611 0.345490 0.879747 0.491158
C16   C     C_R   0.633980 0.638899 0.055936 -0.013024
C17   C     C_R   0.579693 0.344760 0.939042 -0.009351
C18   C     C_R   0.613232 0.493709 0.027484 -0.016369
C19   C     C_R   0.616593 0.488298 0.967254 -0.029691
C20   C     C_R   0.585044 0.354405 0.059191 -0.000240
C21   C     C_R   0.652771 0.627008 0.935481 -0.020990
C22   C     C_R   0.677513 0.775609 0.023960 -0.171222
C23   C     C_R   0.666091 0.408556 0.751988 -0.135664
C24   C     C_R   0.552290 0.206067 0.970988 -0.178050
C25   C     C_R   0.689424 0.769372 0.964085 -0.188598
C26   C     C_R   0.557766 0.210663 0.030605 -0.180929
C27   C     C_R   0.272789 0.678173 0.688847 0.119186
C28   C     C_R   0.332432 0.824403 0.665630 -0.120231
C29   C     C_R   0.216179 0.922261 0.643516 -0.112035
C30   C     C_R   0.040004 0.874782 0.644410 -0.132972
C31   C     C_R   0.979823 0.729417 0.667446 -0.121598
C32   C     C_R   0.095705 0.630748 0.689452 -0.116041
C33   C     C_R   0.226892 0.330807 0.324888 0.116469
C34   C     C_R   0.666420 0.582386 0.239628 -0.131068
C35   C     C_R   0.270180 0.189953 0.349074 -0.119949
C36   C     C_R   0.140766 0.085297 0.373912 -0.140454
C37   C     C_R   0.967069 0.118967 0.373860 -0.139715
C38   C     C_R   0.922979 0.258953 0.350135 -0.109017
C39   C     C_R   0.052473 0.366913 0.327220 -0.165024
C40   C     C_3   0.286767 0.636027 0.814946 -0.403228
C41   C     C_3   0.163583 0.509294 0.844952 -0.366807
C42   C     C_3   0.085641 0.568410 0.902316 -0.826629
C43   C     C_3   0.232221 0.388534 0.197523 -0.411217
C44   C     C_3   0.151926 0.526981 0.170697 -0.373916
C45   C     C_R   0.642772 0.411054 0.693987 -0.273069
C46   C     C_3   0.019874 0.470262 0.128279 -0.852587
C47   C     C_R   0.645190 0.583545 0.298625 -0.262436
C48   C     C_R   0.512166 0.495489 0.673071 -0.118412
C49   C     C_R   0.498936 0.507178 0.326819 -0.112734
C50   C     C_R   0.397826 0.574582 0.711502 -0.060180
H1    H     H_    0.701957 0.887280 0.045101 0.189086
H2    H     H_    0.297399 0.989826 0.505484 0.179686
H3    H     H_    0.013733 0.380723 0.457959 0.211185
H4    H     H_    0.986630 0.618755 0.542449 0.198588
H5    H     H_    0.468819 0.862123 0.664579 0.120978
H6    H     H_    0.262656 0.034903 0.625713 0.133491
H7    H     H_    0.950086 0.950575 0.627240 0.127555
H8    H     H_    0.843399 0.693476 0.668046 0.150285
H9    H     H_    0.048072 0.517862 0.706799 0.122825
H10   H     H_    0.404016 0.160438 0.348008 0.119265
H11   H     H_    0.174970 0.976898 0.392321 0.141074
H12   H     H_    0.523368 0.094464 0.950201 0.190532
H13   H     H_    0.866595 0.036348 0.391951 0.134578
H14   H     H_    0.788274 0.282717 0.349064 0.163262
H15   H     H_    0.016758 0.475107 0.309057 0.134204
H16   H     H_    0.188842 0.592549 0.932692 0.258426
H17   H     H_    0.019769 0.677477 0.895949 0.284006
H18   H     H_    0.990204 0.477733 0.921418 0.251001
H19   H     H_    0.057592 0.474510 0.816625 0.221335
H20   H     H_    0.231880 0.402891 0.853261 0.251683
H21   H     H_    0.356905 0.707437 0.846904 0.240037
H22   H     H_    0.207144 0.720654 0.795018 0.218929
H23   H     H_    0.721478 0.876790 0.940394 0.192621
H24   H     H_    0.083615 0.405535 0.092054 0.267021
H25   H     H_    0.916906 0.392004 0.150367 0.284359
H26   H     H_    0.960969 0.572414 0.110588 0.253506
H27   H     H_    0.087922 0.597111 0.205317 0.221578
H28   H     H_    0.252701 0.604790 0.147359 0.251154
H29   H     H_    0.275856 0.306870 0.163450 0.242815
H30   H     H_    0.128453 0.318021 0.222093 0.217378
H31   H     H_    0.531672 0.102892 0.054450 0.196205
H32   H     H_    0.771872 0.347440 0.767193 0.151591
H33   H     H_    0.784704 0.635562 0.218897 0.167138
H34   H     H_    0.730498 0.349236 0.665120 0.173576
H35   H     H_    0.747334 0.640276 0.322551 0.166924
H36   H     H_    0.702468 0.010190 0.494193 0.175307
N1    N     N_R   0.572538 0.506601 0.145888 -0.349510
N2    N     N_R   0.589405 0.483187 0.850076 -0.345995
N3    N     N_2   0.950330 0.457950 0.484560 -0.178787
N4    N     N_2   0.049670 0.542050 0.515440 -0.176899
O1    O     O_R   0.389250 0.738570 0.503790 -0.606784
O2    O     O_2   0.690663 0.748753 0.843852 -0.560858
O3    O     O_2   0.605684 0.782778 0.143393 -0.543705
O4    O     O_2   0.518185 0.211017 0.852097 -0.558435
O5    O     O_R   0.610750 0.261430 0.496210 -0.613220
O6    O     O_R   0.678390 0.711620 0.493890 -0.634049
O7    O     O_R   0.321610 0.288380 0.506110 -0.628305
O8    O     O_R   0.355400 0.513520 0.588790 -0.601039
O9    O     O_R   0.644600 0.486480 0.411210 -0.630800
O10   O     O_R   0.644550 0.486570 0.578900 -0.632208
O11   O     O_R   0.355450 0.513430 0.421100 -0.609650
O12   O     O_2   0.575384 0.231480 0.150352 -0.551212
Zn1   Zn    Zn3+2 0.306930 0.518000 0.506610 0.951745
Zn2   Zn    Zn3+2 0.693070 0.482000 0.493390 0.927730

loop_
_geom_bond_atom_site_label_1
_geom_bond_atom_site_label_2
_ccdc_geom_bond_type
C9    O8    A    
C23   C45   A    
C23   H32   S    
C41   C42   S    
C35   C36   A    
C15   O4    S    
C46   H26   S    
C7    C8    D    
C47   C49   A    
C33   C39   A    
C47   H35   S    
C31   H8    S    
C36   C37   A    
C40   H21   S    
C24   C26   A    
C14   N1    A    
H4    N4    S    
C30   C31   A    
C22   H1    S    
C7    H36   S    
C43   H29   S    
O8    Zn1   S    
C30   H7    S    
O10   Zn2   S    
C18   C19   A    
C33   C35   A    
C5    N2    S    
C3    C50   A    
C11   N1    A    
C22   C25   A    
C24   H12   S    
C12   O5    A    
C29   C30   A    
C8    H2    S    
C14   O3    S    
C18   C20   A    
C27   C50   S    
C48   C50   A    
O9    Zn2   S    
O11   Zn1   S    
C42   H18   S    
C39   H15   S    
C46   H25   S    
C37   H13   S    
C28   H5    S    
C44   C46   S    
C38   H14   S    
C11   C20   A    
C17   C24   A    
C4    C6    A    
C43   H30   S    
C6    N1    S    
C6    C34   A    
C35   H10   S    
C2    C4    A    
C43   C44   S    
C37   C38   A    
C2    C49   A    
C31   C32   A    
C5    C23   A    
C8    C12   S    
C13   C21   A    
C12   O7    A    
O7    Zn1   S    
C2    C33   S    
C16   C18   A    
C40   C41   S    
C29   H6    S    
C3    C40   S    
C9    O10   A    
O6    Zn2   S    
C13   O2    S    
H3    N3    S    
C42   H17   S    
C14   C16   A    
C45   H34   S    
C34   H33   S    
C36   H11   S    
C46   H24   S    
O5    Zn2   S    
C41   H19   S    
C45   C48   A    
C15   C17   A    
C21   C25   A    
C28   C29   A    
C16   C22   A    
C40   H22   S    
C19   C21   A    
C27   C32   A    
C1    C7    S    
C10   O11   A    
O1    Zn1   S    
C3    C5    A    
C4    C43   S    
C26   H31   S    
C44   H27   S    
C44   H28   S    
N3    Zn2   S    
C38   C39   A    
C20   C26   A    
C1    O6    A    
C13   N2    A    
C17   C19   A    
C11   O12   S    
C25   H23   S    
C10   O9    A    
N4    Zn1   S    
C9    C48   S    
C1    O1    A    
C27   C28   A    
C42   H16   S    
C41   H20   S    
C34   C47   A    
C32   H9    S    
N3    N4    D    
C10   C49   S    
C15   N2    A    
