data_mof_unit_9834.cif
_audit_creation_date              2012-12-10T17:51:30-0500
_audit_creation_method            fapswitch 2.2
_symmetry_space_group_name_H-M    P1
_symmetry_Int_Tables_number       1
_space_group_crystal_system       triclinic
_cell_length_a                    14.706226
_cell_length_b                    14.789052
_cell_length_c                    17.345065
_cell_angle_alpha                 106.039022
_cell_angle_beta                  72.900138
_cell_angle_gamma                 115.077989
_cell_volume                      3215.22959108

loop_
_atom_site_label
_atom_site_type_symbol
_atom_type_description
_atom_site_fract_x
_atom_site_fract_y
_atom_site_fract_z
_atom_type_partial_charge
C1    C     C_R   0.119198 0.688030 0.513125 0.824273
C2    C     C_R   0.881248 0.312196 0.486502 0.835563
C3    C     C_R   0.187246 0.795903 0.522748 -0.153661
C4    C     C_R   0.813848 0.205554 0.486946 -0.144230
C5    C     C_R   0.210833 0.973771 0.560688 -0.209500
C6    C     C_R   0.781349 0.039154 0.509141 -0.201646
C7    C     C_R   0.146168 0.871941 0.551045 -0.254596
C8    C     C_R   0.849101 0.136982 0.498729 -0.286834
C9    C     C_R   0.294668 0.823274 0.504654 0.407264
C10   C     C_R   0.710587 0.174489 0.482985 0.426740
C11   C     C_R   0.359073 0.925008 0.526429 -0.019450
C12   C     C_R   0.638768 0.081658 0.506485 -0.020047
C13   C     C_R   0.317024 0.000912 0.547828 0.105889
C14   C     C_R   0.676410 0.011177 0.513849 0.104288
C15   C     C_R   0.464865 0.953672 0.524055 0.060218
C16   C     C_R   0.531177 0.056006 0.521489 0.059597
C17   C     C_R   0.487328 0.130163 0.540925 -0.154545
C18   C     C_R   0.504794 0.885012 0.530611 -0.154280
C19   C     C_R   0.381642 0.102926 0.556119 -0.232468
C20   C     C_R   0.608700 0.914095 0.527100 -0.234148
C21   C     C_R   0.298661 0.332953 0.360172 -0.410736
C22   C     C_R   0.703991 0.670733 0.637000 -0.416217
C23   C     C_R   0.990010 0.504246 0.652645 0.783132
C24   C     C_R   0.009467 0.494901 0.347313 0.782076
C25   C     C_R   0.211904 0.359168 0.383496 0.699784
C26   C     C_R   0.787271 0.639560 0.617625 0.705926
C27   C     C_R   0.285806 0.490612 0.488118 -0.062651
C28   C     C_R   0.714893 0.510588 0.511089 -0.084855
C29   C     C_R   0.374565 0.465942 0.468187 -0.026742
C30   C     C_R   0.627353 0.537053 0.529737 -0.024297
C31   C     C_R   0.378701 0.384717 0.402902 0.096933
C32   C     C_R   0.624158 0.619444 0.594027 0.103541
C33   C     C_R   0.458633 0.518154 0.510198 0.099487
C34   C     C_R   0.544027 0.486044 0.486905 0.091649
C35   C     C_R   0.543332 0.404330 0.421458 -0.226298
C36   C     C_R   0.460620 0.601661 0.574221 -0.231051
C37   C     C_R   0.462684 0.355304 0.380276 -0.176915
C38   C     C_R   0.541760 0.651082 0.614935 -0.192855
C39   C     C_R   0.986772 0.509629 0.738649 -0.019086
C40   C     C_R   0.010830 0.486520 0.261190 -0.027198
C41   C     C_R   0.070408 0.508868 0.761276 -0.208670
C42   C     C_R   0.926706 0.487048 0.239135 -0.213143
C43   C     C_R   0.067754 0.513593 0.842847 -0.149541
C44   C     C_R   0.927282 0.479125 0.157469 -0.152134
C45   C     C_R   0.980819 0.518006 0.902751 0.194808
C46   C     C_R   0.012721 0.471940 0.096825 0.192641
C47   C     C_R   0.898533 0.521751 0.880622 -0.179282
C48   C     C_R   0.095190 0.467793 0.118408 -0.179212
C49   C     C_R   0.901111 0.516952 0.798856 -0.201194
C50   C     C_R   0.094530 0.475372 0.200283 -0.181248
C51   C     C_2   0.974109 0.518963 0.988799 -0.232894
C52   C     C_2   0.018226 0.469682 0.010706 -0.231348
Cu1   Cu    Cu3+1 0.916740 0.524770 0.521640 0.989700
Cu2   Cu    Cu3+1 0.083260 0.475230 0.478360 0.987426
H1    H     H_    0.138233 0.505303 0.716103 0.149257
H2    H     H_    0.860065 0.492921 0.284850 0.151478
H3    H     H_    0.532893 0.210314 0.550652 0.199105
H4    H     H_    0.455743 0.810247 0.544187 0.191245
H5    H     H_    0.465940 0.293009 0.330217 0.137727
H6    H     H_    0.539763 0.714934 0.663713 0.139034
H7    H     H_    0.724784 0.450314 0.462127 0.175754
H8    H     H_    0.275672 0.550544 0.537379 0.157959
H9    H     H_    0.304143 0.272965 0.308624 0.147954
H10   H     H_    0.701900 0.735504 0.684564 0.146827
H11   H     H_    0.604648 0.376474 0.400009 0.143362
H12   H     H_    0.400545 0.631408 0.594330 0.132127
H13   H     H_    0.159809 0.473618 0.215884 0.164247
H14   H     H_    0.835719 0.517705 0.782750 0.151678
H15   H     H_    0.062666 0.429456 0.964648 0.145833
H16   H     H_    0.929709 0.559290 0.034753 0.145006
H17   H     H_    0.831417 0.526156 0.926410 0.122621
H18   H     H_    0.161053 0.461027 0.072068 0.124191
H19   H     H_    0.860563 0.477972 0.142114 0.124001
H20   H     H_    0.134137 0.514812 0.858801 0.123829
H21   H     H_    0.350540 0.161959 0.573144 0.147379
H22   H     H_    0.636197 0.860071 0.534277 0.152426
H23   H     H_    0.928686 0.159351 0.500982 0.173136
H24   H     H_    0.064113 0.852845 0.564083 0.198452
H25   H     H_    0.177691 0.031365 0.579331 0.146341
H26   H     H_    0.810404 0.986508 0.516546 0.147478
N1    N     N_R   0.208390 0.438070 0.445820 -0.219504
N2    N     N_R   0.791610 0.561930 0.554180 -0.220520
O1    O     O_R   0.020090 0.662480 0.528530 -0.548558
O2    O     O_R   0.979910 0.337520 0.471470 -0.560353
O3    O     O_R   0.160710 0.620650 0.491980 -0.541491
O4    O     O_R   0.839290 0.379350 0.508020 -0.550725
O5    O     O_R   0.921540 0.523360 0.633990 -0.553262
O6    O     O_R   0.078460 0.476640 0.366010 -0.545728
O7    O     O_R   0.062170 0.481520 0.597440 -0.607465
O8    O     O_R   0.937830 0.518480 0.402560 -0.602138
O9    O     O_3   0.870081 0.691161 0.656366 -0.553539
C53   C     C_3   0.837856 0.709764 0.742379 -0.366497
H27   H     H_    0.901668 0.721896 0.770577 0.199077
H28   H     H_    0.770568 0.644631 0.765675 0.144437
H29   H     H_    0.821238 0.780246 0.762469 0.160650
O10   O     O_3   0.132838 0.311980 0.340698 -0.552854
C54   C     C_3   0.096615 0.205464 0.332485 -0.346955
H30   H     H_    0.017643 0.172984 0.320890 0.194718
H31   H     H_    0.092470 0.180848 0.389060 0.144008
H32   H     H_    0.144529 0.173911 0.278865 0.156862
O11   O     O_3   0.682006 0.232736 0.451571 -0.596912
C55   C     C_3   0.694860 0.200927 0.365883 -0.347761
H33   H     H_    0.645184 0.119975 0.349585 0.167626
H34   H     H_    0.776580 0.213330 0.336838 0.159329
H35   H     H_    0.671795 0.246759 0.340057 0.175924
O12   O     O_3   0.336707 0.751323 0.461704 -0.586868
C56   C     C_3   0.358374 0.753852 0.377367 -0.287130
H36   H     H_    0.416788 0.828439 0.363066 0.153353
H37   H     H_    0.287552 0.736052 0.355628 0.148477
H38   H     H_    0.390412 0.695008 0.342994 0.187388

loop_
_geom_bond_atom_site_label_1
_geom_bond_atom_site_label_2
_ccdc_geom_bond_type
C15   C18   A    
Cu2   O6    S    
O11   C55   S    
C49   H14   S    
C46   C52   S    
C27   C29   A    
C56   H37   S    
C2    O2    A    
C4    C8    A    
Cu2   O2    S    
C54   H30   S    
C39   C41   A    
Cu1   Cu2   S    
C21   C31   A    
C22   C32   A    
C35   C37   A    
C3    C7    A    
C36   H12   S    
O12   C56   S    
C35   H11   S    
C15   C16   A    
C29   C33   A    
C33   C36   A    
C20   H22   S    
C55   H35   S    
C34   C35   A    
C41   H1    S    
C52   H15   S    
C42   H2    S    
C11   C15   A    
C18   H4    S    
C12   C16   A    
C16   C17   A    
C56   H36   S    
C23   O7    A    
Cu1   O4    S    
C51   H16   S    
C32   C38   A    
C5    H25   S    
C50   H13   S    
C5    C13   A    
C28   H7    S    
C43   H20   S    
C40   C42   A    
C26   N2    A    
C23   O5    A    
C25   N1    A    
C41   C43   A    
C55   H33   S    
C42   C44   A    
C48   H18   S    
C54   H31   S    
C44   C46   A    
C45   C47   A    
C1    O3    A    
C46   C48   A    
C30   C34   A    
C28   N2    A    
C51   C52   D    
C14   C20   A    
C27   N1    A    
Cu2   O7    S    
C47   C49   A    
O9    C53   S    
C5    C7    A    
C13   C19   A    
C17   C19   A    
C6    C8    A    
C26   O9    S    
C53   H29   S    
C31   C37   A    
Cu1   N2    S    
C1    C3    S    
C2    C4    S    
C3    C9    A    
C27   H8    S    
C6    C14   A    
C9    C11   A    
C6    H26   S    
O10   C54   S    
C53   H28   S    
C33   C34   A    
Cu1   O5    S    
C55   H34   S    
C48   C50   A    
C43   C45   A    
C47   H17   S    
C37   H5    S    
C10   C12   A    
C7    H24   S    
C38   H6    S    
C39   C49   A    
C12   C14   A    
C8    H23   S    
C56   H38   S    
C4    C10   A    
C54   H32   S    
C21   C25   A    
C24   O6    A    
C10   O11   S    
C24   O8    A    
Cu2   O3    S    
C1    O1    A    
Cu1   O1    S    
C36   C38   A    
C9    O12   S    
C28   C30   A    
C29   C31   A    
C30   C32   A    
C11   C13   A    
C23   C39   S    
C19   H21   S    
C53   H27   S    
C24   C40   S    
C2    O4    A    
C18   C20   A    
C44   H19   S    
C21   H9    S    
C22   H10   S    
C40   C50   A    
C25   O10   S    
C22   C26   A    
Cu1   O8    S    
C45   C51   S    
Cu2   N1    S    
C17   H3    S    
