data_mof_unit_58932.cif
_audit_creation_date              2012-10-26T19:20:35-0400
_audit_creation_method            fapswitch 2.2
_symmetry_space_group_name_H-M    P1
_symmetry_Int_Tables_number       1
_space_group_crystal_system       triclinic
_cell_length_a                    10.796842
_cell_length_b                    11.048933
_cell_length_c                    9.782909
_cell_angle_alpha                 111.135525
_cell_angle_beta                  97.557847
_cell_angle_gamma                 91.36695
_cell_volume                      1075.86393595

loop_
_atom_site_label
_atom_site_type_symbol
_atom_type_description
_atom_site_fract_x
_atom_site_fract_y
_atom_site_fract_z
_atom_type_partial_charge
C1    C     C_R   0.490953 0.254026 0.440579 0.562837
C2    C     C_R   0.738313 0.516919 0.502050 0.574604
C3    C     C_R   0.138126 0.494955 0.762757 0.401640
C4    C     C_R   0.861864 0.505024 0.237226 0.401646
C5    C     C_R   0.100227 0.560606 0.899665 -0.087648
C6    C     C_R   0.899756 0.439360 0.100318 -0.087646
C7    C     C_R   0.996884 0.634161 0.907661 -0.186118
C8    C     C_R   0.003106 0.365818 0.092327 -0.186129
C9    C     C_R   0.924543 0.631747 0.777615 -0.105233
C10   C     C_R   0.075455 0.368248 0.222377 -0.105229
C11   C     C_R   0.957417 0.558451 0.637378 -0.047860
C12   C     C_R   0.509047 0.745973 0.559421 0.562834
C13   C     C_R   0.042582 0.441547 0.362615 -0.047856
C14   C     C_R   0.075401 0.506663 0.632183 0.023296
C15   C     C_R   0.924596 0.493332 0.367808 0.023296
C16   C     C_R   0.875485 0.534752 0.503270 -0.011907
C17   C     C_R   0.124514 0.465247 0.496724 -0.011901
C18   C     C_2   0.485889 0.114752 0.407009 -0.117844
C19   C     C_2   0.514111 0.885248 0.592991 -0.117846
C20   C     C_2   0.502358 0.069555 0.516684 -0.146568
C21   C     C_2   0.497642 0.930445 0.483315 -0.146570
C22   C     C_2   0.503180 0.517024 0.082124 0.009405
C23   C     C_2   0.496816 0.482979 0.917876 0.009395
C24   C     C_R   0.261687 0.483081 0.497949 0.574612
Cu1   Cu    Cu3+1 0.521920 0.521810 0.644910 0.979819
Cu2   Cu    Cu3+1 0.478080 0.478190 0.355090 0.979820
F1    F     F_    0.225527 0.407924 0.755763 -0.668099
F2    F     F_    0.774465 0.592055 0.244211 -0.668098
H1    H     H_    0.030652 0.311796 0.985816 0.144688
H2    H     H_    0.468691 0.048665 0.291810 0.101995
H3    H     H_    0.441822 0.395484 0.843105 0.208836
H4    H     H_    0.558168 0.604522 0.156895 0.208833
H5    H     H_    0.605389 0.637940 0.936848 0.211746
H6    H     H_    0.394615 0.362058 0.063152 0.211740
H7    H     H_    0.969338 0.688178 0.014172 0.144693
H8    H     H_    0.150450 0.553448 0.999481 0.142724
H9    H     H_    0.849527 0.446503 0.000496 0.142725
H10   H     H_    0.843690 0.688642 0.787649 0.150182
H11   H     H_    0.156312 0.311352 0.212341 0.150179
H12   H     H_    0.480489 0.864616 0.367924 0.156856
H13   H     H_    0.519510 0.135383 0.632075 0.156858
H14   H     H_    0.531308 0.951335 0.708190 0.101995
N1    N     N_2   0.445130 0.445420 0.137360 -0.356405
N2    N     N_2   0.554870 0.554580 0.862640 -0.356406
O1    O     O_R   0.511700 0.332340 0.577400 -0.490152
O2    O     O_R   0.488300 0.667660 0.422600 -0.490155
O3    O     O_R   0.474680 0.295500 0.332650 -0.508156
O4    O     O_R   0.525320 0.704500 0.667350 -0.508156
O5    O     O_R   0.338170 0.518410 0.622370 -0.430510
O6    O     O_R   0.661830 0.481590 0.377630 -0.430508
O7    O     O_R   0.301150 0.481570 0.377630 -0.512128
O8    O     O_R   0.698850 0.518430 0.622370 -0.512126

loop_
_geom_bond_atom_site_label_1
_geom_bond_atom_site_label_2
_ccdc_geom_bond_type
C2    O8    A    
C3    C14   A    
C12   O2    A    
C2    C16   S    
C11   C16   A    
C22   N1    D    
C14   C17   A    
C19   H14   S    
C13   C17   A    
C12   O4    A    
C7    C9    A    
C24   O7    A    
C3    F1    S    
C20   H13   S    
C6    H9    S    
Cu2   O7    S    
C9    C11   A    
Cu1   O4    S    
C1    O1    A    
C1    C18   S    
C21   H12   S    
C22   H4    S    
Cu2   O3    S    
C4    C15   A    
C18   H2    S    
C8    H1    S    
C12   C19   S    
C8    C10   A    
C9    H10   S    
C4    F2    S    
Cu2   N1    S    
C18   C20   D    
Cu2   O6    S    
C13   C15   A    
C11   C14   A    
Cu1   O5    S    
Cu1   O8    S    
C17   C24   S    
Cu2   O2    S    
C15   C16   A    
C5    H8    S    
Cu1   O1    S    
C20   C21   S    
Cu1   N2    S    
C4    C6    A    
C24   O5    A    
C5    C7    A    
C22   C23   S    
C1    O3    A    
C6    C8    A    
C2    O6    A    
C19   C21   D    
Cu1   Cu2   S    
H6    N1    S    
H5    N2    S    
C7    H7    S    
C23   N2    D    
C10   H11   S    
C3    C5    A    
C10   C13   A    
C23   H3    S    
