data_mof_unit_22858.cif
_audit_creation_date              2013-03-05T16:11:15-0500
_audit_creation_method            fapswitch 2.2
_symmetry_space_group_name_H-M    P1
_symmetry_Int_Tables_number       1
_space_group_crystal_system       triclinic
_cell_length_a                    6.953392
_cell_length_b                    20.54513
_cell_length_c                    24.472141
_cell_angle_alpha                 90.158885
_cell_angle_beta                  90.200023
_cell_angle_gamma                 89.207039
_cell_volume                      3495.68041107

loop_
_atom_site_label
_atom_site_type_symbol
_atom_site_description
_atom_site_fract_x
_atom_site_fract_y
_atom_site_fract_z
_atom_type_partial_charge
O1    O     O_R   0.507280 0.423750 0.460310 -0.590508
O2    O     O_R   0.171030 0.555650 0.437630 -0.593479
O3    O     O_R   0.004080 0.576250 0.539690 -0.595035
C1    C     C_R   0.339114 0.575659 0.421809 0.960860
O4    O     O_R   0.177330 0.422980 0.453960 -0.573627
O5    O     O_R   0.010420 0.442640 0.556140 -0.561006
C2    C     C_R   0.347190 0.398859 0.443521 1.035354
O6    O     O_R   0.500930 0.557360 0.443860 -0.597535
O7    O     O_3   0.340310 0.506600 0.533500 -0.268159
V1    V     V_3+5 0.064140 0.498780 0.493780 1.201225
O8    O     O_R   0.680890 0.444350 0.562370 -0.585016
C3    C     C_R   0.850541 0.424342 0.578096 1.000743
O9    O     O_R   0.674590 0.577020 0.546040 -0.594687
C4    C     C_R   0.842102 0.600943 0.556764 0.913674
V2    V     V_3+5 0.564550 0.501220 0.506220 1.194003
O10   O     O_3   0.838250 0.493400 0.466500 -0.278194
C5    C     C_R   0.978337 0.837950 0.911325 -0.077895
C6    C     C_R   0.844737 0.661448 0.589317 -0.099134
C7    C     C_R   0.046989 0.721845 0.907139 -0.046875
C8    C     C_R   0.037444 0.780324 0.936376 -0.264867
C9    C     C_R   0.928079 0.837756 0.855827 -0.241968
C10   C     C_R   0.942260 0.779978 0.823658 0.097229
C11   C     C_R   0.007551 0.721792 0.849941 0.135128
C12   C     C_R   0.898153 0.778510 0.766110 0.068137
C13   C     C_R   0.926960 0.719696 0.735219 0.063612
C14   C     C_R   0.002029 0.664768 0.762554 -0.220970
C15   C     C_R   0.040786 0.665840 0.818164 -0.164040
C16   C     C_R   0.825577 0.833902 0.738402 -0.193834
C17   C     C_R   0.783923 0.832313 0.682917 -0.229023
C18   C     C_R   0.809415 0.775411 0.652540 0.175209
C19   C     C_R   0.880879 0.717898 0.677890 0.112604
C20   C     C_R   0.759788 0.775586 0.596902 -0.167771
C21   C     C_R   0.775632 0.719010 0.565792 -0.159548
C22   C     C_R   0.898474 0.660826 0.644803 -0.242334
H1    H     H_    0.103587 0.622115 0.835399 0.186975
H2    H     H_    0.946244 0.614667 0.661051 0.105758
H3    H     H_    0.731565 0.719908 0.523279 0.113831
H4    H     H_    0.728185 0.876184 0.663663 0.141972
H5    H     H_    0.073599 0.780929 0.979547 0.112326
H6    H     H_    0.886199 0.884111 0.838806 0.102987
H7    H     H_    0.034889 0.619643 0.741933 0.141093
H8    H     H_    0.796618 0.879630 0.758471 0.136343
H9    H     H_    0.704769 0.819489 0.577581 0.126059
C23   C     C_R   0.734693 0.285457 0.741503 -0.275477
H10   H     H_    0.602839 0.313049 0.734745 0.173533
C24   C     C_R   0.890331 0.294652 0.706180 0.108710
C25   C     C_R   0.060189 0.258513 0.714521 -0.121635
H11   H     H_    0.182122 0.264950 0.687720 0.155009
C26   C     C_R   0.074538 0.213756 0.757572 -0.135007
H12   H     H_    0.207847 0.186642 0.763217 0.177485
C27   C     C_R   0.919500 0.204109 0.793182 -0.029821
C28   C     C_R   0.746161 0.240295 0.784950 0.348049
C29   C     C_1   0.875027 0.340794 0.661208 0.060785
C30   C     C_1   0.943609 0.158413 0.838364 0.144785
C31   C     C_1   0.960250 0.120456 0.876201 -0.228786
C32   C     C_1   0.862848 0.379082 0.623500 -0.230584
C33   C     C_R   0.587273 0.749940 0.219045 -0.149485
H13   H     H_    0.718276 0.750569 0.195186 0.163752
C34   C     C_R   0.439579 0.794755 0.206479 0.121541
C35   C     C_R   0.269925 0.793949 0.237284 -0.149620
H14   H     H_    0.153812 0.827968 0.228208 0.131015
C36   C     C_R   0.248122 0.749271 0.280094 -0.066445
H15   H     H_    0.115687 0.749980 0.303299 0.134781
C37   C     C_R   0.394944 0.704120 0.292977 0.061744
C38   C     C_R   0.567265 0.704430 0.262002 -0.062531
C39   C     C_1   0.460967 0.840942 0.161629 0.007950
C40   C     C_1   0.367007 0.658626 0.338222 -0.020145
C41   C     C_1   0.349589 0.620745 0.376088 -0.282965
C42   C     C_1   0.475387 0.879202 0.123917 -0.280534
C43   C     C_R   0.465363 0.161585 0.089197 -0.087101
C44   C     C_R   0.359571 0.336591 0.413212 -0.282626
C45   C     C_R   0.432988 0.279334 0.090945 -0.051920
C46   C     C_R   0.455053 0.220904 0.062087 -0.253295
C47   C     C_R   0.454782 0.160045 0.146347 -0.236686
C48   C     C_R   0.439082 0.218310 0.177939 0.111982
C49   C     C_R   0.430610 0.278627 0.149226 0.137305
C50   C     C_R   0.431843 0.218640 0.236905 0.025207
C51   C     C_R   0.415028 0.278827 0.266194 0.075553
C52   C     C_R   0.417635 0.337000 0.235887 -0.215655
C53   C     C_R   0.426809 0.336802 0.179304 -0.159364
C54   C     C_R   0.445093 0.160689 0.267428 -0.192822
C55   C     C_R   0.439776 0.160074 0.324577 -0.069475
C56   C     C_R   0.412646 0.219145 0.353688 0.015963
C57   C     C_R   0.400376 0.279130 0.324840 0.152669
C58   C     C_R   0.394049 0.219300 0.411186 -0.280726
C59   C     C_R   0.369639 0.276898 0.441172 0.372400
C60   C     C_R   0.372694 0.337312 0.355937 -0.272008
H16   H     H_    0.435207 0.383662 0.159679 0.187378
H17   H     H_    0.360239 0.384478 0.337105 0.115465
H18   H     H_    0.458333 0.221338 0.017757 0.131671
H19   H     H_    0.458168 0.112340 0.164372 0.104101
H20   H     H_    0.417069 0.384406 0.254673 0.139410
H21   H     H_    0.466675 0.114356 0.247776 0.169563
H22   H     H_    0.393175 0.174376 0.433867 0.155641
O11   O     O_R   0.323320 0.942780 0.056240 -0.590596
O12   O     O_R   0.647300 0.077050 0.046060 -0.590073
O13   O     O_R   0.813840 0.057330 0.943840 -0.574164
C61   C     C_R   0.477516 0.100904 0.056928 0.946141
O14   O     O_R   0.653250 0.944380 0.062400 -0.591287
O15   O     O_R   0.819830 0.923720 0.960300 -0.592308
C62   C     C_R   0.485176 0.924463 0.078288 0.970836
O16   O     O_R   0.317330 0.076390 0.039790 -0.587282
O17   O     O_3   0.483830 0.993470 0.966560 -0.265890
V3    V     V_3+5 0.760140 0.001210 0.006210 1.185665
O18   O     O_R   0.149290 0.922840 0.953850 -0.594118
C63   C     C_R   0.981636 0.898993 0.943160 0.927905
O19   O     O_R   0.143340 0.055500 0.937510 -0.581294
C64   C     C_R   0.973623 0.075494 0.921784 0.966105
V4    V     V_3+5 0.259690 0.998600 0.993650 1.189701
O20   O     O_3   0.986130 0.006520 0.033440 -0.273593
N1    N     N_R   0.581664 0.232395 0.819906 0.226842
O21   O     O_R   0.547320 0.176779 0.842961 -0.426473
O22   O     O_R   0.455518 0.279390 0.825056 -0.402891
C65   C     C_2   0.726786 0.657698 0.273997 0.500972
H23   H     H_    0.716207 0.623633 0.307592 0.023632
O23   O     O_2   0.872584 0.656474 0.246310 -0.581916
N2    N     N_R   0.356575 0.273475 0.499915 0.224729
O24   O     O_R   0.247818 0.314079 0.527079 -0.413667
O25   O     O_R   0.440466 0.225918 0.526214 -0.395300
C66   C     C_2   0.469424 0.096312 0.352569 0.534432
H24   H     H_    0.530047 0.093620 0.393331 0.018496
O26   O     O_2   0.429645 0.045306 0.329671 -0.577455
C67   C     C_2   0.407719 0.339051 0.057488 0.520989
H25   H     H_    0.479160 0.342325 0.018230 0.049815
O27   O     O_2   0.297731 0.382896 0.071190 -0.562193
C68   C     C_2   0.097011 0.662581 0.939060 0.512647
H26   H     H_    0.191104 0.666443 0.974388 0.030908
O28   O     O_2   0.024522 0.610138 0.928859 -0.557658

loop_
_geom_bond_atom_site_label_1
_geom_bond_atom_site_label_2
_geom_bond_distance
_ccdc_geom_bond_type
C13   C19   1.438465 A    
C50   C51   1.431139 A    
C68   H26   1.085793 S    
N2    O24   1.301024 A    
C38   C65   1.485985 S    
C4    C6    1.474878 S    
O2    C1    1.304695 A    
C7    C8    1.397580 A    
C57   C60   1.426424 A    
C55   C66   1.491425 S    
C1    O6    1.297589 A    
C54   C55   1.399270 A    
C67   H25   1.085775 S    
C25   C26   1.402701 A    
C58   C59   1.399325 A    
C23   H10   1.083680 S    
C14   C15   1.386571 A    
C17   C18   1.393242 A    
C16   C17   1.387785 A    
C46   H18   1.085221 S    
N2    O25   1.301635 A    
C34   C39   1.462201 S    
O5    C3    1.297219 A    
C18   C19   1.419043 A    
C67   O27   1.220585 D    
C39   C42   1.219233 T    
V2    O10   2.143874 S    
O15   V3    1.986002 S    
C5    C8    1.391124 A    
C35   C36   1.404796 A    
C48   C50   1.444071 A    
C36   C37   1.405467 A    
C30   C31   1.216433 T    
O13   C64   1.296830 A    
O8    V2    1.970466 S    
C25   H11   1.083502 S    
C66   O26   1.221609 D    
C26   C27   1.405100 A    
O12   C61   1.300055 A    
C17   H4    1.084471 S    
C43   C47   1.401243 A    
O19   C64   1.301453 A    
O1    V2    1.989637 S    
C2    C44   1.478631 S    
C11   C15   1.403036 A    
O7    V1    2.157064 S    
C45   C49   1.426529 A    
C23   C28   1.414433 A    
O14   V3    1.961272 S    
C34   C35   1.402511 A    
C9    C10   1.425037 A    
O19   V4    1.970685 S    
C43   C61   1.475489 S    
C23   C24   1.402562 A    
C65   H23   1.084536 S    
C47   C48   1.426326 A    
C40   C41   1.219217 T    
C37   C40   1.466144 S    
C49   C53   1.401950 A    
C12   C13   1.435627 A    
O11   V4    1.961653 S    
C1    C41   1.457191 S    
C8    H5    1.085202 S    
C51   C52   1.408707 A    
C28   N1    1.441938 S    
C15   H1    1.079602 S    
C13   C14   1.406751 A    
C61   O16   1.296647 A    
C21   H3    1.083654 S    
C27   C28   1.421396 A    
C35   H14   1.083363 S    
C47   H19   1.075822 S    
C7    C11   1.425411 A    
C48   C49   1.426669 A    
C36   H15   1.083478 S    
C44   C59   1.406800 A    
C54   H21   1.074223 S    
C58   H22   1.078435 S    
C56   C57   1.423379 A    
C50   C54   1.409055 A    
C43   C46   1.390089 A    
C19   C22   1.427216 A    
N1    O22   1.301589 A    
C6    C22   1.407125 A    
C52   H20   1.075826 S    
C3    C32   1.452389 S    
O3    C4    1.298774 A    
C44   C60   1.405035 A    
O14   C62   1.304509 A    
C55   C56   1.416267 A    
O6    V2    1.961094 S    
O9    V2    1.994913 S    
C45   C67   1.484957 S    
C10   C12   1.440598 A    
O2    V1    1.961081 S    
C66   H24   1.082834 S    
V3    O20   1.709468 S    
O4    C2    1.300405 A    
C29   C32   1.216211 T    
O18   V4    1.995013 S    
C24   C25   1.401001 A    
C68   O28   1.220633 D    
N1    O21   1.301165 A    
C56   C58   1.413461 A    
O1    C2    1.296483 A    
C12   C16   1.412645 A    
C33   C38   1.417322 A    
C45   C46   1.397980 A    
O5    V1    1.955622 S    
C65   O23   1.221265 D    
O8    C3    1.301136 A    
C42   C62   1.457480 S    
O18   C63   1.296324 A    
C7    C68   1.485051 S    
O15   C63   1.298528 A    
C31   C64   1.452231 S    
O17   V4    1.697620 S    
C27   C30   1.460182 S    
C20   C21   1.391032 A    
O12   V3    1.989361 S    
O7    V2    1.700351 S    
O4    V1    1.989302 S    
C53   H16   1.079461 S    
O3    V1    1.986189 S    
V1    O10   1.709411 S    
C5    C63   1.474992 S    
C37   C38   1.420190 A    
C18   C20   1.403450 A    
C33   H13   1.083937 S    
C9    H6    1.076550 S    
C24   C29   1.457199 S    
C16   H8    1.075765 S    
C20   H9    1.084008 S    
C59   N2    1.442726 S    
C22   H2    1.077141 S    
C6    C21   1.395364 A    
C5    C9    1.401213 A    
O13   V3    1.955543 S    
C33   C34   1.403629 A    
C52   C53   1.386385 A    
C51   C57   1.439140 A    
C26   H12   1.083453 S    
V4    O20   2.143922 S    
O17   V3    2.157024 S    
C60   H17   1.076472 S    
C10   C11   1.426932 A    
O16   V4    1.998607 S    
O9    C4    1.296206 A    
O11   C62   1.297900 A    
C14   H7    1.076436 S    
