data_mof_unit_12325.cif
_audit_creation_date              2012-12-10T17:19:55-0500
_audit_creation_method            fapswitch 2.2
_symmetry_space_group_name_H-M    P1
_symmetry_Int_Tables_number       1
_space_group_crystal_system       triclinic
_cell_length_a                    9.627606
_cell_length_b                    10.86046
_cell_length_c                    15.39731
_cell_angle_alpha                 85.211821
_cell_angle_beta                  74.412852
_cell_angle_gamma                 91.889117
_cell_volume                      1542.74959222

loop_
_atom_site_label
_atom_site_type_symbol
_atom_type_description
_atom_site_fract_x
_atom_site_fract_y
_atom_site_fract_z
_atom_type_partial_charge
C1    C     C_R   0.000567 0.263487 0.494470 0.779042
C2    C     C_R   0.682859 0.512170 0.910946 -0.045971
C3    C     C_R   0.779782 0.478345 0.962853 -0.168374
C4    C     C_R   0.539725 0.543213 0.954974 -0.030656
C5    C     C_R   0.485888 0.513259 0.050235 -0.041651
C6    C     C_R   0.585219 0.481114 0.099932 -0.113796
C7    C     C_R   0.729237 0.466044 0.057587 0.593690
C8    C     C_R   0.451182 0.609693 0.908602 0.502495
C9    C     C_R   0.307993 0.627403 0.952961 -0.187946
C10   C     C_R   0.250008 0.585862 0.043887 -0.011205
C11   C     C_R   0.336771 0.525299 0.093464 0.007887
C12   C     C_R   0.918376 0.497449 0.672583 0.859481
C13   C     C_R   0.105953 0.607256 0.086295 -0.049283
C14   C     C_R   0.047476 0.571626 0.178016 -0.222353
C15   C     C_R   0.270019 0.479577 0.184509 0.552965
C16   C     C_R   0.260414 0.139797 0.403391 -0.292552
C17   C     C_R   0.396816 0.091895 0.392264 0.403545
C18   C     C_R   0.406560 0.973296 0.436522 0.399605
C19   C     C_R   0.277615 0.903713 0.481099 -0.242297
C20   C     C_R   0.140082 0.947371 0.482368 0.013206
C21   C     C_R   0.134159 0.073646 0.457201 0.003076
C22   C     C_R   0.001926 0.130478 0.486631 -0.056721
C23   C     C_R   0.001477 0.737644 0.504035 0.787266
C24   C     C_R   0.873336 0.057843 0.521193 -0.220359
C25   C     C_R   0.875859 0.930129 0.527889 -0.215740
C26   C     C_R   0.007684 0.872641 0.508102 -0.084824
C27   C     C_R   0.713574 0.644270 0.365727 -0.208649
C28   C     C_R   0.687626 0.691488 0.286505 -0.360462
C29   C     C_R   0.550368 0.686440 0.277724 0.495895
C30   C     C_R   0.432618 0.649198 0.354572 0.477514
C31   C     C_R   0.459462 0.572753 0.430569 -0.053974
C32   C     C_R   0.608063 0.571439 0.432838 0.154108
C33   C     C_R   0.543848 0.431437 0.563950 -0.158859
C34   C     C_R   0.081877 0.498877 0.327777 0.846129
C35   C     C_R   0.395338 0.428934 0.563406 0.599527
C36   C     C_R   0.874334 0.492946 0.772360 -0.276220
C37   C     C_R   0.130293 0.511564 0.228258 -0.169484
C38   C     C_R   0.924761 0.456744 0.918545 0.391967
C39   C     C_R   0.972782 0.471495 0.823834 0.511791
C40   C     C_R   0.729806 0.507911 0.816718 -0.255032
Cu1   Cu    Cu3+1 0.140660 0.499990 0.500010 1.048217
Cu2   Cu    Cu3+1 0.859340 0.500010 0.499990 0.942428
H1    H     H_    0.039415 0.654527 0.048929 0.161461
H2    H     H_    0.770618 0.099674 0.543149 0.162152
H3    H     H_    0.253205 0.228950 0.368520 0.232133
H4    H     H_    0.288743 0.816772 0.517059 0.221404
H5    H     H_    0.773826 0.876124 0.550388 0.195328
H6    H     H_    0.575490 0.377589 0.617002 0.149067
H7    H     H_    0.819192 0.666456 0.370495 0.218003
H8    H     H_    0.773827 0.738889 0.232650 0.181322
H9    H     H_    0.938715 0.593234 0.210111 0.194168
H10   H     H_    0.242600 0.676979 0.915870 0.170251
H11   H     H_    0.653328 0.511887 0.776877 0.249003
H12   H     H_    0.557003 0.474570 0.172756 0.227069
N1    N     N_R   0.648320 0.501210 0.499140 -0.200572
N2    N     N_R   0.352470 0.501290 0.499110 -0.224708
O1    O     O_R   0.118810 0.319640 0.500010 -0.570471
O2    O     O_R   0.881240 0.319660 0.500000 -0.594302
O3    O     O_R   0.055570 0.499980 0.629840 -0.474997
O4    O     O_R   0.818000 0.500010 0.629830 -0.591842
O5    O     O_R   0.118760 0.680340 0.500000 -0.532387
O6    O     O_R   0.881190 0.680360 0.499990 -0.599860
O7    O     O_R   0.182000 0.499990 0.370170 -0.505253
O8    O     O_R   0.944430 0.500020 0.370160 -0.609550
F1    F     F_    0.817193 0.435854 0.110769 -0.655010
O9    O     O_3   0.516140 0.156849 0.333396 -0.574902
C41   C     C_3   0.548615 0.264984 0.370481 -0.252795
H13   H     H_    0.565460 0.242977 0.438652 0.122938
H14   H     H_    0.463991 0.332486 0.372981 0.188478
H15   H     H_    0.651074 0.309973 0.325940 0.217269
O10   O     O_3   0.533563 0.921793 0.445864 -0.604712
C42   C     C_3   0.657817 0.960614 0.375231 -0.220078
H16   H     H_    0.701403 0.052548 0.385187 0.199779
H17   H     H_    0.638377 0.957804 0.307351 0.198688
H18   H     H_    0.743429 0.896286 0.378592 0.166405
F2    F     F_    0.334020 0.397331 0.230372 -0.709834
F3    F     F_    0.534683 0.729071 0.195692 -0.709459
O11   O     O_3   0.298121 0.696443 0.362262 -0.559003
C43   C     C_3   0.283907 0.786085 0.293562 -0.226290
H19   H     H_    0.285122 0.742969 0.230557 0.197371
H20   H     H_    0.365252 0.865006 0.281982 0.193689
H21   H     H_    0.176332 0.824715 0.315956 0.135214
O12   O     O_3   0.290345 0.360501 0.631143 -0.491125
C44   C     C_3   0.320573 0.234220 0.634565 -0.286227
H22   H     H_    0.221358 0.179577 0.674688 0.193530
H23   H     H_    0.405860 0.216382 0.669547 0.138679
H24   H     H_    0.350480 0.200155 0.566217 0.132642
O13   O     O_3   0.022863 0.428841 0.967325 -0.519190
C45   C     C_3   0.039765 0.300200 0.971266 -0.154869
H25   H     H_    0.090346 0.270522 0.903015 0.163154
H26   H     H_    0.934860 0.246987 0.002700 0.151987
H27   H     H_    0.112849 0.277535 0.014356 0.181910
F4    F     F_    0.114835 0.460033 0.783182 -0.610710
O14   O     O_3   0.503958 0.665768 0.821317 -0.578034
C46   C     C_3   0.568200 0.783099 0.825078 -0.311788
H28   H     H_    0.660370 0.775416 0.855666 0.170164
H29   H     H_    0.487486 0.844254 0.862883 0.158008
H30   H     H_    0.611462 0.827534 0.754925 0.193279

loop_
_geom_bond_atom_site_label_1
_geom_bond_atom_site_label_2
_ccdc_geom_bond_type
C33   N1    A    
C16   C21   A    
C34   C37   S    
Cu1   Cu2   S    
C19   C20   A    
C44   H24   S    
Cu1   O5    S    
C4    C8    A    
Cu2   O2    S    
C19   H4    S    
C17   O9    S    
C28   C29   A    
C44   H23   S    
C5    C11   A    
C3    C7    A    
C14   H9    S    
C30   C31   A    
C18   C19   A    
C23   C26   S    
C15   C37   A    
C12   O3    A    
C28   H8    S    
C23   O6    A    
C39   F4    S    
O12   C44   S    
C3    C38   A    
C8    C9    A    
C31   N2    A    
C12   C36   S    
C9    C10   A    
C25   H5    S    
C32   N1    A    
O13   C45   S    
C15   F2    S    
C35   N2    A    
C1    C22   S    
C21   C22   A    
C9    H10   S    
C11   C15   A    
C6    H12   S    
C42   H18   S    
C38   C39   A    
C46   H30   S    
C41   H13   S    
C36   C40   A    
C8    O14   S    
C24   C25   A    
Cu1   O3    S    
C42   H17   S    
Cu2   O4    S    
C43   H20   S    
C35   O12   S    
O11   C43   S    
C16   C17   A    
C25   C26   A    
C38   O13   S    
C41   H14   S    
C12   O4    A    
C2    C4    A    
Cu1   N2    S    
C29   C30   A    
C1    O1    A    
Cu2   N1    S    
C7    F1    S    
C31   C32   A    
C23   O5    A    
C34   O8    A    
C17   C18   A    
C44   H22   S    
C45   H27   S    
C24   H2    S    
C22   C24   A    
C45   H26   S    
Cu1   O7    S    
Cu2   O8    S    
C13   H1    S    
C18   O10   S    
Cu2   O6    S    
C27   C32   A    
C36   C39   A    
C42   H16   S    
C10   C13   A    
C16   H3    S    
C43   H21   S    
C46   H29   S    
C6    C7    A    
C41   H15   S    
C2    C3    A    
C46   H28   S    
Cu1   O1    S    
O10   C42   S    
C1    O2    A    
C14   C37   A    
C5    C6    A    
C20   C26   A    
C34   O7    A    
C33   C35   A    
O9    C41   S    
O14   C46   S    
C10   C11   A    
C43   H19   S    
C30   O11   S    
C2    C40   A    
C4    C5    A    
C29   F3    S    
C20   C21   A    
C40   H11   S    
C27   C28   A    
C33   H6    S    
C45   H25   S    
C13   C14   A    
C27   H7    S    
