data_mof_unit_53628.cif
_audit_creation_date              2012-10-26T20:20:48-0400
_audit_creation_method            fapswitch 2.2
_symmetry_space_group_name_H-M    P1
_symmetry_Int_Tables_number       1
_space_group_crystal_system       triclinic
_cell_length_a                    8.710901
_cell_length_b                    10.760384
_cell_length_c                    9.527043
_cell_angle_alpha                 90.25041
_cell_angle_beta                  98.310714
_cell_angle_gamma                 90.529131
_cell_volume                      883.564982952

loop_
_atom_site_label
_atom_site_type_symbol
_atom_type_description
_atom_site_fract_x
_atom_site_fract_y
_atom_site_fract_z
_atom_type_partial_charge
C1    C     C_R   0.499998 0.262463 0.499715 0.627030
C2    C     C_R   0.375853 0.063980 0.545670 0.209388
C3    C     C_R   0.500610 0.871355 0.500729 -0.049357
C4    C     C_R   0.499940 0.128631 0.499326 -0.051648
C5    C     C_R   0.399887 0.422729 0.062435 0.378327
C6    C     C_R   0.601944 0.574291 0.939084 0.375758
C7    C     C_R   0.399852 0.425252 0.911283 -0.042985
C8    C     C_R   0.598032 0.576014 0.088168 -0.025048
C9    C     C_3   0.199538 0.267421 0.043557 0.001580
C10   C     C_3   0.051939 0.337326 0.983637 -0.293035
C11   C     C_3   0.939261 0.254478 0.886619 -0.431762
C12   C     C_R   0.500366 0.737534 0.500326 0.627195
C13   C     C_3   0.855329 0.645015 0.941166 -0.005385
C14   C     C_3   0.913511 0.769753 0.007058 -0.255072
C15   C     C_3   0.081408 0.761323 0.079289 -0.422932
C16   C     C_R   0.203609 0.499818 0.463444 0.583979
C17   C     C_R   0.796384 0.499729 0.536504 0.579901
C18   C     C_2   0.037443 0.500051 0.443385 -0.066215
C19   C     C_2   0.962527 0.498777 0.556319 -0.074258
C20   C     C_R   0.624422 0.065475 0.453681 0.205436
C21   C     C_R   0.376199 0.934525 0.546469 0.208173
C22   C     C_R   0.624756 0.935991 0.454379 0.210416
Cl1   Cl    Cl    0.783121 0.148272 0.401032 -0.486679
Cl2   Cl    Cl    0.217626 0.851798 0.599507 -0.485287
Cl3   Cl    Cl    0.783885 0.855143 0.402559 -0.509327
Cl4   Cl    Cl    0.216793 0.144818 0.597417 -0.524224
Cu1   Cu    Cu3+1 0.500000 0.500020 0.640660 1.062465
Cu2   Cu    Cu3+1 0.500000 0.499980 0.359340 1.072757
H1    H     H_    0.976684 0.501647 0.335343 0.116767
H2    H     H_    0.832384 0.307170 0.848579 0.170539
H3    H     H_    0.906832 0.171306 0.944898 0.176077
H4    H     H_    0.925071 0.622026 0.855993 0.169837
H5    H     H_    0.877658 0.569947 0.021643 0.082821
H6    H     H_    0.905744 0.841557 0.922834 0.206225
H7    H     H_    0.839460 0.799043 0.086616 0.207316
H8    H     H_    0.090904 0.692573 0.166733 0.172248
H9    H     H_    0.120903 0.853417 0.124531 0.187416
H10   H     H_    0.158216 0.733157 0.001443 0.165779
H11   H     H_    0.023446 0.496885 0.664182 0.106837
H12   H     H_    0.320841 0.369289 0.839107 0.144638
H13   H     H_    0.673646 0.638260 0.156271 0.149105
H14   H     H_    0.164678 0.192145 0.112295 0.189926
H15   H     H_    0.254726 0.217966 0.961569 0.143648
H16   H     H_    0.993919 0.369928 0.073387 0.179609
H17   H     H_    0.081312 0.419996 0.923229 0.134565
H18   H     H_    0.992617 0.224423 0.793237 0.223060
N1    N     N_R   0.500040 0.500030 0.852080 -0.249548
N2    N     N_R   0.499960 0.499970 0.147920 -0.246310
O1    O     O_R   0.499990 0.319660 0.618740 -0.499180
O2    O     O_3   0.698121 0.655014 0.878119 -0.519150
O3    O     O_R   0.500010 0.680340 0.381260 -0.498691
O4    O     O_R   0.499990 0.319630 0.381170 -0.425079
O5    O     O_R   0.500010 0.680370 0.618830 -0.422476
O6    O     O_R   0.274840 0.500010 0.591370 -0.500585
O7    O     O_R   0.725160 0.499990 0.408630 -0.497511
O8    O     O_R   0.274830 0.499980 0.353800 -0.472341
O9    O     O_R   0.725170 0.500020 0.646200 -0.492335
O10   O     O_3   0.303554 0.346406 0.131062 -0.522399

loop_
_geom_bond_atom_site_label_1
_geom_bond_atom_site_label_2
_ccdc_geom_bond_type
C14   H6    S    
C2    C4    A    
C7    H12   S    
C16   O8    A    
C15   H10   S    
C13   H5    S    
C9    C10   S    
C17   O7    A    
C13   H4    S    
C12   O5    A    
C20   Cl1   S    
C1    C4    S    
C2    C21   A    
Cu1   O5    S    
C1    O4    A    
Cu2   O8    S    
Cu1   O6    S    
C11   H3    S    
C2    Cl4   S    
C18   H1    S    
C13   C14   S    
C6    O2    S    
Cu2   O4    S    
C9    H14   S    
C19   H11   S    
C5    O10   S    
C10   H17   S    
C6    N1    A    
C17   C19   S    
Cu2   O7    S    
C20   C22   A    
C9    O10   S    
C5    N2    A    
C16   O6    A    
C9    H15   S    
C3    C21   A    
C10   C11   S    
C10   H16   S    
C13   O2    S    
C4    C20   A    
C15   H8    S    
C14   H7    S    
C12   O3    A    
C8    H13   S    
C16   C18   S    
C18   C19   D    
Cu1   O9    S    
C21   Cl2   S    
Cu1   N1    S    
Cu1   Cu2   S    
C5    C7    A    
C14   C15   S    
Cu2   N2    S    
C11   H18   S    
C6    C8    A    
C3    C12   S    
C3    C22   A    
Cu2   O3    S    
C1    O1    A    
C15   H9    S    
Cu1   O1    S    
C11   H2    S    
C17   O9    A    
C8    N2    A    
C22   Cl3   S    
C7    N1    A    
