data_mof_unit_53892.cif
_audit_creation_date              2012-12-10T20:30:09-0500
_audit_creation_method            fapswitch 2.2
_symmetry_space_group_name_H-M    P1
_symmetry_Int_Tables_number       1
_space_group_crystal_system       triclinic
_cell_length_a                    9.904735
_cell_length_b                    10.671937
_cell_length_c                    13.295938
_cell_angle_alpha                 88.277203
_cell_angle_beta                  71.636968
_cell_angle_gamma                 88.794502
_cell_volume                      1333.15005205

loop_
_atom_site_label
_atom_site_type_symbol
_atom_type_description
_atom_site_fract_x
_atom_site_fract_y
_atom_site_fract_z
_atom_type_partial_charge
C1    C     C_R   0.496626 0.739409 0.504096 0.960495
C2    C     C_R   0.438352 0.459111 0.981834 0.069742
C3    C     C_R   0.480074 0.442394 0.871859 0.067415
C4    C     C_R   0.546800 0.473609 0.028642 0.093686
C5    C     C_R   0.690153 0.484817 0.964286 0.121466
C6    C     C_R   0.729092 0.443846 0.860703 -0.275808
C7    C     C_R   0.623037 0.404843 0.820219 -0.110422
C8    C     C_R   0.517827 0.475380 0.137081 -0.322829
C9    C     C_R   0.756150 0.549161 0.115783 0.466166
C10   C     C_R   0.378150 0.462333 0.817849 -0.074295
C11   C     C_R   0.408771 0.938821 0.460862 0.117759
C12   C     C_R   0.422988 0.488329 0.702857 0.927881
C13   C     C_R   0.485659 0.870952 0.516081 -0.180087
C14   C     C_R   0.553755 0.933360 0.578650 -0.088886
C15   C     C_R   0.572133 0.061801 0.561666 -0.186009
C16   C     C_R   0.502862 0.127751 0.499522 -0.134170
C17   C     C_R   0.413880 0.066731 0.455261 0.156726
C18   C     C_3   0.416546 0.071478 0.342199 -0.481568
C19   C     C_3   0.411654 0.929620 0.348233 -0.452059
C20   C     C_R   0.909710 0.598727 0.539911 0.190205
C21   C     C_R   0.948301 0.401029 0.462224 0.024807
C22   C     C_R   0.090055 0.400337 0.465475 -0.164781
C23   C     C_R   0.502675 0.260280 0.496816 0.907534
C24   C     C_R   0.052467 0.598524 0.539794 0.189597
C25   C     C_3   0.075055 0.728930 0.496120 -0.469921
C26   C     C_3   0.923171 0.729537 0.494892 -0.445123
C27   C     C_R   0.577543 0.505979 0.297030 0.949687
C28   C     C_R   0.792807 0.527598 0.007086 -0.287752
C29   C     C_R   0.621047 0.510137 0.181796 -0.175060
C30   C     C_R   0.233149 0.466198 0.875996 -0.192233
C31   C     C_R   0.190479 0.461806 0.985914 -0.050444
C32   C     C_R   0.291139 0.465475 0.038850 -0.132451
H1    H     H_    0.638550 0.110430 0.597553 0.274085
H2    H     H_    0.318517 0.115912 0.332835 0.216162
H3    H     H_    0.517941 0.108772 0.287247 0.211065
H4    H     H_    0.311239 0.892907 0.341103 0.209561
H5    H     H_    0.510454 0.883939 0.297217 0.233547
H6    H     H_    0.160405 0.321862 0.434533 0.170986
H7    H     H_    0.093563 0.794798 0.553515 0.222226
H8    H     H_    0.153881 0.733128 0.415456 0.215462
H9    H     H_    0.855641 0.797393 0.550487 0.222842
H10   H     H_    0.840802 0.429808 0.818285 0.137402
H11   H     H_    0.914174 0.735089 0.413653 0.237096
H12   H     H_    0.899333 0.547037 0.955412 0.167469
H13   H     H_    0.415228 0.445275 0.187882 0.181025
H14   H     H_    0.152694 0.474752 0.836683 0.155195
H15   H     H_    0.250445 0.475851 0.123537 0.165150
H16   H     H_    0.078660 0.461827 0.030162 0.193434
N1    N     N_R   0.856940 0.500860 0.500710 -0.142910
N2    N     N_R   0.142580 0.500820 0.500710 -0.118285
O1    O     O_R   0.385310 0.683210 0.499990 -0.625242
O2    O     O_R   0.614650 0.683240 0.500000 -0.594038
O3    O     O_R   0.328390 0.499940 0.653610 -0.620388
O4    O     O_R   0.557730 0.499980 0.653620 -0.612963
O5    O     O_R   0.385350 0.316760 0.500000 -0.626494
O6    O     O_R   0.614690 0.316790 0.500010 -0.609748
O7    O     O_R   0.442270 0.500020 0.346380 -0.645514
O8    O     O_R   0.671610 0.500060 0.346390 -0.508070
Zn1   Zn    Zn3+2 0.346870 0.499980 0.499990 0.960741
Zn2   Zn    Zn3+2 0.653130 0.500020 0.500010 1.050487
S1    S     S_3+6 0.872439 0.636484 0.163681 -0.003484
O9    O     O_2   0.949943 0.550640 0.219067 -0.308875
O10   O     O_2   0.978931 0.704074 0.073144 -0.318964
O11   O     O_3   0.776715 0.742174 0.249809 -0.591383
H17   H     H_    0.846374 0.804807 0.255117 0.374028
C33   C     C_2   0.906763 0.294252 0.411481 0.970611
O12   O     O_2   0.859260 0.312013 0.337874 -0.587961
O13   O     O_R   0.930510 0.172058 0.443566 -0.796602
H18   H     H_    0.899255 0.106296 0.402332 0.336355
C34   C     C_2   0.651465 0.297179 0.747804 0.975465
O14   O     O_2   0.553937 0.226497 0.753459 -0.615003
O15   O     O_R   0.786315 0.269404 0.677809 -0.747954
H19   H     H_    0.859864 0.335153 0.673388 0.287698
C35   C     C_2   0.599801 0.870768 0.664265 0.925814
O16   O     O_2   0.550816 0.769500 0.702345 -0.627788
O17   O     O_R   0.694413 0.930940 0.705382 -0.765187
H20   H     H_    0.716484 0.879808 0.763925 0.353684

loop_
_geom_bond_atom_site_label_1
_geom_bond_atom_site_label_2
_ccdc_geom_bond_type
C33   O13   S    
O5    Zn1   S    
C21   C33   S    
C27   C29   S    
C4    C8    A    
C7    C34   S    
C21   N1    A    
O3    Zn1   S    
C23   O6    A    
O4    Zn2   S    
C11   C19   S    
N1    Zn2   S    
C35   O17   S    
C9    S1    S    
N2    Zn1   S    
C14   C35   S    
C3    C7    A    
C19   H4    S    
C25   H8    S    
C5    C6    A    
O7    Zn1   S    
O8    Zn2   S    
C15   C16   A    
C22   H6    S    
C2    C32   A    
C18   C19   S    
S1    O10   D    
C8    H13   S    
O2    Zn2   S    
O13   H18   S    
C20   C24   A    
C16   C17   A    
C34   O14   D    
C19   H5    S    
C18   H3    S    
C12   O3    A    
C9    C29   A    
C22   N2    A    
C33   O12   D    
C21   C22   A    
C26   H11   S    
C24   N2    A    
C35   O16   D    
O17   H20   S    
C27   O7    A    
O15   H19   S    
C25   C26   S    
C28   H12   S    
O6    Zn2   S    
S1    O11   S    
C2    C4    A    
C20   N1    A    
C5    C28   A    
C18   H2    S    
C10   C30   A    
C31   C32   A    
C17   C18   S    
C24   C25   S    
C1    O1    A    
C10   C12   S    
C16   C23   S    
C31   H16   S    
C32   H15   S    
C1    C13   S    
C8    C29   A    
C11   C17   A    
C30   H14   S    
C4    C5    A    
C27   O8    A    
C23   O5    A    
C6    C7    A    
O11   H17   S    
C2    C3    A    
C3    C10   A    
C25   H7    S    
C11   C13   A    
C30   C31   A    
C20   C26   S    
S1    O9    D    
C1    O2    A    
O1    Zn1   S    
C26   H9    S    
C6    H10   S    
C14   C15   A    
C34   O15   S    
C13   C14   A    
C15   H1    S    
C12   O4    A    
C9    C28   A    
