data_mof_unit_53312.cif
_audit_creation_date              2012-12-11T17:43:35-0500
_audit_creation_method            fapswitch 2.2
_symmetry_space_group_name_H-M    P1
_symmetry_Int_Tables_number       1
_space_group_crystal_system       triclinic
_cell_length_a                    15.158063
_cell_length_b                    15.033281
_cell_length_c                    16.897894
_cell_angle_alpha                 108.553285
_cell_angle_beta                  106.188171
_cell_angle_gamma                 109.774039
_cell_volume                      3096.22766674

loop_
_atom_site_label
_atom_site_type_symbol
_atom_type_description
_atom_site_fract_x
_atom_site_fract_y
_atom_site_fract_z
_atom_type_partial_charge
C1    C     C_R   0.084587 0.289401 0.080140 -0.110329
C2    C     C_R   0.087267 0.118050 0.127948 -0.215114
C3    C     C_R   0.000096 0.928232 0.073417 0.052702
C4    C     C_R   0.992785 0.114362 0.083854 0.051242
C5    C     C_R   0.093147 0.026572 0.123203 0.065390
C6    C     C_R   0.899953 0.024326 0.058479 0.061444
C7    C     C_R   0.709317 0.949528 0.963310 -0.276401
C8    C     C_R   0.215937 0.018579 0.250286 -0.241002
C9    C     C_R   0.607702 0.028354 0.016320 0.064780
C10   C     C_R   0.402471 0.113779 0.301828 0.069606
C11   C     C_R   0.622500 0.686633 0.334202 0.033898
C12   C     C_R   0.911416 0.724605 0.974743 -0.117637
C13   C     C_R   0.487869 0.326245 0.663668 0.024935
C14   C     C_R   0.588740 0.652646 0.238829 -0.263224
C15   C     C_R   0.485473 0.341747 0.748921 -0.255075
C16   C     C_R   0.935307 0.518352 0.746039 -0.137507
C17   C     C_R   0.064852 0.549776 0.265491 -0.113829
C18   C     C_R   0.518366 0.546531 0.175723 0.075399
C19   C     C_R   0.471848 0.426118 0.798959 0.064404
C20   C     C_R   0.481545 0.473724 0.208352 -0.281059
C21   C     C_R   0.455562 0.492450 0.760411 -0.266622
C22   C     C_R   0.509745 0.506925 0.303273 0.311354
C23   C     C_R   0.025942 0.578704 0.743773 0.059243
C24   C     C_R   0.453502 0.475839 0.673244 0.324758
C25   C     C_R   0.581666 0.614460 0.367678 0.274751
C26   C     C_R   0.470109 0.392141 0.623902 0.264695
C27   C     C_R   0.566496 0.478289 0.052415 -0.234300
C28   C     C_R   0.409042 0.475866 0.918315 -0.239928
C29   C     C_R   0.557744 0.449481 0.962139 0.073194
C30   C     C_R   0.420258 0.507642 0.009449 0.066500
C31   C     C_R   0.479272 0.448879 0.893673 0.067620
C32   C     C_R   0.498756 0.508337 0.077294 0.057178
C33   C     C_R   0.613850 0.950089 0.948509 0.073472
C34   C     C_R   0.973346 0.536771 0.274745 0.059727
C35   C     C_R   0.317309 0.051886 0.312436 0.050800
C36   C     C_R   0.964553 0.582469 0.361269 0.125870
C37   C     C_R   0.034258 0.620688 0.677139 0.124691
C38   C     C_R   0.139282 0.695226 0.607147 -0.210244
C39   C     C_R   0.859674 0.564513 0.445943 -0.209281
C40   C     C_R   0.775888 0.202089 0.813391 -0.120845
C41   C     C_R   0.282615 0.783665 0.176584 -0.133060
C42   C     C_R   0.132202 0.676873 0.681177 -0.164940
C43   C     C_R   0.866670 0.550131 0.362874 -0.166783
C44   C     C_R   0.943892 0.595195 0.603232 -0.270843
C45   C     C_R   0.758625 0.194561 0.726080 0.054761
C46   C     C_R   0.054887 0.645420 0.444962 -0.267303
C47   C     C_R   0.950259 0.608325 0.526830 0.184165
C48   C     C_R   0.048658 0.654176 0.527330 0.181596
C49   C     C_R   0.715490 0.095741 0.641066 0.128690
C50   C     C_R   0.448688 0.846777 0.320645 0.123640
C51   C     C_R   0.608546 0.010673 0.388717 -0.201864
C52   C     C_R   0.600439 0.906460 0.559400 -0.226857
C53   C     C_R   0.514193 0.932291 0.312922 -0.176668
C54   C     C_R   0.669945 0.997546 0.641637 -0.161199
C55   C     C_R   0.485843 0.832407 0.399043 -0.261658
C56   C     C_R   0.338693 0.778481 0.254066 0.073675
C57   C     C_R   0.705679 0.098025 0.556615 -0.253538
C58   C     C_R   0.575405 0.913281 0.476394 0.191528
C59   C     C_R   0.633337 0.006915 0.473514 0.185041
C60   C     C_R   0.696869 0.104757 0.098226 -0.257759
C61   C     C_R   0.385098 0.131004 0.223615 -0.253546
C62   C     C_R   0.792342 0.104299 0.113482 0.055319
C63   C     C_R   0.283899 0.094751 0.159725 0.044640
C64   C     C_R   0.294120 0.578280 0.989712 0.314167
C65   C     C_R   0.699253 0.402602 0.994727 0.289127
C66   C     C_R   0.799526 0.026611 0.045147 0.040572
C67   C     C_R   0.341593 0.528262 0.027415 0.035033
C68   C     C_R   0.198342 0.042547 0.175435 0.027059
C69   C     C_R   0.781851 0.296084 0.734262 -0.114459
C70   C     C_R   0.273994 0.686863 0.251780 -0.136589
C71   C     C_R   0.282209 0.476092 0.061913 -0.186893
C72   C     C_R   0.707612 0.505890 0.924913 -0.199120
C73   C     C_R   0.107342 0.603217 0.822998 -0.126402
C74   C     C_R   0.891479 0.465848 0.187894 -0.143389
C75   C     C_R   0.912602 0.204020 0.001800 -0.146900
C76   C     C_R   0.085385 0.807358 0.048741 -0.130569
C77   C     C_R   0.995853 0.198261 0.055543 0.069362
C78   C     C_R   0.644578 0.442056 0.950287 0.025300
C79   C     C_R   0.999065 0.824213 0.036485 0.060159
C80   C     C_3   0.614654 0.649472 0.470337 -1.038967
C81   C     C_3   0.469121 0.375314 0.530537 -1.015711
C82   C     C_1   0.703843 0.794255 0.395743 0.080921
C83   C     C_1   0.514067 0.245315 0.621533 0.072882
C84   C     C_3   0.464637 0.426041 0.334521 -1.019313
C85   C     C_3   0.435381 0.549179 0.634746 -1.012621
C86   C     C_1   0.523198 0.870041 0.863267 0.030794
C87   C     C_1   0.331126 0.021500 0.386026 0.068860
C88   C     C_1   0.510716 0.031497 0.003545 0.041680
C89   C     C_R   0.904562 0.930628 0.050600 -0.239847
C90   C     C_1   0.507323 0.168937 0.373556 0.024083
C91   C     C_1   0.881391 0.183897 0.200060 0.052919
C92   C     C_1   0.269854 0.115457 0.080456 0.032407
C93   C     C_3   0.347312 0.669620 0.972983 -1.064930
C94   C     C_3   0.652509 0.302256 0.002713 -1.048225
H1    H     H_    0.162603 0.319093 0.130705 0.088979
H2    H     H_    0.344580 0.471249 0.865911 0.143906
H3    H     H_    0.130894 0.676437 0.445731 0.119717
H4    H     H_    0.867810 0.555244 0.599988 0.118665
H5    H     H_    0.795174 0.506390 0.299946 0.116292
H6    H     H_    0.203732 0.700616 0.738134 0.126113
H7    H     H_    0.215350 0.732159 0.608939 0.135611
H8    H     H_    0.783547 0.531701 0.445043 0.130455
H9    H     H_    0.856961 0.498120 0.702916 0.093857
H10   H     H_    0.143642 0.599220 0.318592 0.094511
H11   H     H_    0.744624 0.172227 0.555218 0.125870
H12   H     H_    0.831088 0.707517 0.946841 0.094016
H13   H     H_    0.439978 0.764843 0.405665 0.118560
H14   H     H_    0.679462 0.991318 0.705076 0.119722
H15   H     H_    0.490291 0.942219 0.251085 0.124976
H16   H     H_    0.656723 0.078527 0.383471 0.139547
H17   H     H_    0.558811 0.833543 0.561771 0.136063
H18   H     H_    0.691879 0.164810 0.150539 0.138367
H19   H     H_    0.450722 0.176422 0.214233 0.142476
H20   H     H_    0.766507 0.139604 0.833478 0.096599
H21   H     H_    0.313919 0.836915 0.149658 0.095120
H22   H     H_    0.776484 0.319735 0.679855 0.103271
H23   H     H_    0.713822 0.889740 0.910396 0.140119
H24   H     H_    0.295510 0.646971 0.290787 0.091672
H25   H     H_    0.295294 0.429099 0.095986 0.126444
H26   H     H_    0.686875 0.543782 0.883397 0.126113
H27   H     H_    0.186014 0.663905 0.850939 0.110115
H28   H     H_    0.809963 0.439192 0.169567 0.116077
H29   H     H_    0.831197 0.153565 0.977923 0.113393
H30   H     H_    0.166566 0.863103 0.086321 0.119802
H31   H     H_    0.832951 0.859417 0.025118 0.129350
H32   H     H_    0.158815 0.191740 0.162951 0.124141
H33   H     H_    0.671134 0.734901 0.513883 0.260638
H34   H     H_    0.150530 0.976568 0.261568 0.143868
H35   H     H_    0.545608 0.635421 0.485117 0.252148
H36   H     H_    0.651630 0.603634 0.492126 0.254586
H37   H     H_    0.479182 0.305635 0.497586 0.261379
H38   H     H_    0.393438 0.361700 0.482604 0.263332
H39   H     H_    0.533001 0.446239 0.538384 0.256637
H40   H     H_    0.527720 0.417248 0.378261 0.262802
H41   H     H_    0.423213 0.451456 0.374511 0.259306
H42   H     H_    0.407784 0.346857 0.274935 0.251097
H43   H     H_    0.503447 0.591181 0.624016 0.254865
H44   H     H_    0.364609 0.503006 0.567818 0.256227
H45   H     H_    0.621255 0.707744 0.213578 0.146034
H46   H     H_    0.423853 0.609990 0.682316 0.253733
H47   H     H_    0.432707 0.709008 0.015360 0.260535
H48   H     H_    0.331627 0.640652 0.898909 0.247433
H49   H     H_    0.320279 0.729568 0.993617 0.249670
H50   H     H_    0.625645 0.315833 0.058064 0.246829
H51   H     H_    0.585218 0.239501 0.935969 0.261420
H52   H     H_    0.710484 0.273453 0.018825 0.255907
H53   H     H_    0.497334 0.289534 0.777770 0.148408
H54   H     H_    0.431295 0.390498 0.159338 0.144594
H55   H     H_    0.446427 0.558833 0.799377 0.146041
H56   H     H_    0.631208 0.484994 0.106300 0.134723
N1    N     N_R   0.055660 0.348550 0.045620 -0.040131
N2    N     N_R   0.185200 0.638170 0.176300 -0.040273
N3    N     N_R   0.201680 0.494570 0.045620 -0.055574
N4    N     N_R   0.798320 0.505430 0.954380 -0.053034
N5    N     N_R   0.068420 0.560530 0.871650 -0.038969
N6    N     N_R   0.931580 0.439470 0.128350 -0.039632
N7    N     N_R   0.948070 0.295860 0.997670 -0.042651
N8    N     N_R   0.051930 0.704140 0.002330 -0.044272
N9    N     N_1   0.769591 0.880322 0.444914 -0.080090
N10   N     N_1   0.536078 0.180872 0.588766 -0.076136
N11   N     N_1   0.450366 0.806095 0.795048 -0.105791
N12   N     N_R   0.944340 0.651450 0.954380 -0.039877
N13   N     N_1   0.340821 0.995411 0.444010 -0.076546
N14   N     N_1   0.433039 0.034040 0.993375 -0.082188
N15   N     N_1   0.591484 0.215869 0.431501 -0.103683
N16   N     N_1   0.952734 0.247865 0.269372 -0.081011
N17   N     N_1   0.258620 0.132237 0.017067 -0.078162
N18   N     N_R   0.960830 0.507850 0.823700 -0.041054
N19   N     N_R   0.039170 0.492150 0.176300 -0.041344
N20   N     N_R   0.811290 0.303410 0.871650 -0.039650
N21   N     N_R   0.188710 0.696590 0.128350 -0.041749
N22   N     N_R   0.205200 0.552990 0.997670 -0.056326
N23   N     N_R   0.794800 0.447010 0.002330 -0.055467
N24   N     N_R   0.814800 0.361830 0.823700 -0.041751
Ni1   Ni    Ni4+2 0.119340 0.493420 0.109960 0.211518
Ni2   Ni    Ni4+2 0.880660 0.506580 0.890040 0.214120
Ni3   Ni    Ni4+2 0.872590 0.372590 0.000000 0.213159
Ni4   Ni    Ni4+2 0.127410 0.627410 0.000000 0.210750

loop_
_geom_bond_atom_site_label_1
_geom_bond_atom_site_label_2
_ccdc_geom_bond_type
C28   H2    S    
C94   H52   S    
C87   N13   T    
C69   H22   S    
C26   C81   S    
C27   C29   A    
C25   C80   S    
C1    C77   A    
C7    H23   S    
C91   N16   T    
C57   H11   S    
C76   C79   A    
C19   C31   S    
C40   N20   A    
C84   H41   S    
C89   H31   S    
C15   C19   A    
C41   N21   A    
C84   H40   S    
C6    C66   S    
C75   H29   S    
N1    N7    A    
C19   C21   A    
C17   H10   S    
C43   H5    S    
C64   C93   S    
C38   C42   A    
C38   H7    S    
C9    C88   S    
C11   C14   A    
C17   N19   A    
C57   C59   A    
N12   Ni2   S    
C11   C25   A    
N22   Ni4   S    
C49   C54   A    
C71   N3    A    
C12   C79   A    
N6    N19   A    
C56   C70   A    
C49   C57   A    
C60   C62   A    
C37   C42   A    
C61   C63   A    
C14   C18   A    
C15   H53   S    
C72   C78   A    
N1    Ni1   S    
N2    Ni1   S    
C35   C87   S    
C8    H34   S    
C40   H20   S    
C29   C78   S    
C22   C25   A    
C63   C92   S    
C20   H54   S    
N21   Ni4   S    
C36   C46   A    
C10   C35   A    
C65   C78   A    
N23   Ni3   S    
C24   C85   S    
C67   C71   A    
C30   C67   S    
C93   H49   S    
N5    Ni4   S    
C75   N7    A    
C94   H51   S    
C3    C79   S    
C9    C33   A    
C7    C33   A    
C72   H26   S    
C44   H4    S    
C23   C73   A    
C5    C68   S    
C52   C54   A    
N4    Ni2   S    
C11   C82   S    
C40   C45   A    
C46   C48   A    
C50   C53   A    
C72   N4    A    
C62   C66   A    
N20   Ni3   S    
C45   C69   A    
C76   H30   S    
C64   C67   A    
C80   H36   S    
C4    C6    A    
N2    N21   A    
C81   H38   S    
C39   C43   A    
C52   H17   S    
C58   C59   A    
C88   N14   T    
C50   C56   S    
C12   H12   S    
C83   N10   T    
C55   H13   S    
C51   C53   A    
C8    C35   A    
C22   C84   S    
C64   N22   A    
C2    C4    A    
C33   C86   S    
C41   C56   A    
C60   H18   S    
C42   H6    S    
N6    Ni3   S    
C16   H9    S    
C47   C48   A    
C45   C49   S    
N5    N18   A    
C1    H1    S    
C76   N8    A    
C62   C91   S    
C73   N5    A    
N19   Ni1   S    
C74   N6    A    
C86   N11   T    
N7    Ni3   S    
C75   C77   A    
C85   H46   S    
C52   C58   A    
C34   C74   A    
C2    H32   S    
C65   C94   S    
C74   H28   S    
C46   H3    S    
C20   C22   A    
C8    C68   A    
C16   C23   A    
C21   H55   S    
C13   C15   A    
C90   N15   T    
C61   H19   S    
C13   C26   A    
C21   C24   A    
C10   C61   A    
C18   C32   S    
C17   C34   A    
C41   H21   S    
C85   H43   S    
C93   H47   S    
C39   H8    S    
C39   C47   A    
N20   N24   A    
C53   H15   S    
N18   Ni2   S    
C70   N2    A    
C13   C83   S    
C63   C68   A    
C84   H42   S    
C80   H35   S    
N4    N23   A    
C65   N23   A    
C27   C32   A    
C38   C48   A    
C28   C31   A    
C24   C26   A    
C3    C5    A    
C44   C47   A    
C81   H39   S    
C80   H33   S    
C71   H25   S    
C51   H16   S    
C6    C89   A    
N3    Ni1   S    
C73   H27   S    
C50   C55   A    
C54   H14   S    
C3    C89   A    
C9    C60   A    
C94   H50   S    
C37   C44   A    
C28   C30   A    
N8    Ni4   S    
C4    C77   S    
C29   C31   A    
C23   C37   S    
C7    C66   A    
C30   C32   A    
C82   N9    T    
C92   N17   T    
C16   N18   A    
N3    N22   A    
C34   C36   S    
C1    N1    A    
C18   C20   A    
N24   Ni2   S    
C81   H37   S    
N8    N12   A    
C12   N12   A    
C2    C5    A    
C70   H24   S    
C51   C59   A    
C14   H45   S    
C10   C90   S    
C69   N24   A    
C55   C58   A    
C36   C43   A    
C85   H44   S    
C27   H56   S    
C93   H48   S    
