data_mof_unit_30229.cif
_audit_creation_date              2013-03-05T15:40:08-0500
_audit_creation_method            fapswitch 2.2
_symmetry_space_group_name_H-M    P1
_symmetry_Int_Tables_number       1
_space_group_crystal_system       triclinic
_cell_length_a                    27.979789
_cell_length_b                    18.733386
_cell_length_c                    16.846398
_cell_angle_alpha                 89.972742
_cell_angle_beta                  62.645072
_cell_angle_gamma                 89.966071
_cell_volume                      7842.7301407

loop_
_atom_site_label
_atom_site_type_symbol
_atom_site_description
_atom_site_fract_x
_atom_site_fract_y
_atom_site_fract_z
_atom_type_partial_charge
O1    O     O_R   0.255040 0.869590 0.478480 -0.596050
O2    O     O_R   0.744960 0.130410 0.521520 -0.593066
O3    O     O_R   0.744960 0.869590 0.521520 -0.592786
O4    O     O_R   0.255040 0.130410 0.478480 -0.596478
O5    O     O_R   0.755040 0.369590 0.478480 -0.595981
O6    O     O_R   0.244960 0.630410 0.521520 -0.592999
O7    O     O_R   0.244960 0.369590 0.521520 -0.592777
O8    O     O_R   0.755040 0.630410 0.478480 -0.596470
O9    O     O_R   0.182050 0.796550 0.624440 -0.593005
O10   O     O_R   0.817950 0.203450 0.375560 -0.552830
O11   O     O_R   0.817950 0.796550 0.375560 -0.551639
O12   O     O_R   0.182050 0.203450 0.624440 -0.593431
O13   O     O_R   0.682050 0.296550 0.624440 -0.592939
O14   O     O_R   0.317950 0.703450 0.375560 -0.552767
O15   O     O_R   0.317950 0.296550 0.375560 -0.551621
O16   O     O_R   0.682050 0.703450 0.624440 -0.593420
Cu1   Cu    Cu3+1 0.209920 0.785290 0.495070 1.024586
Cu2   Cu    Cu3+1 0.790080 0.214710 0.504930 1.025702
Cu3   Cu    Cu3+1 0.790080 0.785290 0.504930 1.026957
Cu4   Cu    Cu3+1 0.209920 0.214710 0.495070 1.021982
Cu5   Cu    Cu3+1 0.709920 0.285290 0.495070 1.025146
Cu6   Cu    Cu3+1 0.290080 0.714710 0.504930 1.025715
Cu7   Cu    Cu3+1 0.290080 0.285290 0.504930 1.026954
Cu8   Cu    Cu3+1 0.709920 0.714710 0.495070 1.022028
C1    C     C_R   0.295524 0.729303 0.329412 0.881047
C2    C     C_R   0.704987 0.271699 0.670342 0.790635
C3    C     C_R   0.705038 0.728206 0.670346 0.790616
C4    C     C_R   0.295478 0.270780 0.329387 0.880058
C5    C     C_R   0.795519 0.229294 0.329415 0.880651
C6    C     C_R   0.204987 0.771700 0.670342 0.790664
C7    C     C_R   0.205038 0.228206 0.670346 0.790601
C8    C     C_R   0.795478 0.770780 0.329387 0.879990
O17   O     O_R   0.250530 0.763330 0.367210 -0.541304
O18   O     O_R   0.749470 0.236670 0.632790 -0.596934
O19   O     O_R   0.749470 0.763330 0.632790 -0.595818
O20   O     O_R   0.250530 0.236670 0.367210 -0.543513
O21   O     O_R   0.750530 0.263330 0.367210 -0.540933
O22   O     O_R   0.249470 0.736670 0.632790 -0.596930
O23   O     O_R   0.249470 0.263330 0.632790 -0.595822
O24   O     O_R   0.750530 0.736670 0.367210 -0.543492
O25   O     O_R   0.177260 0.690030 0.513710 -0.568604
O26   O     O_R   0.822740 0.309970 0.486290 -0.553624
O27   O     O_R   0.822740 0.690030 0.486290 -0.552095
O28   O     O_R   0.177260 0.309970 0.513710 -0.571043
O29   O     O_R   0.677260 0.190030 0.513710 -0.568124
O30   O     O_R   0.322740 0.809970 0.486290 -0.553632
O31   O     O_R   0.322740 0.190030 0.486290 -0.552093
O32   O     O_R   0.677260 0.809970 0.513710 -0.571003
C9    C     C_R   0.200415 0.631104 0.513628 0.819684
C10   C     C_R   0.803596 0.368236 0.471385 0.819652
C11   C     C_R   0.803605 0.631781 0.471345 0.820708
C12   C     C_R   0.200378 0.368900 0.513745 0.817949
C13   C     C_R   0.700425 0.131106 0.513592 0.819403
C14   C     C_R   0.303595 0.868234 0.471384 0.819707
C15   C     C_R   0.303603 0.131779 0.471346 0.820725
C16   C     C_R   0.700382 0.868901 0.513727 0.817910
H1    H     H_    0.563204 0.756101 0.431517 0.188316
H2    H     H_    0.484470 0.244496 0.412354 0.197258
H3    H     H_    0.483990 0.755341 0.414681 0.196753
H4    H     H_    0.563537 0.243878 0.429372 0.190384
H5    H     H_    0.063208 0.256102 0.431519 0.188299
H6    H     H_    0.984454 0.744518 0.412503 0.197222
H7    H     H_    0.983994 0.255346 0.414679 0.196750
H8    H     H_    0.063544 0.743876 0.429514 0.190232
C17   C     C_R   0.067583 0.628794 0.442256 -0.008774
C18   C     C_R   0.970774 0.370452 0.426087 -0.011991
C19   C     C_R   0.970921 0.629499 0.425209 -0.010448
C20   C     C_R   0.067445 0.371247 0.443013 -0.007549
C21   C     C_R   0.567550 0.128801 0.442278 -0.008809
C22   C     C_R   0.470769 0.870446 0.426086 -0.011987
C23   C     C_R   0.470915 0.129486 0.425164 -0.010378
C24   C     C_R   0.567441 0.871248 0.443005 -0.007545
C25   C     C_R   0.045828 0.692766 0.429543 -0.164189
C26   C     C_R   0.998529 0.306810 0.422032 -0.161098
C27   C     C_R   0.998834 0.693094 0.420471 -0.165180
C28   C     C_R   0.045548 0.307189 0.431034 -0.155416
C29   C     C_R   0.545816 0.192761 0.429475 -0.164608
C30   C     C_R   0.498525 0.806806 0.422032 -0.161105
C31   C     C_R   0.498833 0.193078 0.420381 -0.165248
C32   C     C_R   0.545544 0.807189 0.431032 -0.155425
C33   C     C_R   0.991034 0.565017 0.441886 0.024220
C34   C     C_R   0.038980 0.435197 0.451475 0.024694
C35   C     C_R   0.039053 0.564874 0.451081 0.024860
C36   C     C_R   0.990959 0.435008 0.442311 0.023586
C37   C     C_R   0.491022 0.065011 0.441875 0.024243
C38   C     C_R   0.538975 0.935197 0.451471 0.024690
C39   C     C_R   0.539034 0.064875 0.451089 0.024903
C40   C     C_R   0.490952 0.935003 0.442310 0.023589
C41   C     C_R   0.465868 0.000001 0.441383 -0.049543
C42   C     C_R   0.561455 0.000055 0.460157 -0.049847
C43   C     C_R   0.965876 0.500008 0.441389 -0.049522
C44   C     C_R   0.061463 0.500052 0.460164 -0.049836
C45   C     C_R   0.391839 0.934465 0.435164 -0.023939
C46   C     C_R   0.632790 0.065114 0.475781 -0.020412
C47   C     C_R   0.632745 0.935003 0.476000 -0.022153
C48   C     C_R   0.391867 0.065484 0.434896 -0.023098
C49   C     C_R   0.891844 0.434473 0.435171 -0.023924
C50   C     C_R   0.132784 0.565103 0.475827 -0.020439
C51   C     C_R   0.132739 0.434997 0.476035 -0.022167
C52   C     C_R   0.891872 0.565495 0.434914 -0.023095
C53   C     C_R   0.336828 0.934565 0.451585 -0.072006
C54   C     C_R   0.675077 0.064863 0.502011 -0.072719
C55   C     C_R   0.675031 0.935201 0.502180 -0.072985
C56   C     C_R   0.336839 0.065424 0.451484 -0.071785
C57   C     C_R   0.836833 0.434570 0.451588 -0.072020
C58   C     C_R   0.175059 0.564855 0.502080 -0.072417
C59   C     C_R   0.175020 0.435196 0.502225 -0.072946
C60   C     C_R   0.836845 0.565430 0.451487 -0.071776
C61   C     C_R   0.310694 0.000007 0.459816 -0.262738
C62   C     C_R   0.693684 0.000020 0.517630 -0.266627
C63   C     C_R   0.810701 0.500012 0.459812 -0.262757
C64   C     C_R   0.193662 0.500013 0.517706 -0.266635
H9    H     H_    0.268544 0.000026 0.475597 0.183330
H10   H     H_    0.724756 0.999999 0.539058 0.179419
H11   H     H_    0.768553 0.500030 0.475585 0.183329
H12   H     H_    0.224730 0.499993 0.539145 0.179378
C65   C     C_R   0.416072 0.999983 0.438616 -0.015658
C66   C     C_R   0.607664 0.000069 0.474490 -0.008271
C67   C     C_R   0.916078 0.499993 0.438626 -0.015655
C68   C     C_R   0.107659 0.500061 0.474527 -0.008288
C69   C     C_R   0.618667 0.873923 0.440878 0.284347
C70   C     C_R   0.424514 0.128020 0.411288 0.286056
C71   C     C_R   0.424456 0.871868 0.411962 0.285190
C72   C     C_R   0.618685 0.126190 0.440557 0.289882
C73   C     C_R   0.118668 0.373922 0.440891 0.284353
C74   C     C_R   0.924519 0.628038 0.411332 0.286044
C75   C     C_R   0.924461 0.371876 0.411966 0.285167
C76   C     C_R   0.118731 0.626156 0.440499 0.289719
H13   H     H_    0.151345 0.743646 0.076945 0.148768
H14   H     H_    0.850648 0.260280 0.922103 0.134508
H15   H     H_    0.785725 0.871070 0.989947 0.138767
H16   H     H_    0.216125 0.124971 0.008871 0.133166
H17   H     H_    0.651341 0.243656 0.076951 0.148721
H18   H     H_    0.350651 0.760294 0.922105 0.134515
H19   H     H_    0.285724 0.371072 0.989947 0.138768
H20   H     H_    0.716126 0.624969 0.008870 0.133163
C77   C     C_R   0.221728 0.768489 0.952531 0.102879
C78   C     C_R   0.780249 0.235621 0.046463 0.095248
C79   C     C_R   0.780692 0.765174 0.045380 0.114814
C80   C     C_R   0.221438 0.230779 0.953152 0.105766
C81   C     C_R   0.721726 0.268486 0.952533 0.102918
C82   C     C_R   0.280252 0.735623 0.046460 0.095179
C83   C     C_R   0.280691 0.265176 0.045381 0.114815
C84   C     C_R   0.721438 0.730777 0.953152 0.105765
C85   C     C_R   0.278213 0.772533 0.909838 -0.171852
C86   C     C_R   0.723766 0.231657 0.089226 -0.143579
C87   C     C_R   0.760053 0.696079 0.050669 -0.158153
C88   C     C_R   0.242018 0.299874 0.947949 -0.167381
C89   C     C_R   0.778211 0.272523 0.909838 -0.171856
C90   C     C_R   0.223769 0.731652 0.089221 -0.143514
C91   C     C_R   0.260052 0.196080 0.050670 -0.158144
C92   C     C_R   0.742019 0.799872 0.947948 -0.167384
H21   H     H_    0.299976 0.789513 0.840835 0.131960
H22   H     H_    0.702020 0.214658 0.158237 0.188866
H23   H     H_    0.767189 0.654995 0.089233 0.134143
H24   H     H_    0.234851 0.340963 0.909420 0.135646
H25   H     H_    0.799975 0.289499 0.840833 0.131954
H26   H     H_    0.202025 0.714645 0.158228 0.189073
H27   H     H_    0.267188 0.154997 0.089234 0.134146
H28   H     H_    0.734852 0.840961 0.909419 0.135649
C93   C     C_R   0.307190 0.756137 0.956317 -0.171949
C94   C     C_R   0.694792 0.247982 0.042726 -0.171332
C95   C     C_R   0.730757 0.679021 0.004927 -0.162612
C96   C     C_R   0.271247 0.316951 0.993752 -0.147310
C97   C     C_R   0.807187 0.256128 0.956317 -0.171970
C98   C     C_R   0.194795 0.747978 0.042722 -0.171295
C99   C     C_R   0.230756 0.179023 0.004928 -0.162609
C100  C     C_R   0.771249 0.816949 0.993751 -0.147313
C101  C     C_R   0.144975 0.829998 0.943604 -0.192551
C102  C     C_R   0.856217 0.172249 0.055683 -0.191247
C103  C     C_R   0.856540 0.827906 0.055459 -0.199578
C104  C     C_R   0.144860 0.169605 0.943673 -0.186305
C105  C     C_R   0.644975 0.329997 0.943604 -0.192562
C106  C     C_R   0.356219 0.672251 0.055682 -0.191238
C107  C     C_R   0.356539 0.327908 0.055459 -0.199566
C108  C     C_R   0.644861 0.669604 0.943673 -0.186305
H29   H     H_    0.131650 0.848782 0.011317 0.153150
H30   H     H_    0.869342 0.153385 0.988054 0.151169
H31   H     H_    0.870777 0.845234 0.986948 0.149482
H32   H     H_    0.130576 0.152345 0.012223 0.156459
H33   H     H_    0.631649 0.348782 0.011317 0.153133
H34   H     H_    0.369343 0.653385 0.988054 0.151175
H35   H     H_    0.370776 0.345236 0.986949 0.149486
H36   H     H_    0.630577 0.652343 0.012223 0.156458
C109  C     C_R   0.117946 0.851914 0.895104 -0.058505
C110  C     C_R   0.882691 0.149134 0.104585 -0.069294
C111  C     C_R   0.882785 0.850948 0.104601 -0.065874
C112  C     C_R   0.117947 0.147873 0.895035 -0.060602
C113  C     C_R   0.617946 0.351914 0.895104 -0.058500
C114  C     C_R   0.382693 0.649138 0.104583 -0.069302
C115  C     C_R   0.382784 0.350948 0.104601 -0.065874
C116  C     C_R   0.617947 0.647873 0.895035 -0.060601
C117  C     C_R   0.136412 0.829496 0.806984 -0.223851
C118  C     C_R   0.864221 0.171436 0.192808 -0.174288
C119  C     C_R   0.864213 0.828568 0.192808 -0.174346
C120  C     C_R   0.136447 0.170438 0.806958 -0.224664
C121  C     C_R   0.636411 0.329496 0.806984 -0.223842
C122  C     C_R   0.364225 0.671444 0.192805 -0.174202
C123  C     C_R   0.364213 0.328568 0.192808 -0.174310
C124  C     C_R   0.636447 0.670438 0.806958 -0.224661
H37   H     H_    0.116124 0.847230 0.769056 0.175792
H38   H     H_    0.883877 0.152526 0.231233 0.192893
H39   H     H_    0.883824 0.847384 0.231317 0.192732
H40   H     H_    0.116152 0.152866 0.769003 0.175515
H41   H     H_    0.616124 0.347231 0.769055 0.175801
H42   H     H_    0.383882 0.652535 0.231230 0.192880
H43   H     H_    0.383825 0.347384 0.231316 0.192730
H44   H     H_    0.616151 0.652867 0.769003 0.175517
C125  C     C_R   0.182485 0.787472 0.765881 -0.059591
C126  C     C_R   0.818781 0.214705 0.233449 -0.030749
C127  C     C_R   0.818757 0.785341 0.233294 -0.035587
C128  C     C_R   0.182538 0.212415 0.765965 -0.058160
C129  C     C_R   0.682484 0.287470 0.765881 -0.059599
C130  C     C_R   0.318786 0.714715 0.233446 -0.030620
C131  C     C_R   0.318756 0.285341 0.233294 -0.035572
C132  C     C_R   0.682539 0.712415 0.765965 -0.058164
C133  C     C_R   0.209357 0.765529 0.814590 -0.197914
C134  C     C_R   0.792902 0.238504 0.183960 -0.120348
C135  C     C_R   0.792880 0.761833 0.183568 -0.111787
C136  C     C_R   0.209443 0.234026 0.814818 -0.200348
C137  C     C_R   0.709355 0.265526 0.814592 -0.197907
C138  C     C_R   0.292906 0.738511 0.183956 -0.120392
C139  C     C_R   0.292879 0.261835 0.183569 -0.111796
C140  C     C_R   0.709444 0.734026 0.814818 -0.200349
H45   H     H_    0.245125 0.732686 0.783025 0.149093
H46   H     H_    0.757740 0.272475 0.215019 0.175128
H47   H     H_    0.756866 0.729516 0.215164 0.181495
H48   H     H_    0.246048 0.265188 0.782737 0.148825
H49   H     H_    0.745122 0.232682 0.783026 0.149093
H50   H     H_    0.257747 0.772486 0.215011 0.175235
H51   H     H_    0.256865 0.229518 0.215165 0.181496
H52   H     H_    0.746048 0.765187 0.782737 0.148822
C141  C     C_R   0.191051 0.787098 0.903463 0.072490
C142  C     C_R   0.810894 0.216532 0.095355 0.062460
C143  C     C_R   0.811109 0.783904 0.094830 0.062028
C144  C     C_R   0.190977 0.212297 0.903736 0.071493
C145  C     C_R   0.691049 0.287095 0.903464 0.072491
C146  C     C_R   0.310897 0.716536 0.095353 0.062411
C147  C     C_R   0.311107 0.283906 0.094831 0.062028
C148  C     C_R   0.690978 0.712296 0.903736 0.071493
O33   O     O_R   0.051640 0.926880 0.885090 -0.590813
O34   O     O_R   0.948360 0.073120 0.114910 -0.578620
O35   O     O_R   0.948360 0.926880 0.114910 -0.579844
O36   O     O_R   0.051640 0.073120 0.885090 -0.591400
O37   O     O_R   0.551640 0.426880 0.885090 -0.590805
O38   O     O_R   0.448360 0.573120 0.114910 -0.578614
O39   O     O_R   0.448360 0.426880 0.114910 -0.579845
O40   O     O_R   0.551640 0.573120 0.885090 -0.591398
Cu9   Cu    Cu3+1 0.495240 0.500000 0.924150 0.947104
Cu10  Cu    Cu3+1 0.504760 0.500000 0.075850 0.984109
Cu11  Cu    Cu3+1 0.995240 1.000000 0.924150 0.947076
Cu12  Cu    Cu3+1 0.004760 1.000000 0.075850 0.984117
C149  C     C_R   0.926644 0.902931 0.066541 0.812514
C150  C     C_R   0.073497 0.096845 0.933383 0.803949
C151  C     C_R   0.073541 0.903153 0.933382 0.803349
C152  C     C_R   0.926565 0.097028 0.066563 0.812390
C153  C     C_R   0.426644 0.402931 0.066541 0.812525
C154  C     C_R   0.573497 0.596845 0.933383 0.803943
C155  C     C_R   0.573541 0.403153 0.933382 0.803347
C156  C     C_R   0.426565 0.597028 0.066563 0.812399
O41   O     O_R   0.940620 0.926560 0.986760 -0.593302
O42   O     O_R   0.059380 0.073440 0.013240 -0.587357
O43   O     O_R   0.059380 0.926560 0.013240 -0.588004
O44   O     O_R   0.940620 0.073440 0.986760 -0.593710
O45   O     O_R   0.440620 0.426560 0.986760 -0.593297
O46   O     O_R   0.559380 0.573440 0.013240 -0.587361
O47   O     O_R   0.559380 0.426560 0.013240 -0.588016
O48   O     O_R   0.440620 0.573440 0.986760 -0.593710
N1    N     N_R   0.661788 0.832096 0.374554 0.140289
O49   O     O_R   0.705710 0.864183 0.318778 -0.385264
O50   O     O_R   0.655924 0.764785 0.362402 -0.390479
N2    N     N_R   0.418543 0.179948 0.353003 0.129482
O51   O     O_R   0.408805 0.158391 0.288414 -0.376325
O52   O     O_R   0.418943 0.248170 0.366957 -0.380518
N3    N     N_R   0.418662 0.819888 0.353617 0.131967
O53   O     O_R   0.419190 0.751673 0.367580 -0.379239
O54   O     O_R   0.409009 0.841382 0.288886 -0.373894
N4    N     N_R   0.661757 0.168239 0.374585 0.130577
O55   O     O_R   0.656094 0.235953 0.364023 -0.403924
O56   O     O_R   0.705517 0.136244 0.318001 -0.397840
N5    N     N_R   0.161795 0.332110 0.374554 0.140308
O57   O     O_R   0.205719 0.364208 0.318804 -0.385226
O58   O     O_R   0.155932 0.264807 0.362357 -0.390494
N6    N     N_R   0.918552 0.679979 0.353057 0.129541
O59   O     O_R   0.908816 0.658437 0.288459 -0.376320
O60   O     O_R   0.918960 0.748198 0.367021 -0.380507
N7    N     N_R   0.918664 0.319896 0.353622 0.131975
O61   O     O_R   0.919190 0.251681 0.367586 -0.379224
O62   O     O_R   0.909014 0.341392 0.288891 -0.373857
N8    N     N_R   0.161858 0.668090 0.374428 0.130962
O63   O     O_R   0.156124 0.735628 0.363095 -0.404514
O64   O     O_R   0.205715 0.636036 0.318308 -0.397707

loop_
_geom_bond_atom_site_label_1
_geom_bond_atom_site_label_2
_geom_bond_distance
_ccdc_geom_bond_type
C122  H42   1.083398 S    
Cu2   Cu5   2.672993 S    
C59   C64   1.393034 A    
C23   C70   1.421226 A    
C5    C126  1.464629 S    
C102  H30   1.083279 S    
C78   C97   1.403495 A    
Cu9   O48   1.964268 S    
N6    O59   1.301647 A    
Cu10  O47   1.964271 S    
C38   C40   1.421199 A    
C119  H39   1.083398 S    
C113  C121  1.393758 A    
Cu6   O22   1.962399 S    
C117  H37   1.083396 S    
C6    O22   1.286761 A    
C130  C138  1.404360 A    
Cu12  O43   1.964271 S    
Cu4   O28   1.962942 S    
C71   N3    1.445042 S    
N2    O51   1.301646 A    
N7    O62   1.301656 A    
O3    Cu3   1.959500 S    
C36   C43   1.408724 A    
C111  C149  1.463945 S    
C87   H23   1.082965 S    
C49   C57   1.433327 A    
C83   C91   1.403704 A    
C124  H44   1.083400 S    
O36   C150  1.300503 A    
C25   C27   1.391760 A    
O25   C9    1.279306 A    
C77   C98   1.404137 A    
O39   C153  1.300037 A    
C104  C144  1.400063 A    
C113  C155  1.464148 S    
C114  C156  1.465139 S    
C153  O45   1.293016 A    
C38   C42   1.406762 A    
C133  C141  1.400990 A    
C72   N4    1.441345 S    
C128  C136  1.406421 A    
C3    O19   1.287067 A    
C137  C145  1.400989 A    
Cu8   O32   1.962942 S    
C132  C140  1.406420 A    
C86   H22   1.083068 S    
C13   C54   1.486449 S    
O12   Cu4   1.959682 S    
O13   Cu5   1.959806 S    
H2    C31   1.075622 S    
C151  O43   1.292144 A    
C34   C36   1.421184 A    
N1    O50   1.300094 A    
C79   C143  1.481062 S    
C3    C132  1.465073 S    
H6    C27   1.075625 S    
C122  C130  1.393401 A    
C107  H35   1.083236 S    
O39   Cu10  1.961375 S    
C149  O41   1.293017 A    
C108  H36   1.083298 S    
C48   C56   1.432931 A    
C45   C71   1.425518 A    
C16   C55   1.486308 S    
O2    C13   1.312866 A    
C50   C58   1.440671 A    
C50   C68   1.412259 A    
C9    C58   1.486456 S    
H7    C26   1.075697 S    
O35   C149  1.300036 A    
C60   C63   1.401143 A    
C125  C133  1.404960 A    
C112  C150  1.463011 S    
C139  C147  1.401720 A    
H14   C97   1.083032 S    
C85   C93   1.395578 A    
O10   Cu2   1.959806 S    
C91   C99   1.396014 A    
C116  C124  1.393571 A    
C120  C128  1.393077 A    
O5    Cu5   1.960493 S    
C40   C41   1.408717 A    
C46   C54   1.440725 A    
Cu3   O19   1.962251 S    
C134  H46   1.083130 S    
C91   H27   1.082966 S    
C118  H38   1.083396 S    
C14   C53   1.495297 S    
C21   C29   1.404070 A    
O33   Cu11  1.960508 S    
C106  H34   1.083280 S    
C82   C93   1.403494 A    
C23   C31   1.406776 A    
C103  C143  1.400427 A    
C119  C127  1.393580 A    
Cu9   Cu10  2.688426 S    
C101  C141  1.401166 A    
H13   C98   1.083018 S    
C2    C129  1.463941 S    
C52   C74   1.425586 A    
C116  C154  1.463013 S    
O7    C12   1.312832 A    
Cu2   O26   1.963655 S    
C105  C145  1.401161 A    
C90   C98   1.395511 A    
C84   C148  1.480522 S    
O3    C16   1.312864 A    
Cu9   O45   1.964834 S    
C10   C57   1.495390 S    
H8    C25   1.078331 S    
C156  O48   1.292981 A    
C62   H10   1.083784 S    
Cu12  O42   1.964835 S    
O28   C12   1.279960 A    
C80   C99   1.405957 A    
C76   N8    1.441564 S    
O29   C13   1.279275 A    
C81   C94   1.404137 A    
H1    C32   1.078566 S    
C103  H31   1.083235 S    
C45   C65   1.416628 A    
H3    C30   1.075694 S    
C101  H29   1.083258 S    
C33   C35   1.421413 A    
C47   C55   1.440107 A    
Cu5   O29   1.963655 S    
H5    C28   1.078572 S    
C52   C60   1.433002 A    
Cu7   O31   1.962943 S    
C88   C96   1.395382 A    
C135  C143  1.401720 A    
C48   C65   1.416394 A    
C89   C97   1.395572 A    
C8    C127  1.466290 S    
C15   C56   1.494981 S    
C33   C43   1.408953 A    
C49   C67   1.416691 A    
C118  C126  1.393398 A    
Cu4   Cu7   2.674385 S    
O16   C3    1.297940 A    
C52   C67   1.416404 A    
C140  C148  1.401744 A    
O9    C6    1.296899 A    
O26   C10   1.289975 A    
O40   C154  1.300501 A    
C73   N5    1.441849 S    
O11   C8    1.297551 A    
C19   C33   1.413839 A    
O12   C7    1.297939 A    
C43   C67   1.415336 A    
O13   C2    1.296900 A    
C19   C27   1.406874 A    
C5    O21   1.288169 A    
C154  O46   1.292053 A    
C69   N1    1.441843 S    
C64   H12   1.083787 S    
O37   Cu9   1.960508 S    
C110  C118  1.394647 A    
C41   C65   1.415311 A    
N5    O58   1.300094 A    
C127  C135  1.406408 A    
O1    Cu1   1.960493 S    
H18   C93   1.083030 S    
O34   Cu12  1.960505 S    
O14   Cu6   1.959806 S    
N6    O60   1.300563 A    
C44   C68   1.420115 A    
C24   C32   1.403871 A    
C87   C95   1.396016 A    
C46   C66   1.412299 A    
C104  H32   1.083297 S    
C78   C86   1.405675 A    
C107  C147  1.400428 A    
O8    Cu8   1.959502 S    
C150  O42   1.292052 A    
N2    O52   1.300565 A    
N4    O55   1.300529 A    
C20   C73   1.418081 A    
H20   C95   1.082934 S    
C133  H45   1.083231 S    
O36   Cu11  1.961375 S    
C24   C69   1.418081 A    
C121  H41   1.083395 S    
N3    O53   1.300557 A    
H16   C99   1.082933 S    
H17   C94   1.083018 S    
C6    C125  1.463942 S    
Cu11  Cu12  2.688426 S    
C86   C94   1.395512 A    
O11   Cu3   1.959682 S    
C42   C66   1.420152 A    
C77   C85   1.405789 A    
O2    Cu2   1.960490 S    
C53   C61   1.401008 A    
O6    Cu6   1.960490 S    
C34   C44   1.406742 A    
C136  H48   1.083294 S    
N8    O63   1.300234 A    
C129  C137  1.404962 A    
C7    C128  1.465072 S    
C12   C59   1.486202 S    
C139  H51   1.082931 S    
C74   N6    1.444976 S    
O33   C151  1.300938 A    
C21   C39   1.408859 A    
C70   N2    1.444983 S    
C111  C119  1.394264 A    
C47   C69   1.424748 A    
C4    C131  1.466290 S    
C50   C76   1.425070 A    
C57   C63   1.400990 A    
C105  H33   1.083257 S    
N1    O49   1.301384 A    
Cu1   O17   1.962397 S    
C92   C100  1.395382 A    
Cu3   O27   1.962943 S    
C17   C76   1.418583 A    
Cu10  O46   1.964835 S    
C19   C74   1.421283 A    
C37   C41   1.408896 A    
C21   C72   1.418458 A    
C83   C147  1.481062 S    
N7    O61   1.300560 A    
O30   C14   1.289967 A    
C29   C31   1.391653 A    
C26   C28   1.391803 A    
C106  C114  1.405314 A    
C108  C148  1.400064 A    
C55   C62   1.393019 A    
C84   C95   1.405955 A    
C123  C131  1.393579 A    
O5    C10   1.308211 A    
C78   C142  1.479831 S    
C20   C28   1.403864 A    
C45   C53   1.433296 A    
C83   C96   1.406108 A    
C121  C129  1.392867 A    
O40   Cu9   1.961375 S    
C114  C122  1.394653 A    
C82   C146  1.479831 S    
C90   H26   1.083060 S    
C109  C151  1.464149 S    
C24   C38   1.408735 A    
C51   C59   1.440087 A    
Cu1   Cu6   2.672993 S    
Cu11  O41   1.964834 S    
C48   C70   1.425492 A    
C82   C90   1.405671 A    
C106  C146  1.401211 A    
Cu3   Cu8   2.674385 S    
C20   C34   1.408726 A    
O10   C5    1.296250 A    
O27   C11   1.290580 A    
O15   C4    1.297549 A    
C30   C32   1.391798 A    
C115  C153  1.463944 S    
O14   C1    1.296252 A    
C79   C100  1.406108 A    
O37   C155  1.300934 A    
C17   C35   1.408921 A    
Cu4   O20   1.962250 S    
Cu5   O21   1.962397 S    
C4    O20   1.288451 A    
C84   C92   1.403239 A    
C39   C42   1.406555 A    
C137  H49   1.083230 S    
C80   C144  1.480522 S    
C88   H24   1.083028 S    
C135  H47   1.082932 S    
C89   H25   1.082898 S    
C75   N7    1.445041 S    
C18   C26   1.406903 A    
C92   H28   1.083027 S    
C22   C30   1.406890 A    
O34   C152  1.300628 A    
H19   C96   1.082898 S    
C49   C75   1.425512 A    
C22   C40   1.413918 A    
C80   C88   1.403240 A    
C81   C89   1.405790 A    
C51   C73   1.424765 A    
C58   C64   1.393045 A    
C35   C44   1.406513 A    
C102  C142  1.401217 A    
C79   C87   1.403705 A    
C1    C130  1.464647 S    
N3    O54   1.301656 A    
C115  C123  1.394265 A    
C140  H52   1.083295 S    
C107  C115  1.403668 A    
C56   C61   1.401125 A    
O7    Cu7   1.959500 S    
C108  C116  1.404234 A    
C17   C25   1.404022 A    
C18   C75   1.421195 A    
C124  C132  1.393078 A    
C51   C68   1.412098 A    
C23   C37   1.413874 A    
C22   C71   1.421199 A    
C2    O18   1.286761 A    
C11   C60   1.494977 S    
C61   H9    1.083219 S    
Cu11  O44   1.964268 S    
C85   H21   1.082898 S    
O15   Cu7   1.959682 S    
O16   Cu8   1.959682 S    
C102  C110  1.405317 A    
C37   C39   1.421406 A    
C47   C66   1.412154 A    
H4    C29   1.078249 S    
C134  C142  1.400244 A    
N5    O57   1.301386 A    
C138  C146  1.400247 A    
O1    C14   1.308173 A    
C110  C152  1.465140 S    
C120  H40   1.083397 S    
C117  C125  1.392865 A    
C123  H43   1.083398 S    
Cu2   O18   1.962399 S    
O8    C11   1.308235 A    
C138  H50   1.083120 S    
O9    Cu1   1.959806 S    
H15   C100  1.082899 S    
N4    O56   1.301582 A    
C77   C141  1.480885 S    
O31   C15   1.290620 A    
O38   Cu10  1.960505 S    
O32   C16   1.279979 A    
C81   C145  1.480885 S    
O35   Cu12  1.961375 S    
Cu6   O30   1.963655 S    
C136  C144  1.401743 A    
C109  C117  1.393757 A    
C131  C139  1.406408 A    
O4    Cu4   1.959502 S    
C126  C134  1.404354 A    
C103  C111  1.403669 A    
C152  O44   1.292979 A    
C101  C109  1.405426 A    
O4    C15   1.308198 A    
C104  C112  1.404235 A    
C155  O47   1.292145 A    
Cu7   O23   1.962251 S    
C105  C113  1.405423 A    
Cu8   O24   1.962250 S    
C7    O23   1.287069 A    
N8    O64   1.301416 A    
C8    O24   1.288450 A    
O6    C9    1.312829 A    
Cu1   O25   1.963655 S    
C54   C62   1.393074 A    
C18   C36   1.413922 A    
C112  C120  1.393571 A    
C1    O17   1.288179 A    
C63   H11   1.083219 S    
O38   C156  1.300628 A    
C46   C72   1.425121 A    
