data_mof_unit_18956.cif
_audit_creation_date              2013-03-05T15:52:13-0500
_audit_creation_method            fapswitch 2.2
_symmetry_space_group_name_H-M    P1
_symmetry_Int_Tables_number       1
_space_group_crystal_system       triclinic
_cell_length_a                    23.523916
_cell_length_b                    10.767952
_cell_length_c                    9.599612
_cell_angle_alpha                 90.077402
_cell_angle_beta                  89.696199
_cell_angle_gamma                 92.623694
_cell_volume                      2429.03929048

loop_
_atom_site_label
_atom_site_type_symbol
_atom_site_description
_atom_site_fract_x
_atom_site_fract_y
_atom_site_fract_z
_atom_type_partial_charge
O1    O     O_R   0.500000 0.319640 0.618810 -0.572653
O2    O     O_R   0.500000 0.319660 0.381240 -0.566320
C1    C     C_R   0.498051 0.262587 0.499980 0.799527
O3    O     O_R   0.417880 0.499950 0.618810 -0.598348
O4    O     O_R   0.417880 0.499980 0.381240 -0.579152
C2    C     C_R   0.391014 0.499843 0.500479 0.773267
Cu1   Cu    Cu3+1 0.500000 0.499990 0.640660 0.938658
Cu2   Cu    Cu3+1 0.500000 0.500010 0.359340 0.955353
O5    O     O_R   0.500000 0.680340 0.618760 -0.603575
O6    O     O_R   0.500000 0.680360 0.381190 -0.592659
O7    O     O_R   0.582120 0.500020 0.618760 -0.588851
O8    O     O_R   0.582120 0.500050 0.381190 -0.575631
C3    C     C_R   0.498308 0.737096 0.500109 0.768659
C4    C     C_R   0.608904 0.496826 0.499302 0.827820
C5    C     C_R   0.883151 0.604345 0.489591 0.598801
N1    N     N_R   0.851919 0.496905 0.514900 -0.454835
C6    C     C_R   0.877080 0.388111 0.545238 0.651543
C7    C     C_R   0.937171 0.381786 0.543602 -0.134297
C8    C     C_R   0.969890 0.493108 0.516823 -0.041459
C9    C     C_R   0.942560 0.605101 0.491077 -0.004748
C10   C     C_R   0.965764 0.269774 0.566257 0.131013
C11   C     C_R   0.025726 0.271086 0.564591 0.294449
C12   C     C_R   0.058324 0.382818 0.539316 -0.162116
C13   C     C_R   0.030049 0.493519 0.514961 -0.049159
C14   C     C_R   0.061957 0.605567 0.488121 -0.000781
C15   C     C_R   0.033968 0.715622 0.464078 -0.112361
C16   C     C_R   0.974968 0.715360 0.465381 -0.119873
C17   C     C_R   0.118632 0.388166 0.536543 0.588669
N2    N     N_R   0.148285 0.497767 0.509639 -0.480465
C18   C     C_R   0.121433 0.605215 0.485708 0.548340
O9    O     O_2   0.856591 0.709909 0.461517 -0.501509
O10   O     O_2   0.843398 0.287877 0.577583 -0.466114
O11   O     O_2   0.147831 0.285396 0.559894 -0.453957
O12   O     O_2   0.152366 0.711524 0.460226 -0.505924
H1    H     H_    0.057563 0.802489 0.443620 0.226027
H2    H     H_    0.954840 0.802052 0.445649 0.212506
C19   C     C_R   0.239504 0.501314 0.632123 -0.097003
H3    H     H_    0.217042 0.501949 0.730949 0.143617
C20   C     C_R   0.298746 0.501676 0.629966 -0.229437
H4    H     H_    0.321211 0.502741 0.728262 0.156914
C21   C     C_R   0.328419 0.500338 0.502283 -0.038555
C22   C     C_R   0.297684 0.499328 0.376930 -0.203135
H5    H     H_    0.319359 0.498220 0.277064 0.157702
C23   C     C_R   0.238383 0.499259 0.379456 -0.094191
H6    H     H_    0.215016 0.497893 0.282453 0.143571
C24   C     C_R   0.209215 0.499960 0.507008 0.349713
C25   C     C_R   0.762049 0.437735 0.395155 0.341875
C26   C     C_R   0.702081 0.434986 0.390755 0.052367
C27   C     C_R   0.671523 0.493846 0.498383 -0.138197
C28   C     C_R   0.701424 0.551726 0.608708 -0.233468
H7    H     H_    0.679064 0.596978 0.692037 0.173180
C29   C     C_R   0.760469 0.553699 0.612518 -0.120204
H8    H     H_    0.782727 0.598576 0.698726 0.180976
C30   C     C_R   0.790974 0.497461 0.506506 0.206267
H9    H     H_    0.566794 0.119520 0.361870 0.179197
C31   C     C_R   0.407208 0.120427 0.646517 -0.184947
H10   H     H_    0.404197 0.220281 0.645380 0.138774
C32   C     C_R   0.364902 0.051272 0.718067 -0.112723
H11   H     H_    0.331453 0.098088 0.771931 0.152692
C33   C     C_R   0.365010 0.922120 0.718375 -0.109569
H12   H     H_    0.331641 0.868691 0.772466 0.151391
C34   C     C_R   0.407435 0.861317 0.647176 -0.171614
H13   H     H_    0.404600 0.760900 0.646741 0.153894
C35   C     C_R   0.451370 0.929537 0.575767 0.099856
C36   C     C_R   0.451255 0.060860 0.575480 0.096016
C37   C     C_R   0.494171 0.128415 0.499792 -0.105150
C38   C     C_R   0.534440 0.067462 0.421183 -0.168312
H14   H     H_    0.566999 0.893847 0.362227 0.145284
C39   C     C_R   0.534554 0.939415 0.421410 -0.196340
C40   C     C_R   0.494388 0.870487 0.500239 -0.090069
H15   H     H_    0.435624 0.359136 0.129659 0.138271
C41   C     C_R   0.575771 0.665072 0.143390 -0.128575
H16   H     H_    0.579502 0.672446 0.253129 0.191030
C42   C     C_R   0.612679 0.746121 0.070937 -0.175274
H17   H     H_    0.641642 0.809082 0.126903 0.171055
C43   C     C_R   0.612497 0.746634 0.927413 -0.189741
H18   H     H_    0.641350 0.809940 0.871031 0.169949
C44   C     C_R   0.575449 0.666009 0.855468 -0.147691
H19   H     H_    0.578964 0.674130 0.745662 0.194316
C45   C     C_R   0.537102 0.581505 0.924913 0.218371
C46   C     C_R   0.537180 0.581252 0.074472 0.221260
N3    N     N_R   0.500540 0.501210 0.147910 -0.195870
C47   C     C_R   0.464628 0.422597 0.074220 -0.046787
H20   H     H_    0.435670 0.359132 0.871395 0.132022
C48   C     C_R   0.464656 0.422592 0.926331 -0.053287
N4    N     N_R   0.500560 0.501290 0.852040 -0.197817
I1    I     I_    0.923381 0.090241 0.597632 -0.063884
I2    I     I_    0.660395 0.338652 0.221402 -0.233042
N5    N     N_R   0.053101 0.156850 0.587390 0.173356
O13   O     O_R   0.065011 0.085934 0.482408 -0.308516
O14   O     O_R   0.063592 0.120871 0.713563 -0.292146
N6    N     N_R   0.793957 0.379949 0.287161 0.142450
O15   O     O_R   0.833922 0.443547 0.220955 -0.327155
O16   O     O_R   0.788622 0.260330 0.268285 -0.272511

loop_
_geom_bond_atom_site_label_1
_geom_bond_atom_site_label_2
_geom_bond_distance
_ccdc_geom_bond_type
C10   I1    2.154967 S    
C7    C10   1.425145 A    
C21   C22   1.406904 A    
C8    C9    1.414969 A    
C46   N3    1.382000 A    
Cu1   Cu2   2.700562 S    
C20   C21   1.407700 A    
C48   N4    1.367402 A    
C23   H6    1.083567 S    
Cu1   O7    1.942067 S    
C15   C16   1.387782 A    
N2    C18   1.363663 A    
C42   C43   1.377822 A    
Cu2   N3    2.029674 S    
C17   N2    1.367346 A    
C19   H3    1.083625 S    
C43   C44   1.387716 A    
O4    C2    1.304563 A    
O7    C4    1.306674 A    
C44   C45   1.416407 A    
Cu1   N4    2.029304 S    
C3    C40   1.443502 S    
C32   C33   1.390825 A    
C31   C36   1.414997 A    
C31   H10   1.080862 S    
C33   C34   1.393974 A    
C7    C8    1.417617 A    
C25   N6    1.434605 S    
O5    C3    1.294989 A    
C34   C35   1.414948 A    
H20   C48   1.081754 S    
C23   C24   1.400588 A    
H14   C39   1.083981 S    
C2    C21   1.472740 S    
C28   C29   1.388839 A    
C12   C13   1.411732 A    
C26   I2    2.144718 S    
C35   C40   1.415589 A    
N5    O14   1.300474 A    
C41   C46   1.416412 A    
C19   C24   1.399470 A    
C37   C38   1.394848 A    
C10   C11   1.409985 A    
C22   C23   1.395040 A    
O3    Cu1   1.944224 S    
C29   C30   1.395597 A    
C28   H7    1.082564 S    
H15   C47   1.081742 S    
C5    C9    1.397332 A    
C42   H17   1.083089 S    
C18   O12   1.349945 S    
C13   C14   1.414692 A    
C41   C42   1.387477 A    
C20   H4    1.083745 S    
C44   H19   1.060320 S    
C45   C46   1.435721 A    
C14   C15   1.401756 A    
C33   H12   1.082570 S    
O1    C1    1.294934 A    
C34   H13   1.080290 S    
C25   C26   1.410486 A    
Cu2   O8    1.944224 S    
N6    O16   1.300941 A    
C6    C7    1.418336 A    
C12   C17   1.417332 A    
C43   H18   1.083071 S    
C25   C30   1.408905 A    
O3    C2    1.302798 A    
C26   C27   1.420564 A    
C47   C48   1.419676 A    
O8    C4    1.301321 A    
C17   O11   1.348532 S    
N3    C47   1.367432 A    
C1    C37   1.443460 S    
C22   H5    1.083753 S    
C29   H8    1.082995 S    
C14   C18   1.399351 A    
Cu1   O5    1.953630 S    
O1    Cu1   1.953012 S    
O2    Cu2   1.953627 S    
C41   H16   1.060126 S    
O6    C3    1.295332 A    
O4    Cu2   1.942069 S    
H9    C38   1.083933 S    
C5    O9    1.350086 S    
C9    C16   1.402702 A    
C16   H2    1.083228 S    
C45   N4    1.382444 A    
N2    C24   1.432520 S    
C35   C36   1.414218 A    
O2    C1    1.295302 A    
C32   H11   1.082560 S    
C19   C20   1.393477 A    
N1    C6    1.368846 A    
N6    O15   1.301016 A    
C11   N5    1.431930 S    
C31   C32   1.393914 A    
C8    C13   1.415014 A    
C36   C37   1.415148 A    
C39   C40   1.394995 A    
N1    C30   1.436643 S    
C4    C27   1.474852 S    
C15   H1    1.083241 S    
Cu2   O6    1.953013 S    
C27   C28   1.403856 A    
C6    O10   1.345025 S    
C11   C12   1.417300 A    
C38   C39   1.378939 A    
N5    O13   1.300682 A    
C5    N1    1.363193 A    
