data_mof_unit_16433.cif
_audit_creation_date              2012-12-10T16:53:09-0500
_audit_creation_method            fapswitch 2.2
_symmetry_space_group_name_H-M    P1
_symmetry_Int_Tables_number       1
_space_group_crystal_system       triclinic
_cell_length_a                    10.797955
_cell_length_b                    10.898899
_cell_length_c                    9.770179
_cell_angle_alpha                 92.556665
_cell_angle_beta                  88.982082
_cell_angle_gamma                 91.291054
_cell_volume                      1148.21370226

loop_
_atom_site_label
_atom_site_type_symbol
_atom_type_description
_atom_site_fract_x
_atom_site_fract_y
_atom_site_fract_z
_atom_type_partial_charge
C1    C     C_R   0.505191 0.266141 0.496652 0.777983
C2    C     C_R   0.072272 0.618256 0.489412 0.074436
C3    C     C_R   0.128787 0.504600 0.506357 -0.110518
C4    C     C_R   0.056782 0.397535 0.523630 -0.037356
C5    C     C_R   0.928813 0.403449 0.521334 -0.195314
C6    C     C_R   0.871502 0.512718 0.492389 -0.087887
C7    C     C_2   0.433247 0.932882 0.409970 -0.183165
C8    C     C_2   0.456135 0.864864 0.519268 0.194140
C9    C     C_2   0.429547 0.066959 0.423202 -0.132311
C10   C     C_2   0.518729 0.135158 0.485779 -0.071518
C11   C     C_2   0.481794 0.403937 0.921372 -0.033331
C12   C     C_R   0.262810 0.497539 0.501480 0.762860
C13   C     C_2   0.514454 0.403119 0.070475 0.060908
C14   C     C_R   0.488461 0.734262 0.503886 0.724735
C15   C     C_R   0.737165 0.509462 0.498465 0.789843
C16   C     C_R   0.142674 0.728908 0.493490 -0.118202
C17   C     C_R   0.088687 0.839968 0.469107 -0.109989
C18   C     C_R   0.966100 0.841516 0.429648 -0.133019
C19   C     C_R   0.894272 0.732859 0.422141 -0.052606
C20   C     C_R   0.943160 0.621222 0.467315 0.051392
Cu1   Cu    Cu3+1 0.500020 0.500020 0.638630 1.113615
Cu2   Cu    Cu3+1 0.499980 0.499980 0.361370 1.008308
H1    H     H_    0.448337 0.318455 0.872727 0.142439
H2    H     H_    0.438114 0.561379 0.118524 0.253865
H3    H     H_    0.239465 0.730350 0.517759 0.134068
H4    H     H_    0.144108 0.924030 0.472933 0.176691
H5    H     H_    0.929333 0.926967 0.396790 0.160950
H6    H     H_    0.872942 0.321471 0.539476 0.149359
H7    H     H_    0.351367 0.111491 0.379071 0.149454
N1    N     N_2   0.498640 0.498660 0.846910 -0.005769
N2    N     N_2   0.498610 0.498630 0.153040 -0.243551
O1    O     O_R   0.500020 0.321960 0.617040 -0.577908
O2    O     O_R   0.499980 0.321920 0.382900 -0.600459
O3    O     O_R   0.319670 0.500020 0.617100 -0.565685
O4    O     O_R   0.319630 0.499980 0.382950 -0.592508
O5    O     O_R   0.500020 0.678080 0.617100 -0.451866
O6    O     O_R   0.499980 0.678040 0.382960 -0.583813
O7    O     O_R   0.680370 0.500020 0.617050 -0.515611
O8    O     O_R   0.680330 0.499980 0.382900 -0.564980
C21   C     C_1   0.112150 0.280791 0.545904 0.242514
N3    N     N_1   0.156101 0.187168 0.563879 -0.249460
C22   C     C_1   0.635415 0.086082 0.526414 0.298259
N4    N     N_1   0.728973 0.047296 0.558448 -0.267526
S1    S     S_3+6 0.601002 0.616911 0.906969 0.155664
O9    O     O_2   0.529268 0.714401 0.984757 -0.257502
O10   O     O_2   0.697900 0.568003 0.997685 -0.290962
O11   O     O_3   0.678341 0.686903 0.780699 -0.452709
H8    H     H_    0.730202 0.751605 0.827373 0.374162
C23   C     C_1   0.576404 0.296548 0.114639 0.355717
N5    N     N_1   0.626772 0.210574 0.148487 -0.263210
C24   C     C_1   0.789105 0.736014 0.334349 0.258092
N6    N     N_1   0.708635 0.741724 0.258601 -0.146511
C25   C     C_1   0.398822 0.878546 0.278095 0.298593
N7    N     N_1   0.369124 0.835891 0.172922 -0.209568
S2    S     S_3+6 0.424665 0.921876 0.691827 0.033629
O12   O     O_2   0.544577 0.941273 0.766275 -0.241989
O13   O     O_2   0.354845 0.039768 0.697103 -0.291161
O14   O     O_3   0.338201 0.816349 0.773079 -0.498270
H9    H     H_    0.325502 0.851961 0.867188 0.394552

loop_
_geom_bond_atom_site_label_1
_geom_bond_atom_site_label_2
_ccdc_geom_bond_type
S2    O12   D    
C15   O7    A    
C4    C21   S    
Cu1   O3    S    
C10   C22   S    
C5    H6    S    
C6    C20   A    
Cu1   N1    S    
C18   H5    S    
O11   H8    S    
S1    O11   S    
C9    H7    S    
C15   O8    A    
C19   C20   A    
C17   C18   A    
C6    C15   S    
H2    N2    S    
C1    O2    A    
C7    C8    D    
Cu1   O5    S    
Cu1   Cu2   S    
C12   O4    A    
Cu2   O4    S    
C11   C13   S    
N1    S1    S    
C16   C17   A    
C13   C23   S    
C17   H4    S    
C8    S2    S    
C11   H1    S    
C21   N3    T    
S1    O10   D    
C2    C3    A    
S2    O13   D    
C14   O5    A    
C5    C6    A    
Cu1   O1    S    
Cu2   N2    S    
Cu2   O8    S    
C12   O3    A    
C24   N6    T    
C9    C10   D    
C19   C24   S    
C2    C16   A    
S1    O9    D    
C23   N5    T    
C22   N4    T    
S2    O14   S    
C16   H3    S    
C7    C9    S    
Cu2   O2    S    
C7    C25   S    
C18   C19   A    
C8    C14   S    
C3    C12   S    
O14   H9    S    
C25   N7    T    
Cu2   O6    S    
C2    C20   A    
C1    C10   S    
C13   N2    D    
C1    O1    A    
Cu1   O7    S    
C3    C4    A    
C11   N1    D    
C4    C5    A    
C14   O6    A    
