data_mof_unit_58517.cif
_audit_creation_date              2012-12-10T16:51:28-0500
_audit_creation_method            fapswitch 2.2
_symmetry_space_group_name_H-M    P1
_symmetry_Int_Tables_number       1
_space_group_crystal_system       triclinic
_cell_length_a                    7.864338
_cell_length_b                    8.604372
_cell_length_c                    12.194106
_cell_angle_alpha                 92.555504
_cell_angle_beta                  101.321396
_cell_angle_gamma                 94.313221
_cell_volume                      805.311529523

loop_
_atom_site_label
_atom_site_type_symbol
_atom_type_description
_atom_site_fract_x
_atom_site_fract_y
_atom_site_fract_z
_atom_type_partial_charge
C1    C     C_R   0.044767 0.794634 0.497632 0.950715
C2    C     C_R   0.161602 0.507544 0.831056 -0.121420
C3    C     C_2   0.068386 0.958610 0.497300 -0.385903
C4    C     C_R   0.106218 0.503987 0.709882 0.838563
C5    C     C_2   0.932640 0.041640 0.503781 -0.387641
C6    C     C_R   0.955575 0.205458 0.502879 0.946890
C7    C     C_R   0.892892 0.490400 0.290279 0.863892
C8    C     C_R   0.825662 0.321923 0.996856 -0.193130
C9    C     C_R   0.832932 0.468592 0.170659 -0.064446
C10   C     C_R   0.072310 0.593210 0.898254 -0.192087
C11   C     C_R   0.147071 0.632881 0.009585 -0.128906
C12   C     C_R   0.404974 0.502886 0.986924 0.071091
C13   C     C_R   0.313077 0.591181 0.053608 -0.195427
C14   C     C_3   0.634520 0.746868 0.655764 0.197225
C15   C     C_3   0.596296 0.813795 0.765681 -0.377911
C16   C     C_3   0.741448 0.934756 0.823863 -1.026112
C17   C     C_R   0.319077 0.447669 0.878293 0.072271
C18   C     C_R   0.578326 0.466040 0.024249 0.076340
C19   C     C_R   0.656958 0.364721 0.957417 0.156053
C20   C     C_R   0.563401 0.302060 0.854554 -0.239111
C21   C     C_R   0.394235 0.337081 0.817807 -0.164089
C22   C     C_R   0.675812 0.526262 0.126764 -0.265147
C23   C     C_R   0.911642 0.369871 0.105180 -0.184663
H1    H     H_    0.035246 0.325454 0.138953 0.159462
H2    H     H_    0.323091 0.276481 0.740926 0.165185
H3    H     H_    0.196711 0.010497 0.491950 0.176803
H4    H     H_    0.612975 0.835234 0.591825 0.112160
H5    H     H_    0.771075 0.720379 0.672409 0.194103
H6    H     H_    0.470809 0.868461 0.748487 0.220576
H7    H     H_    0.584316 0.718293 0.822978 0.245970
H8    H     H_    0.768857 0.023648 0.764983 0.261568
H9    H     H_    0.863048 0.879059 0.853893 0.264590
H10   H     H_    0.702370 0.991358 0.897540 0.279481
H11   H     H_    0.804375 0.989935 0.508645 0.165602
H12   H     H_    0.466271 0.389335 0.407050 0.142388
H13   H     H_    0.619916 0.225388 0.802091 0.162611
H14   H     H_    0.887018 0.245324 0.946422 0.149299
H15   H     H_    0.628536 0.612014 0.177790 0.148411
H16   H     H_    0.946843 0.632797 0.863786 0.161390
H17   H     H_    0.363213 0.626590 0.140497 0.134290
H18   H     H_    0.077831 0.699480 0.061325 0.148907
N1    N     N_2   0.434800 0.456690 0.470850 -0.089541
N2    N     N_2   0.565200 0.543310 0.529150 0.096979
O1    O     O_R   0.893060 0.738880 0.507150 -0.652685
O2    O     O_R   0.172250 0.711130 0.488470 -0.592586
O3    O     O_R   0.944700 0.520730 0.667600 -0.641588
O4    O     O_R   0.223890 0.492980 0.648920 -0.548628
O5    O     O_R   0.827750 0.288870 0.511530 -0.631355
O6    O     O_R   0.106940 0.261120 0.492850 -0.622758
O7    O     O_R   0.776110 0.507020 0.351080 -0.635522
O8    O     O_R   0.055300 0.479270 0.332400 -0.628774
O9    O     O_3   0.521988 0.612494 0.620013 -0.520555
Zn1   Zn    Zn3+2 0.813580 0.518530 0.512470 0.945226
Zn2   Zn    Zn3+2 0.186420 0.481470 0.487530 0.981947

loop_
_geom_bond_atom_site_label_1
_geom_bond_atom_site_label_2
_ccdc_geom_bond_type
C12   C17   A    
C2    C10   A    
C2    C4    S    
C23   H1    S    
C11   H18   S    
C16   H10   S    
C16   H9    S    
N1    N2    D    
C1    O1    A    
C19   C20   A    
O8    Zn2   S    
C14   H5    S    
C5    H11   S    
C7    O8    A    
C4    O3    A    
C20   C21   A    
C16   H8    S    
C2    C17   A    
C11   C13   A    
C1    O2    A    
O7    Zn1   S    
C5    C6    S    
C6    O5    A    
O4    Zn2   S    
O3    Zn1   S    
O2    Zn2   S    
C15   H6    S    
C6    O6    A    
O5    Zn1   S    
C14   H4    S    
C14   O9    S    
C9    C22   A    
C8    C19   A    
C10   C11   A    
O6    Zn2   S    
C20   H13   S    
N1    Zn2   S    
C8    C23   A    
C12   C13   A    
C15   H7    S    
C18   C19   A    
C8    H14   S    
C12   C18   A    
C7    C9    S    
H12   N1    S    
C21   H2    S    
C14   C15   S    
C9    C23   A    
C13   H17   S    
C3    C5    D    
C18   C22   A    
O1    Zn1   S    
N2    Zn1   S    
C3    H3    S    
C17   C21   A    
C15   C16   S    
C7    O7    A    
N2    O9    S    
C10   H16   S    
C1    C3    S    
C4    O4    A    
C22   H15   S    
