data_mof_unit_5482.cif
_audit_creation_date              2013-03-05T15:57:28-0500
_audit_creation_method            fapswitch 2.2
_symmetry_space_group_name_H-M    P1
_symmetry_Int_Tables_number       1
_space_group_crystal_system       triclinic
_cell_length_a                    13.908117
_cell_length_b                    14.981114
_cell_length_c                    15.695849
_cell_angle_alpha                 89.874267
_cell_angle_beta                  69.549894
_cell_angle_gamma                 90.025799
_cell_volume                      3064.25343633

loop_
_atom_site_label
_atom_site_type_symbol
_atom_site_description
_atom_site_fract_x
_atom_site_fract_y
_atom_site_fract_z
_atom_type_partial_charge
O1    O     O_R   0.417730 0.629750 0.499970 -0.544533
O2    O     O_R   0.582270 0.370250 0.500030 -0.524088
O3    O     O_R   0.582270 0.629730 0.499980 -0.540570
O4    O     O_R   0.417730 0.370270 0.500020 -0.552541
C1    C     C_R   0.498875 0.670607 0.502961 0.851820
C2    C     C_R   0.500549 0.329295 0.498244 0.867654
O5    O     O_R   0.371590 0.500020 0.629830 -0.525180
O6    O     O_R   0.628410 0.499980 0.370170 -0.568599
O7    O     O_R   0.536130 0.499990 0.629840 -0.589578
O8    O     O_R   0.463870 0.500010 0.370160 -0.555567
C3    C     C_R   0.436444 0.500589 0.672997 0.860379
C4    C     C_R   0.563142 0.500657 0.326925 0.841342
Cu1   Cu    Cu3+1 0.402580 0.500010 0.499990 1.060724
Cu2   Cu    Cu3+1 0.597420 0.499990 0.500010 1.036132
C5    C     C_R   0.395875 0.496463 0.773750 -0.115649
C6    C     C_R   0.600887 0.493646 0.226272 -0.144832
C7    C     C_R   0.259244 0.471162 0.918776 -0.193406
C8    C     C_R   0.732794 0.458688 0.081749 -0.157153
C9    C     C_R   0.290483 0.485546 0.824560 0.442767
C10   C     C_R   0.705022 0.478983 0.174004 0.453240
C11   C     C_R   0.465507 0.499230 0.819596 -0.180311
C12   C     C_R   0.528578 0.494102 0.182430 -0.152383
C13   C     C_R   0.437241 0.473650 0.911280 0.081255
C14   C     C_R   0.554646 0.468509 0.090887 0.099596
C15   C     C_R   0.331622 0.464387 0.962775 -0.067897
C16   C     C_R   0.659477 0.455491 0.038959 -0.085286
C17   C     C_R   0.511743 0.459193 0.952982 -0.124113
C18   C     C_R   0.479203 0.458453 0.049231 -0.102879
C19   C     C_R   0.373404 0.442608 0.099960 0.280197
C20   C     C_R   0.616717 0.440453 0.902138 0.249255
C21   C     C_R   0.300360 0.446113 0.056526 0.288369
C22   C     C_R   0.689480 0.438286 0.945431 0.269311
H1    H     H_    0.451228 0.514955 0.220665 0.212984
H2    H     H_    0.542692 0.520974 0.782366 0.191405
H3    H     H_    0.178218 0.462428 0.956495 0.187495
H4    H     H_    0.812498 0.443985 0.044158 0.190668
C23   C     C_R   0.459642 0.188212 0.578541 -0.173478
C24   C     C_R   0.532240 0.812009 0.423635 -0.233756
C25   C     C_R   0.499780 0.232834 0.496040 -0.178434
C26   C     C_R   0.497195 0.766954 0.506062 -0.155450
C27   C     C_R   0.533450 0.186268 0.413011 0.248277
C28   C     C_R   0.458051 0.812956 0.589278 0.272955
C29   C     C_R   0.525025 0.091882 0.413755 -0.094970
C30   C     C_R   0.451595 0.907582 0.588692 -0.108919
C31   C     C_R   0.490542 0.046820 0.499221 -0.000744
C32   C     C_R   0.490096 0.952863 0.503319 0.004686
C33   C     C_R   0.455701 0.095683 0.580857 0.065959
C34   C     C_R   0.527878 0.904330 0.421492 0.067370
C35   C     C_R   0.549318 0.040478 0.332903 0.336737
C36   C     C_R   0.407514 0.959154 0.669154 0.333187
C37   C     C_R   0.555789 0.947909 0.337787 -0.231919
C38   C     C_R   0.414108 0.052010 0.664197 -0.203074
H5    H     H_    0.432073 0.226141 0.641311 0.171874
H6    H     H_    0.560548 0.774409 0.360683 0.154365
H7    H     H_    0.577302 0.909201 0.275621 0.187171
H8    H     H_    0.382402 0.090651 0.726092 0.198175
C39   C     C_R   0.215973 0.573772 0.470472 0.557873
C40   C     C_R   0.789255 0.422777 0.517782 0.598102
N1    N     N_R   0.256170 0.500070 0.500040 -0.283136
N2    N     N_R   0.743830 0.499930 0.499960 -0.278473
C41   C     C_R   0.193224 0.425507 0.526848 0.575633
C42   C     C_R   0.802423 0.577256 0.484241 0.543445
C43   C     C_R   0.086106 0.430274 0.541504 -0.227007
C44   C     C_R   0.910350 0.573758 0.467636 -0.237033
C45   C     C_R   0.050523 0.500394 0.501308 -0.058179
C46   C     C_R   0.948436 0.500071 0.501163 -0.051469
C47   C     C_R   0.118273 0.569573 0.458861 -0.179090
C48   C     C_R   0.883981 0.426351 0.534871 -0.207528
C49   C     C_R   0.015883 0.362888 0.589226 0.236079
C50   C     C_R   0.979712 0.642714 0.421754 0.228711
C51   C     C_R   0.917334 0.357769 0.581348 0.261914
C52   C     C_R   0.085728 0.635218 0.409170 0.266364
N3    N     N_R   0.194908 0.426230 0.107308 0.133795
O9    O     O_R   0.137829 0.484573 0.163713 -0.340995
O10   O     O_R   0.154595 0.351631 0.093770 -0.341915
N4    N     N_R   0.794158 0.417110 0.893694 0.157473
O11   O     O_R   0.831233 0.339402 0.902720 -0.242372
O12   O     O_R   0.854817 0.478381 0.844570 -0.361792
O13   O     O_3   0.269751 0.653323 0.451590 -0.542142
C53   C     C_3   0.220607 0.716857 0.520243 0.038881
H9    H     H_    0.248119 0.708113 0.578191 0.196230
H10   H     H_    0.135288 0.710972 0.547678 0.107951
C54   C     C_3   0.246963 0.811172 0.481670 -0.312669
H11   H     H_    0.331132 0.818926 0.451131 0.234962
H12   H     H_    0.214651 0.822488 0.427317 0.275756
C55   C     C_3   0.204156 0.881910 0.554839 -0.825647
H13   H     H_    0.119059 0.878067 0.583107 0.275649
H14   H     H_    0.227116 0.949287 0.524978 0.262560
H15   H     H_    0.234869 0.872058 0.610474 0.281345
O14   O     O_3   0.748785 0.340457 0.509674 -0.534875
C56   C     C_3   0.814192 0.295746 0.430610 0.050925
H16   H     H_    0.781410 0.228232 0.429824 0.211422
H17   H     H_    0.892522 0.285294 0.432584 0.148978
C57   C     C_3   0.822657 0.343405 0.341551 -0.374870
H18   H     H_    0.745387 0.348448 0.336432 0.297007
H19   H     H_    0.853759 0.411816 0.340421 0.215291
C58   C     C_3   0.894943 0.293422 0.259394 -0.648068
H20   H     H_    0.974167 0.293907 0.261026 0.257955
H21   H     H_    0.895959 0.326470 0.195714 0.295082
H22   H     H_    0.869621 0.223182 0.259104 0.271101
O15   O     O_3   0.233906 0.342380 0.532198 -0.553146
C59   C     C_3   0.264010 0.299995 0.445597 0.141725
H23   H     H_    0.325954 0.252145 0.442424 0.187179
H24   H     H_    0.297576 0.347606 0.388213 0.207725
C60   C     C_3   0.176732 0.245775 0.432008 -0.455183
H25   H     H_    0.140731 0.202671 0.492216 0.277550
H26   H     H_    0.118091 0.291248 0.422926 0.220149
C61   C     C_3   0.215630 0.185706 0.348591 -0.687662
H27   H     H_    0.248164 0.226403 0.285999 0.313929
H28   H     H_    0.150788 0.145915 0.342864 0.255296
H29   H     H_    0.274919 0.139003 0.354684 0.263412
O16   O     O_3   0.755361 0.659349 0.490756 -0.537491
C62   C     C_3   0.755769 0.704902 0.570098 0.104351
H30   H     H_    0.725277 0.773112 0.568139 0.200954
H31   H     H_    0.834727 0.713737 0.571188 0.143906
C63   C     C_3   0.687884 0.659174 0.658384 -0.405198
H32   H     H_    0.607681 0.656262 0.660119 0.270263
H33   H     H_    0.714563 0.590023 0.661210 0.243216
C64   C     C_3   0.691847 0.708488 0.742039 -0.749689
H34   H     H_    0.770926 0.706581 0.743956 0.246329
H35   H     H_    0.639169 0.675698 0.804448 0.264219
H36   H     H_    0.668044 0.779113 0.741109 0.288406
N5    N     N_R   0.042373 0.302949 0.649639 0.183620
O17   O     O_R   0.085505 0.333896 0.704938 -0.261169
O18   O     O_R   0.019045 0.218558 0.653503 -0.276227
N6    N     N_R   0.944148 0.718409 0.384941 0.178387
O19   O     O_R   0.899743 0.707841 0.325267 -0.360769
O20   O     O_R   0.948388 0.797766 0.417023 -0.317292
N7    N     N_R   0.848921 0.287277 0.627887 0.199860
O21   O     O_R   0.814484 0.286058 0.716252 -0.168373
O22   O     O_R   0.849295 0.212681 0.585565 -0.325789
N8    N     N_R   0.161445 0.684093 0.336900 0.152255
O23   O     O_R   0.245275 0.644129 0.287075 -0.290503
O24   O     O_R   0.141864 0.762467 0.311188 -0.295555
O25   O     O_3   0.779268 0.475527 0.213638 -0.624240
C65   C     C_3   0.829728 0.558890 0.204696 0.088126
H37   H     H_    0.857310 0.563943 0.262803 0.216504
H38   H     H_    0.777541 0.616900 0.210114 0.138485
C66   C     C_3   0.923042 0.563783 0.116093 -0.436113
H39   H     H_    0.967445 0.500631 0.106641 0.273682
H40   H     H_    0.896914 0.572871 0.057441 0.204054
C67   C     C_3   0.993368 0.641875 0.116365 -0.667006
H41   H     H_    0.950576 0.705816 0.125526 0.267999
H42   H     H_    0.058379 0.644144 0.050513 0.236733
H43   H     H_    0.024974 0.633807 0.171809 0.307156
O26   O     O_3   0.219132 0.482564 0.781310 -0.556894
C68   C     C_3   0.153197 0.557253 0.806885 0.098688
H44   H     H_    0.196178 0.619711 0.808814 0.182221
H45   H     H_    0.093635 0.545656 0.874930 0.143592
C69   C     C_3   0.100188 0.569843 0.737285 -0.273253
H46   H     H_    0.159282 0.577314 0.668669 0.199323
H47   H     H_    0.053337 0.509922 0.736976 0.282583
C70   C     C_3   0.031254 0.652046 0.757924 -0.870023
H48   H     H_    0.971797 0.646614 0.826790 0.282351
H49   H     H_    0.992464 0.657517 0.707117 0.249103
H50   H     H_    0.077628 0.713332 0.754056 0.272751
N9    N     N_R   0.342789 0.404910 0.189814 0.110389
O27   O     O_R   0.392668 0.337130 0.205546 -0.310594
O28   O     O_R   0.265093 0.437165 0.255703 -0.338733
N10   N     N_R   0.647734 0.409292 0.810127 0.149318
O29   O     O_R   0.600312 0.342464 0.789359 -0.283133
O30   O     O_R   0.721571 0.449233 0.746483 -0.362334
N11   N     N_R   0.581193 0.234850 0.329929 0.127504
O31   O     O_R   0.673409 0.214390 0.276573 -0.332882
O32   O     O_R   0.532768 0.299756 0.307399 -0.337925
N12   N     N_R   0.431114 0.763294 0.672699 0.119967
O33   O     O_R   0.478124 0.778491 0.729762 -0.341732
O34   O     O_R   0.362681 0.700191 0.690131 -0.414432
N13   N     N_R   0.557463 0.079047 0.246853 0.179979
O35   O     O_R   0.482666 0.127531 0.240448 -0.284463
O36   O     O_R   0.627910 0.051196 0.172726 -0.273148
N14   N     N_R   0.349331 0.920358 0.755483 0.179313
O37   O     O_R   0.267149 0.874305 0.763961 -0.323640
O38   O     O_R   0.364774 0.946990 0.828520 -0.271233

loop_
_geom_bond_atom_site_label_1
_geom_bond_atom_site_label_2
_geom_bond_distance
_ccdc_geom_bond_type
C15   C21   1.407250 A    
C46   C48   1.402990 A    
C43   C45   1.400784 A    
C16   C22   1.403318 A    
N9    O27   1.300978 A    
N13   O36   1.301422 A    
N3    O9    1.300335 A    
C39   O13   1.382135 S    
N5    O18   1.301100 A    
C41   O15   1.382546 S    
N11   O31   1.300443 A    
C8    C16   1.404223 A    
C58   H22   1.110023 S    
C58   H20   1.111088 S    
O25   C65   1.414743 S    
C25   C27   1.407877 A    
C31   C32   1.408831 A    
C61   H27   1.108206 S    
C20   N10   1.434404 S    
C60   H26   1.109458 S    
N6    O19   1.299433 A    
O1    C1    1.298868 A    
C12   C14   1.407661 A    
C18   C19   1.426771 A    
N11   O32   1.299866 A    
C14   C16   1.413741 A    
C62   H30   1.111007 S    
C65   C66   1.536875 S    
C66   C67   1.525539 S    
C55   H14   1.110644 S    
C39   N1    1.388044 A    
C51   N7    1.436727 S    
C49   N5    1.442878 S    
C40   N2    1.391429 A    
C63   H32   1.107096 S    
C59   C60   1.536085 S    
N2    C42   1.387194 A    
C47   C52   1.422691 A    
N13   O35   1.301282 A    
O4    Cu1   1.955149 S    
C49   C51   1.420632 A    
C42   C44   1.431994 A    
C68   H44   1.116260 S    
C58   H21   1.110083 S    
C3    C5    1.482919 S    
C34   C37   1.393790 A    
C4    C6    1.484499 S    
C30   C32   1.427155 A    
N8    O23   1.301904 A    
C45   C47   1.401156 A    
C69   C70   1.525274 S    
C36   C38   1.394267 A    
C44   C50   1.423661 A    
C70   H49   1.110908 S    
C24   C34   1.385277 A    
O6    C4    1.309727 A    
C57   H19   1.109945 S    
C62   C63   1.536880 S    
C23   H5    1.085931 S    
C50   N6    1.435897 S    
C31   C33   1.408224 A    
N9    O28   1.300958 A    
Cu1   Cu2   2.709968 S    
C17   C20   1.426337 A    
N12   O34   1.300199 A    
C27   C29   1.418499 A    
C67   H43   1.109988 S    
O2    C2    1.300294 A    
C28   C30   1.420700 A    
C39   C47   1.434092 A    
C53   C54   1.529050 S    
O16   C62   1.423120 S    
C35   N13   1.435433 S    
N14   O38   1.301347 A    
C52   N8    1.446626 S    
C64   H35   1.110706 S    
C60   C61   1.525589 S    
C32   C34   1.409657 A    
N1    C41   1.389563 A    
C9    O26   1.385069 S    
C59   H23   1.108745 S    
C20   C22   1.402636 A    
O15   C59   1.425641 S    
C43   C49   1.420795 A    
N5    O17   1.301366 A    
C68   C69   1.527925 S    
N4    O11   1.300798 A    
C53   H10   1.115336 S    
C63   H33   1.106563 S    
C56   H16   1.111131 S    
C55   H13   1.110769 S    
C29   C35   1.422159 A    
C19   N9    1.437349 S    
C11   H2    1.077257 S    
C57   C58   1.527516 S    
C35   C37   1.393428 A    
O8    Cu1   1.914522 S    
C6    C12   1.403037 A    
C44   C46   1.403182 A    
C5    C9    1.411979 A    
O7    Cu2   1.914522 S    
C69   H47   1.110030 S    
C56   H17   1.111759 S    
O7    C3    1.313364 A    
O5    C3    1.303773 A    
C54   H11   1.105058 S    
C24   H6    1.086023 S    
O5    Cu1   1.930082 S    
C6    C10   1.410572 A    
C41   C43   1.427658 A    
C42   O16   1.380549 S    
C70   H50   1.111075 S    
C59   H24   1.113994 S    
C29   C31   1.425275 A    
O3    Cu2   1.955149 S    
O8    C4    1.308488 A    
C40   O14   1.379871 S    
N8    O24   1.300240 A    
C40   C48   1.434375 A    
C54   H12   1.107187 S    
C45   C46   1.420640 A    
C13   C17   1.422163 A    
C11   C13   1.405131 A    
N12   O33   1.300559 A    
O6    Cu2   1.930080 S    
O4    C2    1.297171 A    
C23   C33   1.387141 A    
N3    O10   1.300848 A    
C67   H42   1.110768 S    
N14   O37   1.301051 A    
C65   H38   1.116722 S    
O26   C68   1.414119 S    
C64   H36   1.110358 S    
C30   C36   1.425282 A    
C12   H1    1.079383 S    
N6    O20   1.301437 A    
C68   H45   1.112603 S    
C67   H41   1.110763 S    
C14   C18   1.425070 A    
N4    O12   1.300164 A    
C53   H9    1.110658 S    
O3    C1    1.298211 A    
C55   H15   1.107682 S    
C22   N4    1.433551 S    
C8    C10   1.396292 A    
C36   N14   1.434781 S    
C66   H39   1.111567 S    
C61   H29   1.110830 S    
C33   C38   1.393183 A    
Cu1   N1    2.036014 S    
Cu2   N2    2.036015 S    
C60   H25   1.107766 S    
C69   H46   1.108509 S    
C63   C64   1.525676 S    
C7    C15   1.409290 A    
N10   O29   1.301796 A    
C27   N11   1.435781 S    
N7    O21   1.299650 A    
C19   C21   1.408340 A    
C56   C57   1.535642 S    
C24   C26   1.386425 A    
C66   H40   1.109662 S    
O14   C56   1.425317 S    
C48   C51   1.427088 A    
C26   C28   1.408808 A    
C7    C9    1.404150 A    
C61   H28   1.110459 S    
C37   H7    1.084671 S    
C13   C15   1.414231 A    
C10   O25   1.380134 S    
C57   H18   1.107920 S    
O2    Cu2   1.954929 S    
C21   N3    1.434139 S    
O13   C53   1.422916 S    
C28   N12   1.435625 S    
C5    C11   1.394445 A    
C54   C55   1.524650 S    
O1    Cu1   1.954931 S    
C23   C25   1.387827 A    
C64   H34   1.111087 S    
C1    C26   1.444229 S    
C17   C18   1.417519 A    
C2    C25   1.445697 S    
C65   H37   1.108829 S    
C50   C52   1.422139 A    
C7    H3    1.082076 S    
C62   H31   1.112114 S    
C70   H48   1.110749 S    
C8    H4    1.081309 S    
C38   H8    1.084764 S    
N10   O30   1.300182 A    
N7    O22   1.300395 A    
