data_mof_unit_10481.cif
_audit_creation_date              2012-12-11T15:34:08-0500
_audit_creation_method            fapswitch 2.2
_symmetry_space_group_name_H-M    P1
_symmetry_Int_Tables_number       1
_space_group_crystal_system       triclinic
_cell_length_a                    15.058987
_cell_length_b                    15.068895
_cell_length_c                    34.931198
_cell_angle_alpha                 90.640123
_cell_angle_beta                  90.034433
_cell_angle_gamma                 60.048238
_cell_volume                      6867.48789929

loop_
_atom_site_label
_atom_site_type_symbol
_atom_type_description
_atom_site_fract_x
_atom_site_fract_y
_atom_site_fract_z
_atom_type_partial_charge
C1    C     C_R   0.302452 0.608323 0.555735 0.544122
C2    C     C_R   0.659495 0.670382 0.667348 0.034962
C3    C     C_R   0.213759 0.695624 0.273595 0.288597
C4    C     C_R   0.145957 0.678234 0.295666 0.066011
C5    C     C_R   0.070442 0.664341 0.277910 -0.128082
C6    C     C_R   0.062821 0.666784 0.238179 -0.130560
C7    C     C_R   0.131723 0.681619 0.215795 -0.017384
C8    C     C_R   0.204834 0.566191 0.352263 0.284590
C9    C     C_R   0.244668 0.550253 0.389481 -0.109721
C10   C     C_R   0.185735 0.731625 0.396900 -0.139394
C11   C     C_R   0.147007 0.747989 0.359901 -0.143342
C12   C     C_R   0.161187 0.664985 0.337011 0.076220
C13   C     C_R   0.566467 0.732296 0.648557 -0.122330
C14   C     C_R   0.238650 0.632015 0.411316 -0.014216
C15   C     C_R   0.735922 0.025607 0.943260 0.562929
C16   C     C_R   0.746247 0.722785 0.944961 0.542468
C17   C     C_R   0.038105 0.734013 0.948277 0.541883
C18   C     C_R   0.723248 0.038024 0.053090 0.546046
C19   C     C_R   0.733848 0.734931 0.054948 0.546830
C20   C     C_R   0.026652 0.745434 0.058111 0.545137
C21   C     C_R   0.552904 0.710122 0.610877 -0.130818
C22   C     C_R   0.679707 0.685020 0.786428 0.345419
C23   C     C_R   0.668139 0.681485 0.708966 0.345529
C24   C     C_R   0.774545 0.609120 0.846641 -0.124366
C25   C     C_R   0.789224 0.616495 0.885604 -0.128850
C26   C     C_R   0.625949 0.774084 0.889628 -0.137355
C27   C     C_R   0.611014 0.766517 0.850544 -0.129641
C28   C     C_R   0.687338 0.686202 0.828444 0.036314
C29   C     C_R   0.610677 0.588638 0.555209 0.548109
C30   C     C_R   0.717313 0.701557 0.907101 0.025818
C31   C     C_R   0.724125 0.072200 0.905135 0.032552
C32   C     C_R   0.631972 0.108976 0.884323 0.268443
C33   C     C_R   0.630954 0.130233 0.845258 -0.100723
C34   C     C_R   0.720362 0.113508 0.826647 -0.010097
C35   C     C_R   0.809377 0.084234 0.847801 -0.141782
C36   C     C_R   0.811270 0.063840 0.886714 -0.175414
C37   C     C_R   0.749817 0.186937 0.767638 -0.099523
C38   C     C_R   0.744588 0.199042 0.727628 0.281047
C39   C     C_R   0.707948 0.145723 0.705046 0.036045
C40   C     C_R   0.590325 0.300422 0.553526 0.543374
C41   C     C_R   0.683744 0.076898 0.722429 -0.168871
C42   C     C_R   0.690200 0.064946 0.761930 -0.133497
C43   C     C_R   0.721384 0.121263 0.784775 -0.014133
C44   C     C_R   0.588366 0.192975 0.649981 -0.123398
C45   C     C_R   0.560045 0.229097 0.612892 -0.124494
C46   C     C_R   0.727213 0.211491 0.602399 -0.125207
C47   C     C_R   0.755904 0.174185 0.639423 -0.075251
C48   C     C_R   0.685191 0.168676 0.664005 0.060371
C49   C     C_R   0.627807 0.242426 0.589263 0.021823
C50   C     C_R   0.090728 0.697611 0.911011 0.022262
C51   C     C_R   0.299325 0.610466 0.446405 0.551064
C52   C     C_R   0.120556 0.758646 0.890776 -0.126062
C53   C     C_R   0.143106 0.741483 0.851835 -0.120663
C54   C     C_R   0.137327 0.662430 0.832550 0.032474
C55   C     C_R   0.117117 0.595333 0.853355 -0.116972
C56   C     C_R   0.093765 0.612886 0.892361 -0.124512
C57   C     C_R   0.206507 0.562328 0.771650 -0.110133
C58   C     C_R   0.215043 0.558344 0.731802 -0.106546
C59   C     C_R   0.160049 0.647798 0.710175 0.034000
C60   C     C_R   0.093970 0.740529 0.729078 -0.110017
C61   C     C_R   0.086249 0.744614 0.768857 -0.108321
C62   C     C_R   0.608721 0.590593 0.445607 0.573067
C63   C     C_R   0.143805 0.655954 0.790458 0.031790
C64   C     C_R   0.189757 0.724391 0.651984 -0.116633
C65   C     C_R   0.222975 0.715644 0.614201 -0.124285
C66   C     C_R   0.228539 0.552648 0.607967 -0.124742
C67   C     C_R   0.194889 0.561634 0.645762 -0.118774
C68   C     C_R   0.178714 0.645851 0.668531 0.034563
C69   C     C_R   0.246447 0.627855 0.592294 0.022908
C70   C     C_R   0.694626 0.721613 0.091829 -0.024601
C71   C     C_R   0.609421 0.804763 0.109441 -0.108797
C72   C     C_R   0.584665 0.799776 0.147696 0.264532
C73   C     C_R   0.588568 0.301439 0.444179 0.542989
C74   C     C_R   0.647671 0.711319 0.169075 0.036740
C75   C     C_R   0.728290 0.625895 0.150515 -0.167638
C76   C     C_R   0.751255 0.630782 0.112294 -0.145661
C77   C     C_R   0.643580 0.620845 0.227667 -0.131340
C78   C     C_R   0.648976 0.609489 0.267408 0.235216
C79   C     C_R   0.641555 0.689315 0.291122 0.024333
C80   C     C_R   0.630976 0.778833 0.274545 0.181989
C81   C     C_R   0.629772 0.787263 0.234701 -0.074593
C82   C     C_R   0.636412 0.708265 0.211016 -0.049258
C83   C     C_R   0.549367 0.735002 0.353388 -0.079986
C84   C     C_R   0.632011 0.625359 0.591414 0.025237
C85   C     C_R   0.542531 0.710559 0.391145 -0.159011
C86   C     C_R   0.722453 0.578866 0.389566 0.228964
C87   C     C_R   0.728276 0.604275 0.351618 -0.048838
C88   C     C_R   0.640882 0.678883 0.332950 0.071985
C89   C     C_R   0.627096 0.628849 0.409217 0.030247
C90   C     C_R   0.701282 0.094501 0.089682 0.021002
C91   C     C_R   0.778061 0.105848 0.108092 -0.126257
C92   C     C_R   0.767572 0.134181 0.146657 -0.123759
C93   C     C_R   0.680340 0.151327 0.167307 0.031875
C94   C     C_R   0.599782 0.148977 0.147993 -0.110095
C95   C     C_R   0.727546 0.568414 0.609196 -0.122486
C96   C     C_R   0.609924 0.121347 0.109452 -0.119528
C97   C     C_R   0.585152 0.228918 0.228237 -0.112323
C98   C     C_R   0.580406 0.232329 0.268018 -0.105434
C99   C     C_R   0.667916 0.169399 0.289512 0.036877
C100  C     C_R   0.760295 0.102792 0.270887 -0.099062
C101  C     C_R   0.764640 0.097975 0.231028 -0.110664
C102  C     C_R   0.677171 0.161392 0.209364 0.028608
C103  C     C_R   0.728487 0.205762 0.350504 -0.116478
C104  C     C_R   0.709360 0.237932 0.388657 -0.117050
C105  C     C_R   0.565595 0.207558 0.389607 -0.123690
C106  C     C_R   0.741256 0.590857 0.646793 -0.121054
C107  C     C_R   0.584159 0.176413 0.351406 -0.095127
C108  C     C_R   0.662973 0.179515 0.331298 0.039655
C109  C     C_R   0.624637 0.243778 0.407914 0.020526
C110  C     C_R   0.075849 0.714323 0.095691 0.022808
C111  C     C_R   0.076795 0.632543 0.114958 -0.128022
C112  C     C_R   0.099857 0.618632 0.153807 -0.115606
C113  C     C_R   0.122464 0.686099 0.173843 0.037734
C114  C     C_R   0.129461 0.762664 0.153904 -0.124753
C115  C     C_R   0.106737 0.776455 0.115100 -0.125931
C116  C     C_R   0.207143 0.695751 0.233712 -0.096980
Cr1   Cr    Cr6+3 0.421670 0.426920 0.499620 1.015960
Cr2   Cr    Cr6+3 0.427030 0.651190 0.500980 1.015595
Cr3   Cr    Cr6+3 0.651280 0.421870 0.499380 1.059112
Cr4   Cr    Cr6+3 0.910810 0.908010 0.001130 1.007789
Cr5   Cr    Cr6+3 0.682800 0.909890 0.998370 1.019731
Cr6   Cr    Cr6+3 0.908370 0.682300 0.002180 1.010653
H1    H     H_    0.790191 0.503169 0.594793 0.134279
H2    H     H_    0.883100 0.035529 0.901793 0.137004
H3    H     H_    0.832008 0.153056 0.649315 0.115737
H4    H     H_    0.771339 0.232239 0.785520 0.108991
H5    H     H_    0.560896 0.157459 0.829108 0.110992
H6    H     H_    0.656919 0.034459 0.705435 0.121017
H7    H     H_    0.668997 0.013032 0.774826 0.126587
H8    H     H_    0.532454 0.189379 0.668413 0.105205
H9    H     H_    0.482889 0.252363 0.603622 0.129257
H10   H     H_    0.878854 0.071981 0.833795 0.111409
H11   H     H_    0.478485 0.755810 0.597844 0.128761
H12   H     H_    0.781389 0.219959 0.584642 0.121192
H13   H     H_    0.119691 0.824059 0.904341 0.125689
H14   H     H_    0.071137 0.564465 0.907170 0.124144
H15   H     H_    0.185009 0.500975 0.657592 0.102699
H16   H     H_    0.267775 0.486051 0.718072 0.105941
H17   H     H_    0.251344 0.493114 0.787845 0.105517
H18   H     H_    0.160664 0.792808 0.836366 0.106420
H19   H     H_    0.049316 0.810218 0.713130 0.102496
H20   H     H_    0.035405 0.817243 0.782829 0.107399
H21   H     H_    0.178791 0.789822 0.668882 0.103202
H22   H     H_    0.860214 0.558825 0.898238 0.127614
H23   H     H_    0.236026 0.774895 0.602965 0.126752
H24   H     H_    0.112658 0.533633 0.838969 0.104278
H25   H     H_    0.245286 0.484392 0.591687 0.125350
H26   H     H_    0.564297 0.875672 0.094210 0.138663
H27   H     H_    0.817337 0.565323 0.099516 0.137759
H28   H     H_    0.800134 0.562757 0.336087 0.121897
H29   H     H_    0.646340 0.560658 0.209648 0.122466
H30   H     H_    0.814305 0.542232 0.660327 0.126767
H31   H     H_    0.626477 0.854359 0.222269 0.191797
H32   H     H_    0.481549 0.793851 0.339519 0.130406
H33   H     H_    0.468574 0.751792 0.405278 0.139639
H34   H     H_    0.777614 0.556933 0.166212 0.109486
H35   H     H_    0.848968 0.086534 0.093461 0.124522
H36   H     H_    0.549195 0.113716 0.096014 0.133729
H37   H     H_    0.533782 0.155018 0.336958 0.138322
H38   H     H_    0.508958 0.285794 0.282084 0.130189
H39   H     H_    0.516975 0.279226 0.212240 0.111164
H40   H     H_    0.502433 0.794872 0.663485 0.129186
H41   H     H_    0.829655 0.138017 0.160770 0.095866
H42   H     H_    0.828518 0.054171 0.287186 0.110590
H43   H     H_    0.836002 0.043606 0.217183 0.106010
H44   H     H_    0.789540 0.208719 0.335252 0.104173
H45   H     H_    0.756490 0.264879 0.402128 0.154169
H46   H     H_    0.531817 0.161408 0.163222 0.117064
H47   H     H_    0.501020 0.209438 0.404016 0.127299
H48   H     H_    0.053804 0.583103 0.100669 0.126354
H49   H     H_    0.107062 0.839918 0.100974 0.124213
H50   H     H_    0.112126 0.824312 0.348165 0.102269
H51   H     H_    0.833682 0.544998 0.830514 0.121893
H52   H     H_    0.262277 0.704654 0.216757 0.107674
H53   H     H_    0.096339 0.557537 0.168500 0.106298
H54   H     H_    0.018413 0.650461 0.294830 0.129547
H55   H     H_    0.002834 0.657511 0.224958 0.121407
H56   H     H_    0.287512 0.472839 0.400048 0.129920
H57   H     H_    0.146383 0.815848 0.168765 0.094161
H58   H     H_    0.179593 0.795848 0.413338 0.134966
H59   H     H_    0.568513 0.839346 0.905705 0.106411
H60   H     H_    0.542229 0.826163 0.837364 0.121932
N1    N     N_R   0.763438 0.622349 0.764974 -0.252494
N2    N     N_R   0.757734 0.620461 0.727048 -0.255663
N3    N     N_R   0.584621 0.745588 0.730379 -0.236981
N4    N     N_R   0.590407 0.747757 0.768383 -0.239230
O1    O     O_R   0.502070 0.323090 0.541280 -0.520202
O2    O     O_R   0.520720 0.641670 0.461580 -0.516485
O3    O     O_R   0.674120 0.502090 0.457500 -0.442555
O4    O     O_R   0.640110 0.338380 0.459630 -0.498091
O5    O     O_3   0.499990 0.499990 0.499990 -0.245198
O6    O     O_R   0.017640 0.822070 0.960410 -0.522221
O7    O     O_R   0.822000 0.989470 0.960340 -0.515528
O8    O     O_R   0.666920 0.007430 0.955290 -0.473876
O9    O     O_R   0.694410 0.812480 0.959650 -0.508501
O10   O     O_R   0.831550 0.656950 0.958960 -0.521376
O11   O     O_R   0.998590 0.685540 0.963930 -0.502306
O12   O     O_R   0.338340 0.520690 0.539540 -0.501637
O13   O     O_R   0.008220 0.831200 0.045060 -0.520791
O14   O     O_R   0.813270 0.997930 0.038810 -0.501985
O15   O     O_R   0.657500 0.016560 0.039940 -0.518814
O16   O     O_R   0.685680 0.820940 0.038120 -0.504938
O17   O     O_R   0.822130 0.666070 0.043610 -0.516644
O18   O     O_R   0.989860 0.694000 0.042400 -0.501845
O19   O     O_3   0.833990 0.833400 0.000560 -0.238925
O20   O     O_R   0.324760 0.674070 0.543580 -0.521142
O21   O     O_R   0.522400 0.640310 0.540110 -0.505166
O22   O     O_R   0.675940 0.500630 0.542210 -0.510921
O23   O     O_R   0.641790 0.337020 0.538150 -0.501670
O24   O     O_R   0.500260 0.324550 0.456580 -0.521975
O25   O     O_R   0.336660 0.522040 0.461020 -0.503599
O26   O     O_R   0.322940 0.675540 0.458880 -0.515889
O27   O     O_3   0.759347 0.273893 0.710957 -0.567333
C117  C     C_3   0.857782 0.259673 0.719165 -0.012845
H61   H     H_    0.898727 0.248361 0.691507 0.139592
H62   H     H_    0.907373 0.191132 0.736808 0.104212
C118  C     C_3   0.846076 0.356151 0.738792 -0.237887
H63   H     H_    0.800665 0.422917 0.720094 0.206170
H64   H     H_    0.804097 0.369674 0.766329 0.167074
C119  C     C_3   0.950064 0.346975 0.746540 -0.477993
H65   H     H_    0.996511 0.280955 0.765436 0.134656
H66   H     H_    0.938899 0.417829 0.761005 0.176940
H67   H     H_    0.992119 0.336522 0.719226 0.144512
O28   O     O_3   0.655012 0.522793 0.283236 -0.553266
C120  C     C_3   0.757006 0.439714 0.280727 0.007206
H68   H     H_    0.779734 0.406579 0.309762 0.166128
H69   H     H_    0.814746 0.461560 0.271720 0.106091
C121  C     C_3   0.762272 0.356805 0.253576 -0.254054
H70   H     H_    0.708403 0.331814 0.263661 0.194826
H71   H     H_    0.739220 0.387964 0.224351 0.154239
C122  C     C_3   0.870497 0.264498 0.251644 -0.488548
H72   H     H_    0.925950 0.288321 0.242346 0.142244
H73   H     H_    0.873104 0.207583 0.230583 0.145746
H74   H     H_    0.893429 0.227799 0.280087 0.142432
O29   O     O_3   0.502854 0.884686 0.164436 -0.584738
C123  C     C_3   0.413953 0.876806 0.159509 0.005684
H75   H     H_    0.416080 0.818919 0.179531 0.138469
H76   H     H_    0.406944 0.854154 0.129587 0.121152
C124  C     C_3   0.319559 0.980981 0.168058 -0.250411
H77   H     H_    0.327821 0.010169 0.196371 0.176703
H78   H     H_    0.313326 0.036422 0.146014 0.162885
C125  C     C_3   0.221706 0.974296 0.168031 -0.496559
H79   H     H_    0.211555 0.945775 0.139834 0.143230
H80   H     H_    0.154602 0.051448 0.173603 0.142650
H81   H     H_    0.224791 0.922076 0.190825 0.137345
Cl1   Cl    Cl    0.622686 0.880204 0.302839 -0.649673
Cl2   Cl    Cl    0.836125 0.482187 0.410236 -0.624948
O30   O     O_3   0.293186 0.701650 0.290971 -0.549033
C126  C     C_3   0.272966 0.804094 0.291154 -0.002831
H82   H     H_    0.276521 0.826147 0.321342 0.148678
H83   H     H_    0.195664 0.861444 0.280155 0.098277
C127  C     C_3   0.355620 0.810391 0.268037 -0.258441
H84   H     H_    0.432200 0.752149 0.278442 0.198621
H85   H     H_    0.349939 0.793146 0.237502 0.145482
C128  C     C_3   0.344800 0.916374 0.271526 -0.476672
H86   H     H_    0.269704 0.975333 0.260039 0.137974
H87   H     H_    0.406988 0.917747 0.255006 0.190695
H88   H     H_    0.350611 0.935232 0.301907 0.158023
O31   O     O_3   0.224762 0.484598 0.327975 -0.569751
C129  C     C_3   0.192771 0.419069 0.343946 0.002649
H89   H     H_    0.136590 0.416424 0.324006 0.153531
H90   H     H_    0.153046 0.445109 0.372251 0.130211
C130  C     C_3   0.285272 0.311125 0.347097 -0.264137
H91   H     H_    0.321343 0.284125 0.318400 0.177559
H92   H     H_    0.342767 0.312868 0.366489 0.158791
C131  C     C_3   0.254612 0.235860 0.362535 -0.474589
H93   H     H_    0.220389 0.260182 0.391593 0.162982
H94   H     H_    0.323543 0.158520 0.364370 0.157706
H95   H     H_    0.198373 0.231427 0.343169 0.152006
O32   O     O_3   0.542318 0.128334 0.902679 -0.552283
C132  C     C_3   0.505788 0.064556 0.887874 0.021579
H96   H     H_    0.501637 0.019413 0.912004 0.160130
H97   H     H_    0.556097 0.008069 0.865518 0.111133
C133  C     C_3   0.397676 0.130699 0.872082 -0.270017
H98   H     H_    0.346190 0.180920 0.895353 0.175210
H99   H     H_    0.398749 0.180255 0.849005 0.158735
C134  C     C_3   0.355316 0.064756 0.856024 -0.491704
H100  H     H_    0.403421 0.016982 0.831657 0.151168
H101  H     H_    0.276039 0.114853 0.845620 0.146722
H102  H     H_    0.353626 0.014191 0.878570 0.143384

loop_
_geom_bond_atom_site_label_1
_geom_bond_atom_site_label_2
_ccdc_geom_bond_type
Cr6   O17   S    
C130  C131  S    
C96   H36   S    
C55   C56   A    
C128  H87   S    
C99   C100  A    
C22   N4    A    
C86   Cl2   S    
C132  C133  S    
C133  C134  S    
C41   C42   A    
C32   O32   S    
C35   C36   A    
Cr6   O19   S    
Cr3   O4    S    
Cr5   O19   S    
C9    C14   A    
O28   C120  S    
C77   H29   S    
C15   C31   S    
C121  H71   S    
C114  C115  A    
N3    N4    A    
C13   H40   S    
C39   C41   A    
C83   H32   S    
C77   C78   A    
C44   C45   A    
C118  C119  S    
C99   C108  S    
C105  C107  A    
C46   C49   A    
C126  H82   S    
C101  C102  A    
C29   O22   A    
C105  H47   S    
Cr4   O19   S    
C64   C68   A    
C127  H85   S    
Cr1   O24   S    
C36   H2    S    
Cr3   O5    S    
Cr5   O16   S    
C37   H4    S    
C3    C116  A    
Cr4   O6    S    
C5    C6    A    
C59   C68   S    
C98   C99   A    
C117  H62   S    
C66   C69   A    
C54   C63   S    
C44   H8    S    
C40   C49   S    
C53   H18   S    
C62   C89   S    
C97   C98   A    
C128  H86   S    
C33   H5    S    
C120  C121  S    
C81   H31   S    
C123  H75   S    
C57   H17   S    
Cr2   O26   S    
C133  H98   S    
C85   H33   S    
Cr6   O18   S    
Cr4   O13   S    
C61   C63   A    
C2    C13   A    
C110  C111  A    
C119  H65   S    
Cr1   O5    S    
C34   C35   A    
Cr4   O14   S    
C46   C47   A    
C15   O8    A    
C10   C14   A    
C75   H34   S    
C78   C79   A    
C124  H77   S    
C8    C9    A    
C26   H59   S    
C87   H28   S    
C97   C102  A    
C50   C52   A    
O29   C123  S    
C17   O11   A    
C70   C71   A    
C45   C49   A    
C122  H74   S    
C59   C60   A    
C73   O4    A    
C8    C12   A    
C76   H27   S    
C58   H16   S    
C1    O12   A    
C1    C69   S    
C83   C88   A    
C128  H88   S    
C11   H50   S    
C22   C28   S    
C134  H100  S    
C104  C109  A    
C41   H6    S    
C74   C82   S    
C129  C130  S    
C24   H51   S    
C51   O26   A    
C21   H11   S    
C112  C113  A    
C56   H14   S    
C103  C104  A    
C57   C63   A    
C62   O3    A    
C57   C58   A    
C17   O6    A    
C86   C89   A    
C47   H3    S    
C126  H83   S    
C125  H81   S    
C106  H30   S    
C74   C75   A    
C67   C68   A    
C18   C90   S    
C47   C48   A    
Cr3   O3    S    
C73   O24   A    
Cr1   O25   S    
C33   C34   A    
C24   C25   A    
C20   O18   A    
C29   C84   S    
C72   C74   A    
Cr1   O1    S    
C94   H46   S    
C91   C92   A    
C23   N3    A    
Cr2   O2    S    
C86   C87   A    
C129  H89   S    
C55   H24   S    
C121  H70   S    
C58   C59   A    
C53   C54   A    
C40   O23   A    
C124  H78   S    
C19   O16   A    
C81   C82   A    
C3    C4    A    
C40   O1    A    
C60   C61   A    
C84   C95   A    
C15   O7    A    
C7    C116  A    
C37   C43   A    
C17   C50   S    
C101  H43   S    
C75   C76   A    
C100  H42   S    
N1    N2    A    
C37   C38   A    
C16   O10   A    
C95   C106  A    
C60   H19   S    
C46   H12   S    
Cr2   O5    S    
C125  H80   S    
C14   C51   S    
C66   C67   A    
C21   C84   A    
O27   C117  S    
C20   O13   A    
C107  C108  A    
C19   O17   A    
C120  H68   S    
C26   C27   A    
C13   C21   A    
C122  H73   S    
C93   C94   A    
C94   C96   A    
C1    O20   A    
C66   H25   S    
C103  C108  A    
C79   C88   S    
C103  H44   S    
C127  C128  S    
C20   C110  S    
C92   H41   S    
C129  H90   S    
C83   C85   A    
C98   H38   S    
C45   H9    S    
C97   H39   S    
C10   C11   A    
C134  H101  S    
C6    H55   S    
C18   O14   A    
C5    H54   S    
C80   Cl1   S    
C131  H95   S    
C115  H49   S    
C4    C12   S    
C3    O30   S    
C38   O27   S    
C65   H23   S    
O31   C129  S    
C44   C48   A    
Cr5   O8    S    
C2    C23   S    
C52   C53   A    
C62   O2    A    
C113  C114  A    
C95   H1    S    
C25   C30   A    
C132  H97   S    
C105  C109  A    
C54   C55   A    
C126  C127  S    
C85   C89   A    
C111  C112  A    
C125  H79   S    
C117  H61   S    
Cr3   O23   S    
C31   C32   A    
C34   C43   S    
C24   C28   A    
Cr6   O10   S    
C80   C81   A    
C117  C118  S    
C29   O21   A    
C93   C102  S    
C107  H37   S    
C11   C12   A    
C72   O29   S    
C90   C96   A    
C6    C7    A    
C64   H21   S    
C118  H64   S    
Cr4   O7    S    
C131  H94   S    
C123  C124  S    
C116  H52   S    
C119  H66   S    
C111  H48   S    
C10   H58   S    
C64   C65   A    
C7    C113  S    
C8    O31   S    
C130  H91   S    
Cr2   O21   S    
C118  H63   S    
C27   H60   S    
Cr5   O15   S    
C23   N2    A    
C16   O9    A    
C130  H92   S    
O30   C126  S    
C32   C33   A    
C104  H45   S    
C70   C76   A    
Cr2   O20   S    
C90   C91   A    
C38   C39   A    
C77   C82   A    
C65   C69   A    
C35   H10   S    
C92   C93   A    
C120  H69   S    
C123  H76   S    
C71   H26   S    
C18   O15   A    
C133  H99   S    
C73   C109  S    
C119  H67   S    
Cr6   O11   S    
C67   H15   S    
C50   C56   A    
C91   H35   S    
C131  H93   S    
Cr1   O12   S    
C2    C106  A    
C79   C80   A    
C25   H22   S    
C124  C125  S    
C51   O25   A    
C61   H20   S    
C4    C5    A    
C112  H53   S    
C42   H7    S    
C87   C88   A    
C114  H57   S    
C42   C43   A    
C134  H102  S    
C122  H72   S    
C52   H13   S    
C31   C36   A    
C39   C48   S    
C19   C70   S    
C100  C101  A    
Cr3   O22   S    
C22   N1    A    
C71   C72   A    
C16   C30   S    
C110  C115  A    
Cr5   O9    S    
C121  C122  S    
O32   C132  S    
C9    H56   S    
C132  H96   S    
C78   O28   S    
C127  H84   S    
C27   C28   A    
C26   C30   A    
