data_mof_unit_8664.cif
_audit_creation_date              2012-12-11T14:44:27-0500
_audit_creation_method            fapswitch 2.2
_symmetry_space_group_name_H-M    P1
_symmetry_Int_Tables_number       1
_space_group_crystal_system       triclinic
_cell_length_a                    24.974489
_cell_length_b                    16.790478
_cell_length_c                    15.632582
_cell_angle_alpha                 90.212069
_cell_angle_beta                  49.801814
_cell_angle_gamma                 90.004298
_cell_volume                      5006.96359576

loop_
_atom_site_label
_atom_site_type_symbol
_atom_type_description
_atom_site_fract_x
_atom_site_fract_y
_atom_site_fract_z
_atom_type_partial_charge
Br1   Br    Br    0.711456 0.880048 0.609629 -0.539925
Br2   Br    Br    0.248433 0.037188 0.379835 -0.516198
Br3   Br    Br    0.203960 0.882904 0.598582 -0.531468
Br4   Br    Br    0.845403 0.033654 0.390412 -0.513556
Br5   Br    Br    0.214452 0.377187 0.615221 -0.538692
Br6   Br    Br    0.745559 0.533046 0.388868 -0.509251
Br7   Br    Br    0.696944 0.380169 0.605055 -0.526837
Br8   Br    Br    0.341391 0.530209 0.398586 -0.507110
C1    C     C_R   0.353680 0.148253 0.752960 -0.115343
C2    C     C_3   0.697476 0.698771 0.607050 -0.270318
C3    C     C_3   0.789115 0.174029 0.559130 -0.227417
C4    C     C_3   0.264424 0.742703 0.435242 -0.230880
C5    C     C_3   0.751953 0.716408 0.392899 -0.277414
C6    C     C_3   0.198722 0.197131 0.605140 -0.271289
C7    C     C_3   0.287491 0.672651 0.563849 -0.224067
C8    C     C_3   0.760867 0.242969 0.436699 -0.225550
C9    C     C_2   0.693767 0.158154 0.021519 -0.200531
C10   C     C_2   0.303763 0.849541 0.984734 -0.204438
C11   C     C_2   0.362689 0.267475 0.842634 -0.198159
C12   C     C_R   0.666372 0.888472 0.197650 -0.126993
C13   C     C_2   0.696804 0.850788 0.013766 -0.201040
C14   C     C_2   0.137659 0.766283 0.156642 -0.202797
C15   C     C_2   0.847448 0.251714 0.879687 -0.203391
C16   C     C_2   0.862713 0.767558 0.842680 -0.199741
C17   C     C_2   0.196453 0.349453 0.014549 -0.201456
C18   C     C_2   0.762748 0.147572 0.960419 -0.105433
C19   C     C_2   0.234321 0.856969 0.045948 -0.094597
C20   C     C_2   0.312775 0.309076 0.853691 -0.085848
C21   C     C_2   0.766144 0.859100 0.952516 -0.106315
C22   C     C_2   0.187984 0.807573 0.144713 -0.082712
C23   C     C_R   0.664859 0.115916 0.201752 -0.110627
C24   C     C_2   0.809044 0.202787 0.870577 -0.107173
C25   C     C_2   0.812959 0.809369 0.853499 -0.086076
C26   C     C_2   0.265758 0.358362 0.953057 -0.105466
C27   C     C_R   0.614171 0.107986 0.592726 -0.095107
C28   C     C_R   0.412221 0.852367 0.405864 -0.071194
C29   C     C_R   0.385920 0.107774 0.407184 -0.118443
C30   C     C_R   0.587609 0.851328 0.592271 -0.072207
C31   C     C_R   0.113726 0.609303 0.593056 -0.097540
C32   C     C_R   0.910856 0.354017 0.404989 -0.070156
C33   C     C_R   0.885410 0.608486 0.407989 -0.129655
C34   C     C_R   0.333829 0.888316 0.801798 -0.131916
C35   C     C_R   0.093074 0.354675 0.590933 -0.080393
C36   C     C_R   0.689248 0.107010 0.406158 -0.118962
C37   C     C_R   0.337615 0.852228 0.592865 -0.071622
C38   C     C_R   0.310495 0.106095 0.593753 -0.102484
C39   C     C_R   0.664650 0.853742 0.405230 -0.071456
C40   C     C_R   0.189173 0.607507 0.406744 -0.135271
C41   C     C_R   0.833773 0.355160 0.591928 -0.085483
C42   C     C_R   0.810683 0.607662 0.594290 -0.103824
C43   C     C_R   0.167312 0.355949 0.403981 -0.072556
C44   C     C_R   0.576550 0.111633 0.199380 -0.129064
C45   C     C_R   0.853676 0.648283 0.753027 -0.112628
C46   C     C_R   0.421939 0.891942 0.803587 -0.151545
C47   C     C_R   0.442216 0.144952 0.755404 -0.125781
C48   C     C_R   0.578287 0.892139 0.195882 -0.149316
C49   C     C_R   0.057804 0.644585 0.244547 -0.130355
C50   C     C_R   0.933084 0.366571 0.777621 -0.139035
C51   C     C_R   0.942186 0.644954 0.755467 -0.126743
C52   C     C_R   0.078096 0.391558 0.196274 -0.146760
C53   C     C_R   0.386495 0.191011 0.783437 0.142499
C54   C     C_R   0.648250 0.872060 0.132780 0.150649
C55   C     C_R   0.645776 0.134037 0.138499 0.142576
C56   C     C_R   0.166196 0.387824 0.198066 -0.122337
C57   C     C_R   0.352119 0.871575 0.866277 0.148484
C58   C     C_R   0.886480 0.691044 0.783513 0.141031
C59   C     C_R   0.147947 0.371010 0.133444 0.147425
C60   C     C_R   0.113651 0.690379 0.216278 0.142416
C61   C     C_R   0.873486 0.325304 0.816083 0.147935
C62   C     C_R   0.681126 0.124903 0.499326 0.139818
C63   C     C_R   0.361736 0.808629 0.498962 0.069722
C64   C     C_R   0.318634 0.123815 0.500785 0.142669
C65   C     C_R   0.640109 0.809126 0.497820 0.071587
C66   C     C_R   0.180671 0.626994 0.499988 0.140806
C67   C     C_R   0.146407 0.647854 0.246890 -0.116836
C68   C     C_R   0.858424 0.312041 0.497782 0.075835
C69   C     C_R   0.818454 0.626339 0.501829 0.141675
C70   C     C_R   0.145380 0.313299 0.496062 0.079922
C71   C     C_3   0.290317 0.243947 0.441409 -0.222595
C72   C     C_3   0.661552 0.671486 0.559851 -0.219486
C73   C     C_3   0.715207 0.199702 0.604459 -0.272236
C74   C     C_3   0.336542 0.713679 0.393217 -0.277894
C75   C     C_3   0.787183 0.743833 0.440473 -0.227006
C76   C     C_3   0.164419 0.173648 0.554064 -0.219130
C77   C     C_3   0.215093 0.701563 0.605459 -0.270494
C78   C     C_R   0.844482 0.363501 0.776783 -0.130703
C79   C     C_3   0.834473 0.217132 0.390987 -0.277405
C80   C     C_3   0.717792 0.778012 0.544671 0.429503
C81   C     C_3   0.235309 0.139057 0.449500 0.444091
C82   C     C_3   0.247916 0.779154 0.539767 0.433359
C83   C     C_3   0.804512 0.137419 0.454003 0.447739
C84   C     C_3   0.220747 0.277662 0.545509 0.426433
C85   C     C_3   0.732250 0.636509 0.455107 0.446122
C86   C     C_3   0.744561 0.278670 0.541343 0.431638
C87   C     C_3   0.303176 0.635374 0.458760 0.447443
C88   C     C_3   0.682476 0.751019 0.497816 0.016765
C89   C     C_3   0.256679 0.220296 0.390004 -0.275476
C90   C     C_3   0.268286 0.163297 0.500515 0.019304
C91   C     C_3   0.319466 0.750591 0.498521 0.017094
C92   C     C_3   0.731940 0.163857 0.499240 0.020454
C93   C     C_3   0.187094 0.254419 0.494853 0.013876
C94   C     C_3   0.766865 0.664470 0.502246 0.018272
C95   C     C_3   0.817530 0.253300 0.496420 0.014653
C96   C     C_3   0.232084 0.664954 0.500313 0.019369
H1    H     H_    0.307626 0.164299 0.764236 0.095565
H2    H     H_    0.439296 0.838290 0.319079 0.098595
H3    H     H_    0.407742 0.108801 0.320810 0.117145
H4    H     H_    0.560118 0.835836 0.678647 0.115229
H5    H     H_    0.092481 0.608684 0.679078 0.101392
H6    H     H_    0.938347 0.340257 0.317987 0.097726
H7    H     H_    0.906197 0.608260 0.322171 0.117301
H8    H     H_    0.071728 0.341815 0.675079 0.117883
H9    H     H_    0.737140 0.107130 0.319708 0.113586
H10   H     H_    0.294899 0.837259 0.679166 0.112732
H11   H     H_    0.262440 0.105065 0.679977 0.103048
H12   H     H_    0.718593 0.890358 0.170342 0.086965
H13   H     H_    0.708113 0.840282 0.318523 0.097066
H14   H     H_    0.237504 0.606606 0.320714 0.115709
H15   H     H_    0.786907 0.343116 0.676210 0.113721
H16   H     H_    0.762690 0.606589 0.680565 0.103520
H17   H     H_    0.210549 0.343041 0.316985 0.096564
H18   H     H_    0.548226 0.108630 0.168716 0.101774
H19   H     H_    0.449866 0.896569 0.834816 0.109931
H20   H     H_    0.478448 0.160675 0.768388 0.106530
H21   H     H_    0.550424 0.897075 0.164594 0.103937
H22   H     H_    0.021565 0.660177 0.231558 0.103931
H23   H     H_    0.716668 0.117354 0.176242 0.087866
H24   H     H_    0.962985 0.357629 0.804349 0.101297
H25   H     H_    0.978341 0.660666 0.768599 0.105997
H26   H     H_    0.050264 0.396333 0.164919 0.105480
H27   H     H_    0.342394 0.272354 0.396115 0.177656
H28   H     H_    0.609415 0.642862 0.607515 0.166939
H29   H     H_    0.665828 0.192743 0.692109 0.156514
H30   H     H_    0.387087 0.718241 0.306320 0.157944
H31   H     H_    0.839101 0.773189 0.392396 0.175591
H32   H     H_    0.112037 0.146312 0.598902 0.166267
H33   H     H_    0.164752 0.697003 0.692580 0.157186
H34   H     H_    0.281627 0.890027 0.829001 0.094080
H35   H     H_    0.884133 0.224129 0.303623 0.157660
H36   H     H_    0.279587 0.229806 0.301977 0.157879
H37   H     H_    0.675796 0.691669 0.694813 0.157070
H38   H     H_    0.802430 0.147203 0.608151 0.162959
H39   H     H_    0.253871 0.771057 0.383327 0.170053
H40   H     H_    0.773556 0.723267 0.305147 0.157933
H41   H     H_    0.175589 0.187477 0.693257 0.157175
H42   H     H_    0.298548 0.644925 0.615380 0.166794
H43   H     H_    0.748155 0.270776 0.387316 0.175754
H44   H     H_    0.212352 0.886576 0.013125 0.132326
H45   H     H_    0.807577 0.664373 0.764481 0.095125
H46   H     H_    0.783893 0.113025 0.991233 0.130299
H47   H     H_    0.787728 0.889227 0.985793 0.128361
H48   H     H_    0.296524 0.293466 0.805995 0.143837
H49   H     H_    0.800402 0.214725 0.811978 0.132203
H50   H     H_    0.204712 0.792103 0.191674 0.135050
H51   H     H_    0.287313 0.388813 0.986176 0.131529
H52   H     H_    0.796705 0.793758 0.805807 0.142089
H53   H     H_    0.325041 0.819579 0.018642 0.137716
H54   H     H_    0.673266 0.193384 0.989998 0.140159
H55   H     H_    0.675888 0.820330 0.979439 0.142072
H56   H     H_    0.218438 0.389484 0.170668 0.088348
H57   H     H_    0.378189 0.283147 0.891485 0.139431
H58   H     H_    0.855525 0.240227 0.939055 0.139378
H59   H     H_    0.121669 0.781866 0.108547 0.138985
H60   H     H_    0.175571 0.318656 0.980381 0.142941
H61   H     H_    0.878234 0.783227 0.891502 0.138644
H62   H     H_    0.192525 0.663720 0.235476 0.092160
H63   H     H_    0.792907 0.353894 0.804072 0.097949
H64   H     H_    0.592966 0.107325 0.678729 0.101479
N1    N     N_R   0.389620 0.081040 0.705440 -0.048758
N2    N     N_R   0.417680 0.920160 0.443370 -0.042824
N3    N     N_R   0.417680 0.079840 0.443370 -0.047157
N4    N     N_R   0.582320 0.920160 0.556630 -0.039148
N5    N     N_R   0.082320 0.579840 0.556630 -0.048152
N6    N     N_R   0.917680 0.420160 0.443370 -0.043218
N7    N     N_R   0.917680 0.579840 0.443370 -0.047131
N8    N     N_R   0.082320 0.420160 0.556630 -0.041024
N9    N     N_R   0.627920 0.078930 0.443400 -0.047420
N10   N     N_R   0.372080 0.921070 0.556600 -0.039379
N11   N     N_R   0.372080 0.078930 0.556600 -0.049375
N12   N     N_R   0.610380 0.918960 0.294560 -0.049555
N13   N     N_R   0.627920 0.921070 0.443400 -0.044043
N14   N     N_R   0.127920 0.578930 0.443400 -0.046968
N15   N     N_R   0.872080 0.421070 0.556600 -0.039404
N16   N     N_R   0.872080 0.578930 0.556600 -0.048461
N17   N     N_R   0.127920 0.421070 0.443400 -0.044366
N18   N     N_R   0.555090 0.077730 0.294590 -0.045047
N19   N     N_R   0.444910 0.922270 0.705410 -0.047605
N20   N     N_R   0.444910 0.077730 0.705410 -0.046780
N21   N     N_R   0.555090 0.922270 0.294590 -0.046956
N22   N     N_R   0.055090 0.577730 0.294590 -0.046042
N23   N     N_R   0.610380 0.081040 0.294560 -0.047687
N24   N     N_R   0.944910 0.422270 0.705410 -0.046356
N25   N     N_R   0.944910 0.577730 0.705410 -0.047572
N26   N     N_R   0.055090 0.422270 0.294590 -0.047578
N27   N     N_R   0.389620 0.918960 0.705440 -0.049911
N28   N     N_R   0.889620 0.581040 0.705440 -0.049261
N29   N     N_R   0.110380 0.418960 0.294560 -0.049937
N30   N     N_R   0.110380 0.581040 0.294560 -0.048369
N31   N     N_R   0.889620 0.418960 0.705440 -0.048466
N32   N     N_R   0.582320 0.079840 0.556630 -0.049068
Ni1   Ni    Ni4+2 0.382970 1.000000 0.629840 0.228147
Ni2   Ni    Ni4+2 0.617030 0.000000 0.370160 0.219566
Ni3   Ni    Ni4+2 0.882970 0.500000 0.629840 0.233427
Ni4   Ni    Ni4+2 0.117030 0.500000 0.370160 0.222552
Ni5   Ni    Ni4+2 0.514540 1.000000 0.629840 0.230036
Ni6   Ni    Ni4+2 0.485460 0.000000 0.370160 0.223307
Ni7   Ni    Ni4+2 0.014540 0.500000 0.629840 0.232824
Ni8   Ni    Ni4+2 0.985460 0.500000 0.370160 0.225173

loop_
_geom_bond_atom_site_label_1
_geom_bond_atom_site_label_2
_ccdc_geom_bond_type
N31   Ni3   S    
C46   H19   S    
C80   C88   S    
C29   H3    S    
C50   H24   S    
N32   Ni5   S    
C72   H28   S    
C75   C94   S    
C21   C25   S    
C8    C86   S    
C37   C63   A    
C74   C91   S    
C15   C61   S    
C71   C90   S    
C1    N1    A    
N13   Ni2   S    
C17   C59   S    
C23   H23   S    
C31   N5    A    
C25   H52   S    
C52   N26   A    
N8    N17   A    
C12   N12   A    
C46   C57   A    
C64   C90   S    
C26   H51   S    
C51   N25   A    
C10   C57   S    
C18   C24   S    
C6    H41   S    
C2    C80   S    
C38   H11   S    
N2    N10   A    
Br3   C82   S    
N25   Ni7   S    
C9    C18   D    
N8    Ni7   S    
C4    C82   S    
N4    Ni5   S    
C39   N13   A    
C4    C96   S    
N12   Ni2   S    
N12   N21   A    
C51   C58   A    
C33   C69   A    
C5    H40   S    
N26   N29   A    
C34   H34   S    
C18   H46   S    
C17   H60   S    
C1    H1    S    
C23   N23   A    
N22   N30   A    
N29   Ni4   S    
C11   H57   S    
C31   C66   A    
N18   N23   A    
C41   N15   A    
C44   H18   S    
C37   H10   S    
C51   H25   S    
N11   Ni1   S    
C27   C62   A    
C19   H44   S    
N9    N32   A    
C8    C79   S    
C60   C67   A    
C36   C62   A    
N23   Ni2   S    
C6    C76   S    
C83   C92   S    
C72   C88   S    
C89   H36   S    
C38   C64   A    
C28   C63   A    
C16   C58   S    
C17   C26   D    
C7    C77   S    
C15   H58   S    
N25   N28   A    
Br1   C80   S    
C75   C80   S    
C33   N7    A    
C20   C26   S    
N16   Ni3   S    
C56   N29   A    
C19   C22   S    
N6    Ni8   S    
C76   C93   S    
C13   H55   S    
N3    N11   A    
C69   C94   S    
C29   C64   A    
Br8   C87   S    
C44   N18   A    
N7    Ni8   S    
N4    N13   A    
C62   C92   S    
C27   N32   A    
C6    C90   S    
N20   Ni5   S    
C79   C83   S    
N18   Ni6   S    
C5    C88   S    
C28   H2    S    
C56   C59   A    
C23   C55   A    
C2    C94   S    
C52   C59   A    
C36   N9    A    
C52   H26   S    
C49   H22   S    
C12   H12   S    
C2    C72   S    
C8    C92   S    
C32   H6    S    
C33   H7    S    
C39   C65   A    
C48   H21   S    
C63   C91   S    
C44   C55   A    
C3    C73   S    
C32   C68   A    
C5    C85   S    
C35   C70   A    
C2    H37   S    
C74   H30   S    
Br2   C81   S    
C12   C54   A    
C11   C20   D    
C40   C66   A    
C34   C57   A    
C35   N8    A    
C39   H13   S    
N21   Ni6   S    
C77   C82   S    
Br6   C85   S    
C71   H27   S    
C56   H56   S    
C27   H64   S    
C13   C54   S    
C41   C68   A    
C4    C74   S    
N5    Ni7   S    
C47   N20   A    
N3    Ni6   S    
C30   N4    A    
C9    H54   S    
C14   C60   S    
C71   C84   S    
C77   C96   S    
C84   C93   S    
C79   C95   S    
C37   N10   A    
N22   Ni8   S    
C6    C84   S    
N5    N14   A    
C20   H48   S    
C22   H50   S    
C46   N19   A    
C8    H43   S    
N2    Ni6   S    
C50   N24   A    
C43   H17   S    
N24   Ni7   S    
C1    C53   A    
C43   N17   A    
N10   Ni1   S    
C35   H8    S    
C78   H63   S    
C49   C60   A    
C42   C69   A    
C77   H33   S    
C82   C91   S    
N14   Ni4   S    
C87   C96   S    
N17   Ni4   S    
C66   C96   S    
C67   N30   A    
Br7   C86   S    
C5    C75   S    
C48   N21   A    
C76   H32   S    
C74   C87   S    
C14   C22   D    
N19   N27   A    
C86   C95   S    
C75   H31   S    
C38   N11   A    
C71   C89   S    
C42   N16   A    
C10   C19   D    
C16   C25   D    
N1    N20   A    
C79   H35   S    
N24   N31   A    
C85   C94   S    
C29   N3    A    
C7    H42   S    
C40   H14   S    
N19   Ni5   S    
C50   C61   A    
C73   H29   S    
N27   Ni1   S    
C73   C92   S    
C40   N14   A    
C68   C95   S    
N26   Ni8   S    
C78   N31   A    
C28   N2    A    
C42   H16   S    
C4    H39   S    
C81   C90   S    
N30   Ni4   S    
N28   Ni3   S    
C15   C24   D    
Br4   C83   S    
C16   H61   S    
C43   C70   A    
N15   Ni3   S    
C49   N22   A    
C10   H53   S    
C45   C58   A    
C9    C55   S    
C7    C87   S    
C73   C86   S    
C36   H9    S    
C41   H15   S    
C7    C91   S    
C13   C21   D    
C11   C53   S    
C47   C53   A    
C67   H62   S    
C48   C54   A    
C30   H4    S    
C34   N27   A    
C3    H38   S    
Br5   C84   S    
C14   H59   S    
N1    Ni1   S    
C24   H49   S    
C47   H20   S    
C3    C83   S    
C31   H5    S    
C32   N6    A    
C76   C81   S    
C21   H47   S    
C81   C89   S    
C45   N28   A    
N9    Ni2   S    
C3    C95   S    
C65   C88   S    
C72   C85   S    
N6    N15   A    
C45   H45   S    
C89   C93   S    
C61   C78   A    
N7    N16   A    
C70   C93   S    
C30   C65   A    
