data_mof_unit_43276.cif
_audit_creation_date              2012-10-26T17:13:06-0400
_audit_creation_method            fapswitch 2.2
_symmetry_space_group_name_H-M    P1
_symmetry_Int_Tables_number       1
_space_group_crystal_system       triclinic
_cell_length_a                    16.809742
_cell_length_b                    16.805465
_cell_length_c                    16.857001
_cell_angle_alpha                 67.873412
_cell_angle_beta                  67.832003
_cell_angle_gamma                 68.004865
_cell_volume                      3932.47639563

loop_
_atom_site_label
_atom_site_type_symbol
_atom_type_description
_atom_site_fract_x
_atom_site_fract_y
_atom_site_fract_z
_atom_type_partial_charge
C1    C     C_R   0.325138 0.947172 0.454612 0.030887
C2    C     C_R   0.311302 0.426601 0.009954 0.024966
C3    C     C_R   0.547307 0.421105 0.971156 -0.013202
C4    C     C_R   0.042984 0.452441 0.569605 -0.016597
C5    C     C_R   0.967759 0.547057 0.423840 -0.017229
C6    C     C_1   0.272403 0.916512 0.273031 0.330100
C7    C     C_1   0.725946 0.080585 0.727579 0.335832
C8    C     C_1   0.907402 0.277431 0.280798 0.326997
C9    C     C_1   0.078638 0.728931 0.726903 0.338961
C10   C     C_1   0.273914 0.275602 0.915545 0.330205
C11   C     C_1   0.727917 0.726658 0.081260 0.333431
C12   C     C_3   0.335221 0.901195 0.842021 -0.419060
C13   C     C_R   0.995551 0.687840 0.570224 0.027971
C14   C     C_3   0.289038 0.992227 0.861143 -0.787838
C15   C     C_3   0.681453 0.055811 0.169819 -0.430076
C16   C     C_3   0.616992 0.134511 0.122837 -0.745598
C17   C     C_3   0.909286 0.834547 0.330475 -0.406587
C18   C     C_3   0.976060 0.846206 0.237967 -0.863812
C19   C     C_3   0.178123 0.169384 0.606386 -0.396415
C20   C     C_3   0.123360 0.104016 0.670438 -0.796332
C21   C     C_3   0.838292 0.338002 0.902753 -0.418768
C22   C     C_3   0.859141 0.290796 0.992773 -0.785804
C23   C     C_3   0.168935 0.605553 0.179582 -0.398599
C24   C     C_R   0.009966 0.311576 0.426486 0.024887
C25   C     C_3   0.102404 0.670040 0.126707 -0.802275
C26   C     C_3   0.241276 0.863259 0.748974 -0.407318
C27   C     C_3   0.273764 0.761973 0.786442 -0.778240
C28   C     C_3   0.748095 0.130786 0.259437 -0.389112
C29   C     C_3   0.845196 0.075005 0.240678 -0.825250
C30   C     C_3   0.743564 0.242446 0.869071 -0.401462
C31   C     C_3   0.780094 0.274295 0.767698 -0.779959
C32   C     C_3   0.258995 0.741367 0.154929 -0.376900
C33   C     C_3   0.247894 0.826356 0.078403 -0.812323
C34   C     C_3   0.828585 0.737736 0.274781 -0.400434
C35   C     C_R   0.457283 0.973080 0.459105 0.002863
C36   C     C_3   0.738615 0.715855 0.321034 -0.811895
C37   C     C_3   0.153722 0.258726 0.741633 -0.377676
C38   C     C_3   0.076823 0.248124 0.826449 -0.815868
C39   C     C_R   0.551306 0.999213 0.550828 0.004287
C40   C     C_R   0.998121 0.452883 0.446711 0.001538
C41   C     C_R   0.011618 0.546608 0.547361 0.003392
C42   C     C_R   0.452804 0.445769 0.999339 0.005444
C43   C     C_R   0.546445 0.546278 0.013359 0.004103
C44   C     C_R   0.017646 0.830342 0.568677 0.802870
C45   C     C_R   0.677612 0.039908 0.550106 0.031160
C46   C     C_R   0.982363 0.169791 0.431290 0.803437
C47   C     C_R   0.830103 0.568534 0.018353 0.803781
C48   C     C_R   0.169700 0.431204 0.982629 0.803023
C49   C     C_R   0.568564 0.017881 0.830413 0.804749
C50   C     C_R   0.435145 0.972387 0.171699 0.801788
C51   C     C_R   0.436301 0.171776 0.969965 0.814909
C52   C     C_R   0.563536 0.828140 0.030269 0.790411
C53   C     C_R   0.969980 0.436253 0.171825 0.802507
C54   C     C_R   0.029954 0.563715 0.828160 0.801248
C55   C     C_R   0.172086 0.969456 0.436360 0.797361
C56   C     C_R   0.956811 0.451625 0.322388 0.030806
C57   C     C_R   0.828269 0.029254 0.563994 0.802079
C58   C     C_R   0.409965 0.962399 0.411227 0.070606
C59   C     C_R   0.598812 0.012126 0.596783 0.073130
C60   C     C_R   0.987926 0.405470 0.398757 0.072738
C61   C     C_R   0.018610 0.593997 0.597422 0.071225
C62   C     C_R   0.405188 0.398417 0.988493 0.075437
C63   C     C_R   0.593700 0.596818 0.020097 0.074314
C64   C     C_R   0.272406 0.950022 0.403243 -0.170291
C65   C     C_R   0.729358 0.042847 0.598906 -0.169562
C66   C     C_R   0.955512 0.401965 0.270697 -0.173304
C67   C     C_R   0.046154 0.548072 0.675966 0.030856
C68   C     C_R   0.044572 0.598222 0.729196 -0.172187
C69   C     C_R   0.401628 0.270671 0.955382 -0.176841
C70   C     C_R   0.597925 0.729022 0.045692 -0.171282
C71   C     C_R   0.608864 0.019311 0.734896 -0.159035
C72   C     C_R   0.401391 0.956109 0.271014 -0.167610
C73   C     C_R   0.733924 0.609046 0.021133 -0.160103
C74   C     C_R   0.265572 0.390293 0.981281 -0.159165
C75   C     C_R   0.019664 0.734307 0.609321 -0.159383
C76   C     C_R   0.981016 0.265852 0.390403 -0.160427
C77   C     C_R   0.502458 0.948785 0.735423 -0.213523
C78   C     C_R   0.451124 0.322336 0.956993 0.033904
C79   C     C_R   0.538545 0.969538 0.284523 -0.216473
C80   C     C_R   0.949730 0.732267 0.504512 -0.209446
C81   C     C_R   0.059986 0.267046 0.488910 -0.227806
C82   C     C_R   0.731733 0.503918 0.951746 -0.212521
C83   C     C_R   0.266637 0.488981 0.060068 -0.226026
C84   C     C_R   0.298965 0.922309 0.548545 -0.225151
C85   C     C_R   0.701546 0.065045 0.456509 -0.224878
C86   C     C_R   0.544498 0.301380 0.925342 -0.219995
C87   C     C_R   0.454333 0.695956 0.079571 -0.230138
C88   C     C_R   0.923863 0.545029 0.302573 -0.230140
C89   C     C_R   0.547848 0.675593 0.047312 0.030250
C90   C     C_R   0.078597 0.454497 0.696227 -0.230770
C91   C     C_R   0.315403 0.942890 0.315427 -0.115710
C92   C     C_R   0.687575 0.046928 0.687143 -0.118814
C93   C     C_R   0.950720 0.313909 0.313348 -0.107775
C94   C     C_R   0.046828 0.687270 0.688013 -0.119141
C95   C     C_R   0.313199 0.312559 0.951914 -0.112167
C96   C     C_R   0.686836 0.687870 0.048432 -0.111843
C97   C     C_R   0.656251 0.052042 0.408952 0.021073
C98   C     C_R   0.347296 0.927156 0.599245 0.024515
C99   C     C_R   0.079824 0.405402 0.642875 0.033106
C100  C     C_R   0.569652 0.993344 0.689976 0.019929
C101  C     C_R   0.926745 0.593800 0.353550 0.037240
C102  C     C_R   0.405222 0.642479 0.080797 0.034844
C103  C     C_R   0.594519 0.347681 0.934026 0.023415
C104  C     C_R   0.575214 0.003650 0.322068 0.025466
C105  C     C_R   0.448659 0.942684 0.692238 0.027136
C106  C     C_R   0.312052 0.535642 0.074702 0.027803
C107  C     C_R   0.687943 0.449377 0.947794 0.030793
C108  C     C_R   0.074382 0.312484 0.535681 0.026332
C109  C     C_R   0.945483 0.688019 0.450764 0.018439
C110  C     C_R   0.684306 0.072357 0.314230 0.106065
C111  C     C_R   0.449745 0.963697 0.320807 0.027379
C112  C     C_R   0.320520 0.902711 0.694676 0.115234
C113  C     C_R   0.118951 0.311086 0.659681 0.112382
C114  C     C_R   0.891450 0.688310 0.334434 0.135065
C115  C     C_R   0.310915 0.659380 0.119901 0.109532
C116  C     C_R   0.689948 0.322234 0.907347 0.112807
C117  C     C_R   0.648274 0.041351 0.270971 0.119744
C118  C     C_R   0.370497 0.912609 0.741145 0.136005
C119  C     C_R   0.265533 0.600879 0.123038 0.116945
C120  C     C_R   0.736853 0.372408 0.916203 0.132036
C121  C     C_R   0.122539 0.266073 0.600955 0.115343
C122  C     C_R   0.687380 0.569793 0.997191 0.019536
C123  C     C_R   0.911640 0.735876 0.375321 0.120073
C124  C     C_R   0.537276 0.999493 0.412660 -0.013047
C125  C     C_R   0.474268 0.967213 0.598567 -0.017832
C126  C     C_R   0.037788 0.405820 0.518062 -0.012196
C127  C     C_R   0.975240 0.593898 0.473664 -0.012595
C128  C     C_R   0.405589 0.517619 0.038540 -0.013216
C129  C     C_R   0.593930 0.471592 0.978093 -0.015142
C130  C     C_R   0.581652 0.017005 0.457415 -0.011532
C131  C     C_R   0.425070 0.957525 0.552451 -0.013031
C132  C     C_R   0.452252 0.568935 0.044160 -0.016666
Cu1   Cu    Cu3+1 0.995180 0.995180 0.424630 0.942040
Cu2   Cu    Cu3+1 0.004820 0.004820 0.575370 0.942188
Cu3   Cu    Cu3+1 0.995180 0.424630 0.995180 0.936760
Cu4   Cu    Cu3+1 0.004820 0.575370 0.004820 0.945600
Cu5   Cu    Cu3+1 0.424630 0.995180 0.995180 0.937751
Cu6   Cu    Cu3+1 0.575370 0.004820 0.004820 0.937066
H1    H     H_    0.495641 0.914558 0.804404 0.179830
H2    H     H_    0.421367 0.750222 0.109701 0.175916
H3    H     H_    0.892355 0.578819 0.249353 0.177796
H4    H     H_    0.108907 0.421442 0.750276 0.179094
H5    H     H_    0.334750 0.035849 0.829521 0.273370
H6    H     H_    0.229623 0.025558 0.834983 0.233385
H7    H     H_    0.266768 0.984150 0.933893 0.236877
H8    H     H_    0.287883 0.860012 0.877103 0.210923
H9    H     H_    0.388155 0.862367 0.876360 0.195449
H10   H     H_    0.549352 0.124400 0.147308 0.273566
H11   H     H_    0.612193 0.197375 0.134021 0.230829
H12   H     H_    0.583297 0.940711 0.231700 0.184477
H13   H     H_    0.641867 0.141438 0.050228 0.237652
H14   H     H_    0.748078 0.068041 0.140384 0.203044
H15   H     H_    0.692577 0.994785 0.151859 0.194210
H16   H     H_    0.041159 0.796819 0.242168 0.264074
H17   H     H_    0.952615 0.837461 0.189306 0.245096
H18   H     H_    0.987076 0.913506 0.212805 0.244778
H19   H     H_    0.840880 0.876388 0.327625 0.200277
H20   H     H_    0.929445 0.863738 0.366089 0.222523
H21   H     H_    0.158525 0.037202 0.659459 0.241942
H22   H     H_    0.114328 0.099288 0.740538 0.237117
H23   H     H_    0.911062 0.800476 0.500522 0.159906
H24   H     H_    0.056704 0.124852 0.659044 0.256025
H25   H     H_    0.205797 0.157188 0.539691 0.194099
H26   H     H_    0.240512 0.153894 0.623890 0.189641
H27   H     H_    0.832626 0.231352 0.026511 0.233167
H28   H     H_    0.932248 0.268446 0.983381 0.234498
H29   H     H_    0.828728 0.335960 0.036614 0.276120
H30   H     H_    0.872839 0.291503 0.860854 0.211581
H31   H     H_    0.872309 0.391439 0.863877 0.195445
H32   H     H_    0.033585 0.668477 0.168381 0.243077
H33   H     H_    0.107403 0.739146 0.106627 0.246584
H34   H     H_    0.088601 0.196492 0.500121 0.187086
H35   H     H_    0.114757 0.651233 0.065822 0.258375
H36   H     H_    0.156678 0.538665 0.206874 0.196513
H37   H     H_    0.154387 0.622489 0.241958 0.188818
H38   H     H_    0.296214 0.729059 0.732658 0.253027
H39   H     H_    0.330312 0.743059 0.814684 0.239397
H40   H     H_    0.218894 0.736528 0.840479 0.257159
H41   H     H_    0.197961 0.895627 0.802870 0.197040
H42   H     H_    0.192964 0.877676 0.712798 0.209303
H43   H     H_    0.889173 0.118228 0.193478 0.260348
H44   H     H_    0.866176 0.041672 0.303011 0.263442
H45   H     H_    0.800334 0.498679 0.915601 0.176416
H46   H     H_    0.854086 0.023541 0.209839 0.238640
H47   H     H_    0.732366 0.173444 0.195757 0.206031
H48   H     H_    0.738408 0.180702 0.292672 0.212646
H49   H     H_    0.726230 0.293683 0.735647 0.253221
H50   H     H_    0.806235 0.332808 0.747232 0.239232
H51   H     H_    0.835780 0.220218 0.742870 0.256833
H52   H     H_    0.798177 0.199994 0.900692 0.195325
H53   H     H_    0.706839 0.193494 0.885727 0.206959
H54   H     H_    0.201967 0.883762 0.104780 0.255002
H55   H     H_    0.312729 0.841522 0.039586 0.258498
H56   H     H_    0.196062 0.500004 0.088784 0.184490
H57   H     H_    0.218658 0.818959 0.033405 0.240224
H58   H     H_    0.191538 0.739667 0.198091 0.206634
H59   H     H_    0.291585 0.745471 0.198846 0.202317
H60   H     H_    0.745669 0.644614 0.331372 0.249849
H61   H     H_    0.709444 0.730882 0.386613 0.250792
H62   H     H_    0.691435 0.757457 0.279943 0.248331
H63   H     H_    0.813162 0.811014 0.257814 0.212991
H64   H     H_    0.859756 0.722446 0.209604 0.209118
H65   H     H_    0.036617 0.313416 0.839631 0.259131
H66   H     H_    0.032942 0.216381 0.820364 0.241790
H67   H     H_    0.244535 0.892657 0.580378 0.170643
H68   H     H_    0.103291 0.204640 0.884348 0.253325
H69   H     H_    0.196395 0.190758 0.740791 0.209561
H70   H     H_    0.198022 0.291420 0.745097 0.206211
H71   H     H_    0.754951 0.096341 0.420890 0.185203
H72   H     H_    0.575961 0.252525 0.888415 0.165681
N1    N     N_1   0.237117 0.895898 0.239814 -0.303598
N2    N     N_1   0.757203 0.106188 0.760358 -0.304236
N3    N     N_1   0.872305 0.249401 0.254282 -0.314258
N4    N     N_1   0.102782 0.762449 0.758766 -0.304852
N5    N     N_1   0.243287 0.244790 0.887140 -0.313955
N6    N     N_1   0.760580 0.758524 0.106497 -0.315704
O1    O     O_R   0.124540 0.978640 0.385460 -0.561402
O2    O     O_R   0.124540 0.385460 0.978640 -0.570535
O3    O     O_R   0.021360 0.875460 0.614540 -0.574391
O4    O     O_R   0.978640 0.124540 0.385460 -0.571017
O5    O     O_R   0.013780 0.867370 0.487190 -0.593535
O6    O     O_R   0.986220 0.132630 0.512810 -0.594075
O7    O     O_R   0.867370 0.487190 0.013780 -0.594704
O8    O     O_R   0.132630 0.512810 0.986220 -0.596799
O9    O     O_R   0.487190 0.013780 0.867370 -0.596491
O10   O     O_R   0.512810 0.986220 0.132630 -0.601123
O11   O     O_R   0.512810 0.132630 0.986220 -0.596919
O12   O     O_R   0.875460 0.021360 0.614540 -0.563842
O13   O     O_R   0.487190 0.867370 0.013780 -0.602816
O14   O     O_R   0.986220 0.512810 0.132630 -0.599031
O15   O     O_R   0.013780 0.487190 0.867370 -0.600985
O16   O     O_R   0.132630 0.986220 0.512810 -0.601298
O17   O     O_R   0.867370 0.013780 0.487190 -0.608370
O18   O     O_R   0.978640 0.385460 0.124540 -0.565132
O19   O     O_R   0.021360 0.614540 0.875460 -0.564154
O20   O     O_R   0.385460 0.124540 0.978640 -0.561461
O21   O     O_R   0.614540 0.875460 0.021360 -0.568220
O22   O     O_R   0.614540 0.021360 0.875460 -0.572594
O23   O     O_R   0.385460 0.978640 0.124540 -0.567373
O24   O     O_R   0.875460 0.614540 0.021360 -0.571799

loop_
_geom_bond_atom_site_label_1
_geom_bond_atom_site_label_2
_ccdc_geom_bond_type
C25   H32   S    
C11   C96   S    
C65   C92   A    
C112  C118  A    
C33   H55   S    
C3    C42   A    
C40   C60   A    
C29   H46   S    
C26   C112  S    
C106  C119  A    
C35   C124  A    
C41   C127  A    
C45   C85   A    
C19   C20   S    
C27   H40   S    
C41   C61   A    
C108  C121  A    
C107  C129  A    
C46   C76   S    
C7    N2    T    
C2    C83   A    
C43   C63   A    
Cu3   Cu4   S    
C55   O1    A    
C23   H36   S    
C30   C116  S    
C26   H41   S    
C1    C84   A    
C14   H7    S    
C26   C27   S    
C32   H59   S    
C21   H30   S    
C29   H43   S    
Cu5   Cu6   S    
C77   C100  A    
C35   C58   A    
C39   C125  A    
C12   H9    S    
C28   C29   S    
C102  C132  A    
C97   C130  A    
C21   C120  S    
C23   C119  S    
C30   C31   S    
C21   H31   S    
C52   O13   A    
C56   C88   A    
C23   H37   S    
C4    C41   A    
C7    C92   S    
C34   H63   S    
C101  C114  A    
Cu2   O3    S    
Cu4   O19   S    
C106  C128  A    
Cu6   O21   S    
C81   H34   S    
C12   H8    S    
Cu6   O10   S    
C50   C72   S    
C15   H15   S    
Cu5   O9    S    
C102  C115  A    
C57   O12   A    
C84   H67   S    
C17   C123  S    
C19   C121  S    
C71   C92   A    
C13   C75   A    
C31   H50   S    
Cu2   O6    S    
C20   H21   S    
Cu4   O8    S    
C80   C109  A    
Cu1   O5    S    
C36   H61   S    
C16   H11   S    
Cu2   O16   S    
C20   H22   S    
C17   H19   S    
C42   C62   A    
C18   H16   S    
C85   C97   A    
C42   C128  A    
C53   O14   A    
C78   C86   A    
C86   H72   S    
C72   C111  A    
C40   C126  A    
C32   C115  S    
Cu3   O15   S    
C21   C22   S    
C59   C100  A    
C37   H69   S    
C5    C127  A    
C69   C78   A    
C44   O3    A    
C54   O19   A    
C86   C103  A    
C128  C132  A    
C110  C117  A    
C15   H14   S    
C109  C127  A    
C88   C101  A    
C5    C101  A    
C98   C131  A    
C14   H6    S    
Cu1   O4    S    
C98   C112  A    
C29   H44   S    
C67   C68   A    
C48   C74   S    
C43   C129  A    
C46   O4    A    
C61   C67   A    
C47   C73   S    
Cu5   O13   S    
C8    N3    T    
C57   C65   S    
Cu1   O17   S    
C72   C91   A    
C13   C80   A    
C24   C76   A    
C48   O2    A    
C6    N1    T    
C48   O8    A    
C28   C110  S    
C30   H53   S    
Cu3   O2    S    
Cu4   O14   S    
C82   H45   S    
C67   C90   A    
C68   C94   A    
C116  C120  A    
C85   H71   S    
C51   O20   A    
Cu2   O12   S    
C50   O23   A    
Cu5   O23   S    
C44   C75   S    
C70   C96   A    
C24   C81   A    
C37   C38   S    
C53   C66   S    
C28   H48   S    
C76   C93   A    
C87   C102  A    
C125  C131  A    
C22   H27   S    
C24   C60   A    
C54   C68   S    
C39   C59   A    
C55   C64   S    
C63   C89   A    
C77   H1    S    
C17   C18   S    
Cu3   O18   S    
C124  C130  A    
C19   H25   S    
C82   C107  A    
Cu5   O20   S    
C17   H20   S    
C31   H51   S    
C90   H4    S    
C28   H47   S    
C52   O21   A    
C66   C93   A    
C12   C118  S    
C114  C123  A    
C15   C117  S    
C12   C14   S    
C115  C119  A    
C38   H65   S    
C33   H54   S    
C51   O11   A    
C20   H24   S    
C37   H70   S    
C105  C118  A    
C50   O10   A    
C70   C89   A    
C22   H29   S    
C49   O9    A    
C1    C64   A    
C35   C131  A    
C90   C99   A    
C74   C95   A    
C63   C122  A    
C18   H18   S    
C27   H39   S    
C104  C117  A    
C71   C100  A    
C3    C103  A    
C87   H2    S    
C47   O7    A    
C14   H5    S    
C45   C59   A    
C38   H68   S    
C3    C129  A    
C55   O16   A    
C62   C78   A    
C109  C123  A    
C8    C93   S    
C36   H62   S    
C36   H60   S    
C49   O22   A    
C69   C95   A    
C2    C74   A    
C27   H38   S    
C99   C113  A    
C57   O17   A    
C58   C111  A    
C104  C124  A    
C39   C130  A    
C26   H42   S    
C9    N4    T    
C34   C114  S    
C113  C121  A    
Cu3   O7    S    
C54   O15   A    
C11   N6    T    
C46   O6    A    
C83   C106  A    
C79   C111  A    
C16   H10   S    
C4    C126  A    
C84   C98   A    
C32   C33   S    
C105  C125  A    
C83   H56   S    
Cu4   O24   S    
C103  C116  A    
C79   H12   S    
C107  C120  A    
C1    C58   A    
C45   C65   A    
C97   C110  A    
C25   H33   S    
C10   N5    T    
Cu1   Cu2   S    
C10   C95   S    
C34   H64   S    
C56   C66   A    
C15   C16   S    
C53   O18   A    
C30   H52   S    
C77   C105  A    
C43   C132  A    
Cu6   O22   S    
C16   H13   S    
C34   C36   S    
C19   H26   S    
C23   C25   S    
C25   H35   S    
Cu6   O11   S    
C79   C104  A    
Cu1   O1    S    
C80   H23   S    
C81   C108  A    
C52   C70   S    
C32   H58   S    
C47   O24   A    
C22   H28   S    
C56   C60   A    
C13   C61   A    
C33   H57   S    
C73   C122  A    
C49   C71   S    
C4    C99   A    
C31   H49   S    
C87   C89   A    
C37   C113  S    
C38   H66   S    
C44   O5    A    
C51   C69   S    
C64   C91   A    
C108  C126  A    
C88   H3    S    
C5    C40   A    
C2    C62   A    
C9    C94   S    
C82   C122  A    
C18   H17   S    
C6    C91   S    
C75   C94   A    
C73   C96   A    
