data_mof_unit_30389.cif
_audit_creation_date              2012-12-11T17:25:12-0500
_audit_creation_method            fapswitch 2.2
_symmetry_space_group_name_H-M    P1
_symmetry_Int_Tables_number       1
_space_group_crystal_system       triclinic
_cell_length_a                    6.955247
_cell_length_b                    20.537918
_cell_length_c                    24.491637
_cell_angle_alpha                 90.086345
_cell_angle_beta                  90.45362
_cell_angle_gamma                 89.484783
_cell_volume                      3498.28485036

loop_
_atom_site_label
_atom_site_type_symbol
_atom_type_description
_atom_site_fract_x
_atom_site_fract_y
_atom_site_fract_z
_atom_type_partial_charge
O1    O     O_R   0.507280 0.423750 0.460310 -0.535811
O2    O     O_R   0.171030 0.555650 0.437630 -0.535826
O3    O     O_R   0.004080 0.576250 0.539690 -0.537122
C1    C     C_R   0.339077 0.575663 0.421780 0.725611
O4    O     O_R   0.177330 0.422980 0.453960 -0.536763
O5    O     O_R   0.010420 0.442640 0.556140 -0.535525
C2    C     C_R   0.346248 0.399193 0.443120 0.697909
O6    O     O_R   0.500930 0.557360 0.443860 -0.534916
O7    O     O_3   0.340310 0.506600 0.533500 -0.367818
V1    V     V_3+5 0.064140 0.498780 0.493780 1.435485
O8    O     O_R   0.680890 0.444350 0.562370 -0.537749
C3    C     C_R   0.850573 0.424406 0.578148 0.724391
O9    O     O_R   0.674590 0.577020 0.546040 -0.538112
C4    C     C_R   0.842723 0.600903 0.556712 0.693325
V2    V     V_3+5 0.564550 0.501220 0.506220 1.431897
O10   O     O_3   0.838250 0.493400 0.466500 -0.364847
C5    C     C_R   0.975810 0.838423 0.910964 -0.046405
C6    C     C_R   0.847684 0.661481 0.588995 -0.042466
C7    C     C_R   0.037784 0.722646 0.905538 -0.142897
C8    C     C_R   0.029399 0.779906 0.935880 -0.159908
C9    C     C_R   0.931174 0.839454 0.854854 -0.213477
C10   C     C_R   0.941893 0.781708 0.822552 0.087320
C11   C     C_R   0.995919 0.723028 0.849380 0.128261
C12   C     C_R   0.903497 0.780089 0.764788 0.059393
C13   C     C_R   0.919851 0.719810 0.735178 0.055565
C14   C     C_R   0.973338 0.663187 0.764356 -0.183505
C15   C     C_R   0.010088 0.664956 0.820108 -0.185475
C16   C     C_R   0.849940 0.836709 0.735612 -0.186348
C17   C     C_R   0.813082 0.834932 0.679867 -0.201439
C18   C     C_R   0.827293 0.776862 0.650594 0.139841
C19   C     C_R   0.881477 0.718193 0.677413 0.087150
C20   C     C_R   0.785333 0.777235 0.594441 -0.161587
C21   C     C_R   0.793843 0.719982 0.564093 -0.168698
C22   C     C_R   0.892378 0.660456 0.645102 -0.212948
H1    H     H_    0.051279 0.620107 0.840579 0.139608
H2    H     H_    0.930571 0.613758 0.662171 0.095835
H3    H     H_    0.757160 0.721214 0.521021 0.106462
H4    H     H_    0.771794 0.879775 0.659401 0.122842
H5    H     H_    0.079755 0.677887 0.925981 0.135824
H6    H     H_    0.066028 0.778668 0.978956 0.117193
H7    H     H_    0.893212 0.886166 0.837774 0.093105
H8    H     H_    0.988773 0.616212 0.745282 0.127956
H9    H     H_    0.834493 0.883684 0.754688 0.122976
H10   H     H_    0.743208 0.821985 0.574006 0.113145
H11   H     H_    0.619057 0.207138 0.794017 0.114445
C23   C     C_R   0.729942 0.270241 0.731785 -0.148963
H12   H     H_    0.587994 0.285393 0.718110 0.112030
C24   C     C_R   0.894268 0.295011 0.706460 0.135148
C25   C     C_R   0.076529 0.274455 0.725012 -0.150405
H13   H     H_    0.205136 0.292916 0.706022 0.112300
C26   C     C_R   0.094250 0.229816 0.768254 -0.145334
H14   H     H_    0.236199 0.214660 0.781927 0.112950
C27   C     C_R   0.929925 0.205038 0.793574 0.136437
C28   C     C_R   0.747664 0.225602 0.775029 -0.143978
C29   C     C_1   0.876317 0.341052 0.661451 -0.055718
C30   C     C_1   0.947879 0.158960 0.838555 -0.046416
C31   C     C_1   0.961091 0.120725 0.876311 -0.180200
C32   C     C_1   0.863121 0.379250 0.623667 -0.189425
H15   H     H_    0.698957 0.701986 0.296064 0.114986
C33   C     C_R   0.596707 0.767200 0.233170 -0.143865
H16   H     H_    0.740561 0.779902 0.220623 0.112228
C34   C     C_R   0.436090 0.794972 0.206623 0.134293
C35   C     C_R   0.251332 0.777395 0.223860 -0.145984
H17   H     H_    0.125278 0.798106 0.203996 0.113634
C36   C     C_R   0.227529 0.732891 0.266890 -0.141573
H18   H     H_    0.083675 0.720190 0.279437 0.112989
C37   C     C_R   0.388145 0.705129 0.293444 0.135963
C38   C     C_R   0.572903 0.722696 0.276200 -0.140505
C39   C     C_1   0.459835 0.841003 0.161731 -0.050915
C40   C     C_1   0.364401 0.659131 0.338358 -0.044248
C41   C     C_1   0.349027 0.620937 0.376116 -0.181494
C42   C     C_1   0.475211 0.879220 0.123988 -0.186797
C43   C     C_R   0.473369 0.162444 0.088202 -0.109568
C44   C     C_R   0.352843 0.338969 0.410253 -0.046732
C45   C     C_R   0.545470 0.277578 0.092042 0.459254
C46   C     C_R   0.536938 0.218935 0.063470 -0.207962
C47   C     C_R   0.424499 0.163641 0.143494 -0.187821
C48   C     C_R   0.437916 0.221778 0.175241 -0.005752
C49   C     C_R   0.489212 0.280805 0.148018 -0.062999
C50   C     C_R   0.403573 0.222594 0.233173 0.083635
C51   C     C_R   0.411116 0.282574 0.262963 -0.008554
C52   C     C_R   0.444764 0.340000 0.233693 -0.236905
C53   C     C_R   0.481874 0.340017 0.177953 0.434564
C54   C     C_R   0.365563 0.165022 0.262621 -0.162321
C55   C     C_R   0.333204 0.166024 0.318461 -0.207007
C56   C     C_R   0.339797 0.224040 0.347895 0.140916
C57   C     C_R   0.380839 0.283422 0.321070 0.110887
C58   C     C_R   0.305161 0.222777 0.404278 -0.162850
C59   C     C_R   0.309722 0.279804 0.434995 -0.169374
C60   C     C_R   0.389549 0.340889 0.353860 -0.204818
H19   H     H_    0.422267 0.387945 0.337173 0.104002
H20   H     H_    0.279290 0.277809 0.478277 0.107160
H21   H     H_    0.303629 0.120481 0.338967 0.121853
H22   H     H_    0.582864 0.217137 0.021273 0.149146
H23   H     H_    0.379025 0.118002 0.160361 0.102425
H24   H     H_    0.440435 0.386984 0.253152 0.164623
H25   H     H_    0.361601 0.117594 0.244012 0.117851
H26   H     H_    0.272643 0.177428 0.424665 0.113947
O11   O     O_R   0.323320 0.942780 0.056240 -0.535884
O12   O     O_R   0.647300 0.077050 0.046060 -0.537448
O13   O     O_R   0.813840 0.057330 0.943840 -0.534990
C61   C     C_R   0.478548 0.100987 0.056868 0.717936
O14   O     O_R   0.653250 0.944380 0.062400 -0.537302
O15   O     O_R   0.819830 0.923720 0.960300 -0.536114
C62   C     C_R   0.485174 0.924485 0.078319 0.722327
O16   O     O_R   0.317330 0.076390 0.039790 -0.533527
O17   O     O_3   0.483830 0.993470 0.966560 -0.368317
V3    V     V_3+5 0.760140 0.001210 0.006210 1.434974
O18   O     O_R   0.149290 0.922840 0.953850 -0.538767
C63   C     C_R   0.981052 0.899010 0.943233 0.693408
O19   O     O_R   0.143340 0.055500 0.937510 -0.537378
C64   C     C_R   0.973665 0.075527 0.921800 0.729918
V4    V     V_3+5 0.259690 0.998600 0.993650 1.435757
O20   O     O_3   0.986130 0.006520 0.033440 -0.367126
Cl1   Cl    Cl    0.499508 0.418463 0.149105 -0.499917
Cl2   Cl    Cl    0.648665 0.341764 0.054881 -0.508190

loop_
_geom_bond_atom_site_label_1
_geom_bond_atom_site_label_2
_ccdc_geom_bond_type
C13   C19   A    
C24   C29   S    
O15   C63   A    
C35   C36   A    
C4    C6    S    
O2    C1    A    
C7    C8    A    
C1    O6    A    
C5    C63   S    
C25   C26   A    
C51   C52   A    
C47   C48   A    
O13   C64   A    
C14   C15   A    
C17   C18   A    
C54   H25   S    
C44   C59   A    
C16   C17   A    
O5    C3    A    
C18   C19   A    
C8    H6    S    
C48   C50   A    
C31   C64   S    
V2    O10   S    
C5    C8    A    
C30   C31   T    
C33   C34   A    
V3    O20   S    
C25   H13   S    
O17   V4    S    
C46   H22   S    
O8    V2    S    
O19   C64   A    
C36   C37   A    
C17   H4    S    
O17   V3    S    
O14   V3    S    
O1    V2    S    
C11   C15   A    
O7    V1    S    
C22   H2    S    
C50   C54   A    
C3    C32   S    
C58   C59   A    
O13   V3    S    
O9    C4    A    
C55   H21   S    
C2    C44   S    
O11   C62   A    
C23   C24   A    
O12   V3    S    
C52   H24   S    
O16   V4    S    
C26   H14   S    
C53   Cl1   S    
C12   C13   A    
O14   C62   A    
O4    C2    A    
C56   C57   A    
C15   H1    S    
C13   C14   A    
C55   C56   A    
C47   H23   S    
C21   H3    S    
C37   C38   A    
C34   C39   S    
C33   H16   S    
C26   C27   A    
C39   C42   T    
C7    C11   A    
C45   C46   A    
O5    V1    S    
C34   C35   A    
H15   C38   S    
C23   C28   A    
O12   C61   A    
C20   H10   S    
C19   C22   A    
O19   V4    S    
C54   C55   A    
C59   H20   S    
C6    C22   A    
C51   C57   A    
O3    C4    A    
C7    H5    S    
C9    H7    S    
C43   C61   S    
H11   C28   S    
C36   H18   S    
O6    V2    S    
O9    V2    S    
C43   C46   A    
C10   C12   A    
C29   C32   T    
O2    V1    S    
O15   V3    S    
C40   C41   T    
C14   H8    S    
V4    O20   S    
C27   C30   S    
C23   H12   S    
C24   C25   A    
O1    C2    A    
C12   C16   A    
C50   C51   A    
O11   V4    S    
O8    C3    A    
C27   C28   A    
O18   V4    S    
C16   H9    S    
C37   C40   S    
C20   C21   A    
C44   C60   A    
O7    V2    S    
O4    V1    S    
O3    V1    S    
V1    O10   S    
O18   C63   A    
C18   C20   A    
C48   C49   A    
C60   H19   S    
C61   O16   A    
C56   C58   A    
C6    C21   A    
C5    C9    A    
C35   H17   S    
C49   C53   A    
C42   C62   S    
C33   C38   A    
C52   C53   A    
C57   C60   A    
C43   C47   A    
C10   C11   A    
C45   Cl2   S    
C9    C10   A    
C45   C49   A    
C1    C41   S    
C58   H26   S    
