data_mof_unit_66041.cif
_audit_creation_date              2012-12-10T17:06:50-0500
_audit_creation_method            fapswitch 2.2
_symmetry_space_group_name_H-M    P1
_symmetry_Int_Tables_number       1
_space_group_crystal_system       orthorhombic
_cell_length_a                    21.823685
_cell_length_b                    21.823699
_cell_length_c                    55.704563
_cell_angle_alpha                 90.0
_cell_angle_beta                  90.0
_cell_angle_gamma                 90.0
_cell_volume                      26530.608997

loop_
_atom_site_label
_atom_site_type_symbol
_atom_type_description
_atom_site_fract_x
_atom_site_fract_y
_atom_site_fract_z
_atom_type_partial_charge
C1    C     C_R   0.380690 0.500000 0.000000 0.878726
C2    C     C_R   0.785279 0.523606 0.064956 -0.148134
C3    C     C_R   0.583612 0.927045 0.301145 -0.143225
C4    C     C_R   0.927076 0.583640 0.698855 -0.143223
C5    C     C_R   0.583635 0.072928 0.698855 -0.143226
C6    C     C_R   0.072924 0.416360 0.698855 -0.143224
C7    C     C_R   0.416365 0.927072 0.698855 -0.143226
C8    C     C_R   0.446171 0.013569 0.889485 -0.106771
C9    C     C_R   0.986429 0.446171 0.889485 -0.106771
C10   C     C_R   0.553829 0.986431 0.889485 -0.106771
C11   C     C_R   0.013571 0.553829 0.889485 -0.106771
C12   C     C_R   0.446168 0.986445 0.110515 -0.106774
C13   C     C_R   0.476393 0.785279 0.064956 -0.148134
C14   C     C_R   0.986443 0.553832 0.110515 -0.106773
C15   C     C_R   0.553832 0.013555 0.110515 -0.106774
C16   C     C_R   0.013558 0.446168 0.110515 -0.106774
C17   C     C_R   0.946167 0.513553 0.389484 -0.106774
C18   C     C_R   0.486445 0.946167 0.389485 -0.106774
C19   C     C_R   0.053833 0.486447 0.389484 -0.106774
C20   C     C_R   0.513555 0.053832 0.389484 -0.106774
C21   C     C_R   0.946163 0.486462 0.610516 -0.106777
C22   C     C_R   0.486459 0.053836 0.610516 -0.106776
C23   C     C_R   0.053837 0.513538 0.610516 -0.106777
C24   C     C_R   0.214721 0.476394 0.064956 -0.148135
C25   C     C_R   0.513541 0.946164 0.610516 -0.106777
C26   C     C_R   0.446069 0.013365 0.914528 -0.219681
C27   C     C_R   0.986633 0.446070 0.914528 -0.219679
C28   C     C_R   0.553930 0.986635 0.914528 -0.219681
C29   C     C_R   0.013367 0.553930 0.914528 -0.219680
C30   C     C_R   0.446066 0.986649 0.085473 -0.219678
C31   C     C_R   0.986646 0.553933 0.085473 -0.219679
C32   C     C_R   0.553934 0.013351 0.085473 -0.219678
C33   C     C_R   0.013354 0.446067 0.085473 -0.219678
C34   C     C_R   0.946065 0.513349 0.414527 -0.219677
C35   C     C_R   0.523607 0.785279 0.935044 -0.148139
C36   C     C_R   0.486649 0.946066 0.414527 -0.219678
C37   C     C_R   0.053935 0.486651 0.414527 -0.219677
C38   C     C_R   0.513351 0.053934 0.414527 -0.219679
C39   C     C_R   0.946062 0.486665 0.585473 -0.219675
C40   C     C_R   0.486662 0.053937 0.585473 -0.219676
C41   C     C_R   0.053938 0.513335 0.585473 -0.219675
C42   C     C_R   0.513338 0.946063 0.585473 -0.219675
C43   C     C_R   0.500000 0.000000 0.927279 -0.044896
C44   C     C_R   0.000000 0.500000 0.927279 -0.044894
C45   C     C_R   0.500000 0.000000 0.072721 -0.044904
C46   C     C_R   0.785279 0.476393 0.935044 -0.148138
C47   C     C_R   0.000000 0.500000 0.072721 -0.044902
C48   C     C_R   0.000000 0.500000 0.427279 -0.044906
C49   C     C_R   0.500000 1.000000 0.427279 -0.044904
C50   C     C_R   0.000000 0.500000 0.572721 -0.044915
C51   C     C_R   0.500000 0.000000 0.572721 -0.044913
C52   C     C_R   0.500000 0.000000 0.775368 0.068925
C53   C     C_R   1.000000 0.500000 0.775368 0.068922
C54   C     C_R   0.500000 0.000000 0.224632 0.068924
C55   C     C_R   0.000000 0.500000 0.224632 0.068924
C56   C     C_R   0.000000 0.500000 0.275368 0.068924
C57   C     C_R   0.476393 0.214721 0.935044 -0.148138
C58   C     C_R   0.500000 1.000000 0.275368 0.068924
C59   C     C_R   1.000000 0.500000 0.724632 0.068922
C60   C     C_R   0.500000 1.000000 0.724632 0.068925
C61   C     C_R   0.500000 0.000000 0.876830 0.347873
C62   C     C_R   1.000000 0.500000 0.876830 0.347872
C63   C     C_R   0.500000 0.000000 0.123170 0.347876
C64   C     C_R   0.000000 0.500000 0.123170 0.347876
C65   C     C_R   1.000000 0.500000 0.376830 0.347876
C66   C     C_R   0.500000 1.000000 0.376830 0.347876
C67   C     C_R   1.000000 0.500000 0.623170 0.347878
C68   C     C_R   0.214721 0.523607 0.935044 -0.148139
C69   C     C_R   0.500000 0.000000 0.623170 0.347878
C70   C     C_R   0.500000 0.000000 0.953726 0.764592
C71   C     C_R   0.000000 0.500000 0.953726 0.764593
C72   C     C_R   0.500000 1.000000 0.046274 0.764594
C73   C     C_R   1.000000 0.500000 0.046274 0.764592
C74   C     C_R   1.000000 0.500000 0.453726 0.764596
C75   C     C_R   0.500000 1.000000 0.453726 0.764595
C76   C     C_R   0.000000 0.500000 0.546274 0.764598
C77   C     C_R   0.500000 1.000000 0.546274 0.764596
C78   C     C_R   0.500000 0.118163 0.000000 0.783585
C79   C     C_R   0.023606 0.714721 0.564956 -0.148130
C80   C     C_R   0.881837 0.500000 0.000000 0.783585
C81   C     C_R   0.500000 0.881837 0.000000 0.783585
C82   C     C_R   0.118163 0.500000 0.000000 0.783585
C83   C     C_R   1.000000 0.618163 0.500000 0.783587
C84   C     C_R   0.381837 1.000000 0.500000 0.783588
C85   C     C_R   1.000000 0.381837 0.500000 0.783587
C86   C     C_R   0.618162 0.000000 0.500000 0.783587
C87   C     C_R   0.574198 0.083316 0.776210 -0.202047
C88   C     C_R   0.916687 0.574202 0.776210 -0.202046
C89   C     C_R   0.425802 0.916684 0.776210 -0.202047
C90   C     C_R   0.285279 0.023606 0.564956 -0.148131
C91   C     C_R   0.083313 0.425797 0.776210 -0.202046
C92   C     C_R   0.425829 0.083340 0.223790 -0.202047
C93   C     C_R   0.916663 0.425825 0.223790 -0.202047
C94   C     C_R   0.574171 0.916660 0.223790 -0.202047
C95   C     C_R   0.083338 0.574175 0.223790 -0.202048
C96   C     C_R   0.925833 0.416657 0.276210 -0.202046
C97   C     C_R   0.416659 0.074171 0.276210 -0.202047
C98   C     C_R   0.074168 0.583343 0.276210 -0.202047
C99   C     C_R   0.583341 0.925829 0.276210 -0.202047
C100  C     C_R   0.925860 0.583369 0.723790 -0.202047
C101  C     C_R   0.976394 0.285279 0.564956 -0.148130
C102  C     C_R   0.583364 0.074144 0.723790 -0.202048
C103  C     C_R   0.074140 0.416631 0.723790 -0.202046
C104  C     C_R   0.416636 0.925856 0.723790 -0.202048
C105  C     C_R   0.536617 0.041864 0.813715 -0.020471
C106  C     C_R   0.958138 0.536619 0.813715 -0.020470
C107  C     C_R   0.463383 0.958136 0.813715 -0.020471
C108  C     C_R   0.041862 0.463380 0.813715 -0.020470
C109  C     C_R   0.463396 0.041875 0.186285 -0.020471
C110  C     C_R   0.958127 0.463394 0.186285 -0.020471
C111  C     C_R   0.536604 0.958125 0.186285 -0.020471
C112  C     C_R   0.500000 0.380690 0.000000 0.878726
C113  C     C_R   0.714721 0.976394 0.564956 -0.148131
C114  C     C_R   0.041874 0.536605 0.186285 -0.020471
C115  C     C_R   0.963398 0.458123 0.313715 -0.020470
C116  C     C_R   0.458124 0.036604 0.313715 -0.020471
C117  C     C_R   0.036602 0.541877 0.313715 -0.020471
C118  C     C_R   0.541875 0.963396 0.313715 -0.020471
C119  C     C_R   0.963412 0.541889 0.686285 -0.020471
C120  C     C_R   0.541887 0.036590 0.686285 -0.020471
C121  C     C_R   0.036588 0.458111 0.686285 -0.020470
C122  C     C_R   0.458113 0.963410 0.686285 -0.020472
C123  C     C_R   0.500000 0.000000 0.800912 -0.044087
C124  C     C_R   0.023606 0.285279 0.435044 -0.148134
C125  C     C_R   1.000000 0.500000 0.800912 -0.044089
C126  C     C_R   0.500000 0.000000 0.199088 -0.044088
C127  C     C_R   0.000000 0.500000 0.199088 -0.044087
C128  C     C_R   0.000000 0.500000 0.300912 -0.044088
C129  C     C_R   0.500000 1.000000 0.300912 -0.044087
C130  C     C_R   1.000000 0.500000 0.699088 -0.044089
C131  C     C_R   0.500000 0.000000 0.699088 -0.044087
C132  C     C_R   0.535611 0.041414 0.838933 0.533633
C133  C     C_R   0.958588 0.535613 0.838933 0.533631
C134  C     C_R   0.464389 0.958586 0.838933 0.533632
C135  C     C_R   0.285279 0.976394 0.435044 -0.148135
C136  C     C_R   0.041412 0.464387 0.838933 0.533631
C137  C     C_R   0.464402 0.041425 0.161067 0.533633
C138  C     C_R   0.958577 0.464400 0.161067 0.533633
C139  C     C_R   0.535598 0.958575 0.161067 0.533632
C140  C     C_R   0.041424 0.535599 0.161067 0.533633
C141  C     C_R   0.964404 0.458574 0.338933 0.533633
C142  C     C_R   0.458575 0.035597 0.338933 0.533632
C143  C     C_R   0.035596 0.541427 0.338933 0.533633
C144  C     C_R   0.541425 0.964403 0.338933 0.533631
C145  C     C_R   0.964418 0.541439 0.661067 0.533632
C146  C     C_R   0.976394 0.714721 0.435044 -0.148134
C147  C     C_R   0.541436 0.035584 0.661067 0.533634
C148  C     C_R   0.035582 0.458561 0.661067 0.533632
C149  C     C_R   0.458564 0.964416 0.661067 0.533633
C150  C     C_R   0.538952 0.041055 0.762752 0.041835
C151  C     C_R   0.958947 0.538954 0.762753 0.041837
C152  C     C_R   0.461048 0.958945 0.762752 0.041835
C153  C     C_R   0.041053 0.461046 0.762753 0.041837
C154  C     C_R   0.461061 0.041067 0.237248 0.041836
C155  C     C_R   0.958935 0.461059 0.237248 0.041836
C156  C     C_R   0.538939 0.958933 0.237248 0.041836
C157  C     C_R   0.714721 0.023606 0.435044 -0.148135
C158  C     C_R   0.041066 0.538940 0.237248 0.041836
C159  C     C_R   0.961063 0.458931 0.262752 0.041836
C160  C     C_R   0.458932 0.038939 0.262752 0.041836
C161  C     C_R   0.038937 0.541069 0.262752 0.041836
C162  C     C_R   0.541068 0.961061 0.262752 0.041836
C163  C     C_R   0.961077 0.541082 0.737248 0.041837
C164  C     C_R   0.541080 0.038925 0.737248 0.041836
C165  C     C_R   0.038923 0.458917 0.737248 0.041837
C166  C     C_R   0.458920 0.961075 0.737248 0.041836
C167  C     C_R   0.548599 0.305491 0.041908 -0.010601
C168  C     C_R   0.508253 0.184540 0.043897 -0.135415
C169  C     C_R   0.694509 0.548599 0.041908 -0.010601
C170  C     C_R   0.451401 0.694509 0.041908 -0.010601
C171  C     C_R   0.305491 0.451401 0.041908 -0.010600
C172  C     C_R   0.548599 0.694509 0.958092 -0.010600
C173  C     C_R   0.694509 0.451401 0.958092 -0.010601
C174  C     C_R   0.451401 0.305491 0.958092 -0.010600
C175  C     C_R   0.305491 0.548599 0.958092 -0.010600
C176  C     C_R   0.048598 0.805491 0.541908 -0.010601
C177  C     C_R   0.194509 0.048599 0.541908 -0.010601
C178  C     C_R   0.951401 0.194509 0.541908 -0.010602
C179  C     C_R   0.815460 0.508253 0.043897 -0.135416
C180  C     C_R   0.805491 0.951401 0.541908 -0.010601
C181  C     C_R   0.048599 0.194509 0.458092 -0.010601
C182  C     C_R   0.194509 0.951401 0.458092 -0.010601
C183  C     C_R   0.951401 0.805491 0.458092 -0.010601
C184  C     C_R   0.805491 0.048599 0.458092 -0.010601
C185  C     C_R   0.545603 0.274229 0.063905 -0.187626
C186  C     C_R   0.725771 0.545603 0.063905 -0.187626
C187  C     C_R   0.454397 0.725771 0.063905 -0.187626
C188  C     C_R   0.274229 0.454397 0.063905 -0.187627
C189  C     C_R   0.545603 0.725771 0.936095 -0.187625
C190  C     C_R   0.491747 0.815460 0.043897 -0.135415
C191  C     C_R   0.725771 0.454397 0.936095 -0.187625
C192  C     C_R   0.454397 0.274228 0.936095 -0.187625
C193  C     C_R   0.274228 0.545603 0.936095 -0.187626
C194  C     C_R   0.045602 0.774229 0.563905 -0.187628
C195  C     C_R   0.225771 0.045602 0.563905 -0.187628
C196  C     C_R   0.954398 0.225771 0.563905 -0.187627
C197  C     C_R   0.774229 0.954398 0.563905 -0.187628
C198  C     C_R   0.045602 0.225771 0.436095 -0.187627
C199  C     C_R   0.225771 0.954398 0.436095 -0.187627
C200  C     C_R   0.954397 0.774229 0.436095 -0.187627
C201  C     C_R   0.184540 0.491747 0.043897 -0.135415
C202  C     C_R   0.774229 0.045602 0.436095 -0.187625
C203  C     C_2   0.593747 0.356176 0.040995 0.876265
C204  C     C_2   0.643824 0.593747 0.040995 0.876264
C205  C     C_2   0.406253 0.643824 0.040995 0.876265
C206  C     C_2   0.356176 0.406253 0.040995 0.876263
C207  C     C_2   0.593747 0.643824 0.959005 0.876264
C208  C     C_2   0.643824 0.406253 0.959005 0.876265
C209  C     C_2   0.406253 0.356176 0.959005 0.876264
C210  C     C_2   0.356176 0.593747 0.959005 0.876264
C211  C     C_2   0.093747 0.856176 0.540995 0.876264
C212  C     C_R   0.508253 0.815460 0.956103 -0.135415
C213  C     C_2   0.143824 0.093747 0.540995 0.876264
C214  C     C_2   0.906253 0.143824 0.540995 0.876264
C215  C     C_2   0.856176 0.906253 0.540995 0.876264
C216  C     C_2   0.093747 0.143824 0.459005 0.876264
C217  C     C_2   0.143824 0.906253 0.459005 0.876264
C218  C     C_2   0.906253 0.856176 0.459005 0.876264
C219  C     C_2   0.856176 0.093747 0.459005 0.876265
C220  C     C_R   0.619310 0.500000 0.000000 0.878726
C221  C     C_R   0.815460 0.491747 0.956103 -0.135415
C222  C     C_R   0.491747 0.184540 0.956103 -0.135415
C223  C     C_R   0.184540 0.508253 0.956103 -0.135415
C224  C     C_R   0.008252 0.684540 0.543897 -0.135416
C225  C     C_R   0.315460 0.008252 0.543897 -0.135416
C226  C     C_R   0.991747 0.315460 0.543897 -0.135416
C227  C     C_R   0.684540 0.991748 0.543897 -0.135416
C228  C     C_R   0.008253 0.315460 0.456103 -0.135415
C229  C     C_R   0.315460 0.991747 0.456103 -0.135416
C230  C     C_R   0.991747 0.684540 0.456103 -0.135415
C231  C     C_R   0.500000 0.619310 0.000000 0.878726
C232  C     C_R   0.684540 0.008253 0.456103 -0.135415
C233  C     C_R   0.508270 0.215898 0.021683 0.065590
C234  C     C_R   0.784102 0.508270 0.021683 0.065591
C235  C     C_R   0.491730 0.784102 0.021683 0.065590
C236  C     C_R   0.215898 0.491730 0.021683 0.065590
C237  C     C_R   0.508270 0.784102 0.978317 0.065592
C238  C     C_R   0.784102 0.491730 0.978317 0.065592
C239  C     C_R   0.491730 0.215898 0.978317 0.065592
C240  C     C_R   0.215898 0.508270 0.978317 0.065592
C241  C     C_R   0.008269 0.715898 0.521683 0.065589
C242  C     C_R   0.880690 0.000000 0.500000 0.878726
C243  C     C_R   0.284102 0.008269 0.521683 0.065589
C244  C     C_R   0.991731 0.284102 0.521683 0.065589
C245  C     C_R   0.715898 0.991731 0.521683 0.065589
C246  C     C_R   0.008270 0.284102 0.478317 0.065590
C247  C     C_R   0.284102 0.991730 0.478317 0.065591
C248  C     C_R   0.991730 0.715898 0.478317 0.065590
C249  C     C_R   0.715898 0.008270 0.478317 0.065591
C250  C     C_R   0.519680 0.279511 0.021030 0.024056
C251  C     C_R   0.720488 0.519680 0.021030 0.024055
C252  C     C_R   0.480320 0.720488 0.021030 0.024056
C253  C     C_R   1.000000 0.880690 0.500000 0.878726
C254  C     C_R   0.279511 0.480320 0.021030 0.024056
C255  C     C_R   0.519680 0.720489 0.978970 0.024055
C256  C     C_R   0.720489 0.480320 0.978970 0.024055
C257  C     C_R   0.480320 0.279511 0.978970 0.024055
C258  C     C_R   0.279511 0.519680 0.978970 0.024055
C259  C     C_R   0.019680 0.779511 0.521030 0.024056
C260  C     C_R   0.220489 0.019680 0.521030 0.024056
C261  C     C_R   0.980320 0.220489 0.521030 0.024056
C262  C     C_R   0.779511 0.980320 0.521030 0.024056
C263  C     C_R   0.019680 0.220489 0.478970 0.024056
C264  C     C_R   0.119310 1.000000 0.500000 0.878726
C265  C     C_R   0.220488 0.980320 0.478970 0.024055
C266  C     C_R   0.980320 0.779511 0.478970 0.024056
C267  C     C_R   0.779511 0.019680 0.478970 0.024055
C268  C     C_R   0.500000 0.184374 0.000000 -0.138955
C269  C     C_R   0.815626 0.500000 0.000000 -0.138954
C270  C     C_R   0.500000 0.815626 0.000000 -0.138955
C271  C     C_R   0.184374 0.500000 0.000000 -0.138954
C272  C     C_R   1.000000 0.684374 0.500000 -0.138955
C273  C     C_R   0.315626 1.000000 0.500000 -0.138955
C274  C     C_R   1.000000 0.315626 0.500000 -0.138955
C275  C     C_R   1.000000 0.119310 0.500000 0.878726
C276  C     C_R   0.684374 0.000000 0.500000 -0.138955
C277  C     C_R   0.500000 0.312886 0.000000 -0.127616
C278  C     C_R   0.687114 0.500000 0.000000 -0.127616
C279  C     C_R   0.500000 0.687114 0.000000 -0.127616
C280  C     C_R   0.312885 0.500000 0.000000 -0.127616
C281  C     C_R   1.000000 0.812885 0.500000 -0.127615
C282  C     C_R   0.187114 1.000000 0.500000 -0.127616
C283  C     C_R   1.000000 0.187114 0.500000 -0.127615
C284  C     C_R   0.812885 0.000000 0.500000 -0.127615
C285  C     C_R   0.572982 0.083588 0.801145 -0.143225
C286  C     C_R   0.523606 0.214721 0.064956 -0.148134
C287  C     C_R   0.916415 0.572986 0.801145 -0.143223
C288  C     C_R   0.427018 0.916412 0.801145 -0.143225
C289  C     C_R   0.083585 0.427014 0.801145 -0.143223
C290  C     C_R   0.427045 0.083612 0.198855 -0.143224
C291  C     C_R   0.916392 0.427041 0.198855 -0.143225
C292  C     C_R   0.572955 0.916388 0.198855 -0.143225
C293  C     C_R   0.083609 0.572958 0.198855 -0.143225
C294  C     C_R   0.927049 0.416385 0.301145 -0.143225
C295  C     C_R   0.416388 0.072955 0.301145 -0.143225
C296  C     C_R   0.072952 0.583615 0.301145 -0.143225
Cu1   Cu    Cu3+1 0.500000 0.500000 0.976050 1.089817
Cu2   Cu    Cu3+1 0.500000 0.938250 0.500000 0.978992
Cu3   Cu    Cu3+1 0.061750 0.500000 0.500000 0.978991
Cu4   Cu    Cu3+1 0.500000 0.061750 0.500000 0.978991
Cu5   Cu    Cu3+1 0.500000 0.500000 0.023950 1.089817
Cu6   Cu    Cu3+1 1.000000 0.000000 0.476050 1.089818
Cu7   Cu    Cu3+1 1.000000 0.000000 0.523950 1.089818
Cu8   Cu    Cu3+1 0.438250 0.000000 0.000000 0.978997
Cu9   Cu    Cu3+1 0.000000 0.438250 0.000000 0.978997
Cu10  Cu    Cu3+1 0.561750 0.000000 0.000000 0.978997
Cu11  Cu    Cu3+1 0.000000 0.561750 0.000000 0.978997
Cu12  Cu    Cu3+1 0.938250 0.500000 0.500000 0.978991
H1    H     H_    0.435314 0.294102 0.919913 0.183658
H2    H     H_    0.205898 0.935315 0.419913 0.183659
H3    H     H_    0.427003 0.366022 0.058163 0.342867
H4    H     H_    0.633978 0.572997 0.941837 0.342867
H5    H     H_    0.572997 0.366022 0.941837 0.342867
H6    H     H_    0.366022 0.427003 0.941837 0.342867
H7    H     H_    0.427003 0.633978 0.941837 0.342867
H8    H     H_    0.133978 0.927002 0.558163 0.342867
H9    H     H_    0.072998 0.133978 0.558163 0.342867
H10   H     H_    0.866022 0.072998 0.558163 0.342867
H11   H     H_    0.927002 0.866022 0.558163 0.342867
H12   H     H_    0.133978 0.072998 0.441837 0.342867
H13   H     H_    0.064685 0.205898 0.419913 0.183659
H14   H     H_    0.072997 0.866022 0.441837 0.342867
H15   H     H_    0.866022 0.927002 0.441837 0.342867
H16   H     H_    0.927002 0.133978 0.441837 0.342867
H17   H     H_    0.496167 0.136566 0.045178 0.127128
H18   H     H_    0.863434 0.496167 0.045178 0.127128
H19   H     H_    0.503833 0.863434 0.045178 0.127128
H20   H     H_    0.136566 0.503833 0.045178 0.127128
H21   H     H_    0.496167 0.863434 0.954822 0.127128
H22   H     H_    0.863434 0.503833 0.954822 0.127128
H23   H     H_    0.503832 0.136566 0.954822 0.127128
H24   H     H_    0.794102 0.064685 0.419913 0.183659
H25   H     H_    0.136566 0.496167 0.954822 0.127128
H26   H     H_    0.996167 0.636566 0.545178 0.127129
H27   H     H_    0.363434 0.996167 0.545178 0.127129
H28   H     H_    0.003833 0.363434 0.545178 0.127129
H29   H     H_    0.636566 0.003833 0.545178 0.127129
H30   H     H_    0.996167 0.363434 0.454822 0.127129
H31   H     H_    0.363434 0.003833 0.454822 0.127129
H32   H     H_    0.003833 0.636566 0.454822 0.127129
H33   H     H_    0.636566 0.996167 0.454822 0.127129
H34   H     H_    0.935315 0.205898 0.580087 0.183660
H35   H     H_    0.205898 0.064685 0.580087 0.183660
H36   H     H_    0.064685 0.794102 0.580087 0.183660
H37   H     H_    0.794102 0.935315 0.580087 0.183660
H38   H     H_    0.523035 0.190334 0.081883 0.162789
H39   H     H_    0.809666 0.523035 0.081883 0.162788
H40   H     H_    0.476965 0.809666 0.081883 0.162789
H41   H     H_    0.705898 0.435314 0.919913 0.183657
H42   H     H_    0.190334 0.476965 0.081883 0.162789
H43   H     H_    0.523036 0.809666 0.918117 0.162785
H44   H     H_    0.809666 0.476965 0.918117 0.162783
H45   H     H_    0.476964 0.190334 0.918117 0.162784
H46   H     H_    0.190334 0.523035 0.918117 0.162784
H47   H     H_    0.023034 0.690334 0.581883 0.162796
H48   H     H_    0.309666 0.023034 0.581883 0.162795
H49   H     H_    0.976966 0.309666 0.581883 0.162796
H50   H     H_    0.690334 0.976966 0.581883 0.162795
H51   H     H_    0.023035 0.309666 0.418117 0.162790
H52   H     H_    0.564686 0.705898 0.919913 0.183658
H53   H     H_    0.309666 0.976965 0.418117 0.162790
H54   H     H_    0.976965 0.690334 0.418117 0.162791
H55   H     H_    0.690334 0.023035 0.418117 0.162790
H56   H     H_    0.404427 0.024453 0.879881 0.149384
H57   H     H_    0.975542 0.404428 0.879881 0.149384
H58   H     H_    0.595573 0.975546 0.879881 0.149383
H59   H     H_    0.024457 0.595572 0.879881 0.149384
H60   H     H_    0.404421 0.975571 0.120119 0.149381
H61   H     H_    0.975567 0.595578 0.120119 0.149381
H62   H     H_    0.595579 0.024429 0.120119 0.149381
H63   H     H_    0.294102 0.564686 0.919913 0.183657
H64   H     H_    0.024434 0.404422 0.120119 0.149381
H65   H     H_    0.904420 0.524425 0.379881 0.149381
H66   H     H_    0.475571 0.904421 0.379881 0.149381
H67   H     H_    0.095580 0.475575 0.379881 0.149381
H68   H     H_    0.524428 0.095579 0.379881 0.149381
H69   H     H_    0.904413 0.475601 0.620119 0.149379
H70   H     H_    0.475596 0.095585 0.620119 0.149379
H71   H     H_    0.095587 0.524399 0.620119 0.149379
H72   H     H_    0.524404 0.904415 0.620119 0.149379
H73   H     H_    0.403942 0.024174 0.923885 0.168370
H74   H     H_    0.435314 0.705898 0.080087 0.183659
H75   H     H_    0.975822 0.403942 0.923885 0.168368
H76   H     H_    0.596058 0.975826 0.923885 0.168369
H77   H     H_    0.024178 0.596057 0.923885 0.168368
H78   H     H_    0.403936 0.975850 0.076115 0.168373
H79   H     H_    0.975846 0.596063 0.076115 0.168373
H80   H     H_    0.596064 0.024150 0.076115 0.168373
H81   H     H_    0.024155 0.403937 0.076115 0.168372
H82   H     H_    0.903934 0.524146 0.423885 0.168373
H83   H     H_    0.475850 0.903936 0.423885 0.168373
H84   H     H_    0.096065 0.475854 0.423885 0.168373
H85   H     H_    0.705898 0.564686 0.080087 0.183659
H86   H     H_    0.524150 0.096064 0.423885 0.168373
H87   H     H_    0.903928 0.475880 0.576115 0.168378
H88   H     H_    0.475874 0.096070 0.576115 0.168377
H89   H     H_    0.096072 0.524120 0.576115 0.168377
H90   H     H_    0.524126 0.903930 0.576115 0.168377
H91   H     H_    0.602481 0.117934 0.768044 0.142338
H92   H     H_    0.882070 0.602488 0.768044 0.142337
H93   H     H_    0.397519 0.882065 0.768044 0.142338
H94   H     H_    0.117930 0.397512 0.768044 0.142337
H95   H     H_    0.397556 0.117968 0.231956 0.142338
H96   H     H_    0.564685 0.294102 0.080087 0.183659
H97   H     H_    0.882037 0.397551 0.231956 0.142338
H98   H     H_    0.602443 0.882032 0.231956 0.142338
H99   H     H_    0.117964 0.602448 0.231956 0.142338
H100  H     H_    0.897562 0.382028 0.268043 0.142338
H101  H     H_    0.382032 0.102443 0.268043 0.142338
H102  H     H_    0.102439 0.617972 0.268043 0.142338
H103  H     H_    0.617968 0.897557 0.268043 0.142338
H104  H     H_    0.897601 0.618007 0.731957 0.142338
H105  H     H_    0.618000 0.102405 0.731956 0.142339
H106  H     H_    0.102399 0.381993 0.731957 0.142338
H107  H     H_    0.294102 0.435314 0.080087 0.183659
H108  H     H_    0.381999 0.897595 0.731956 0.142339
H109  H     H_    0.600906 0.116879 0.810554 0.188287
H110  H     H_    0.883125 0.600913 0.810554 0.188286
H111  H     H_    0.399094 0.883121 0.810554 0.188287
H112  H     H_    0.116875 0.399087 0.810554 0.188286
H113  H     H_    0.399131 0.116912 0.189446 0.188286
H114  H     H_    0.883093 0.399126 0.189446 0.188286
H115  H     H_    0.600869 0.883088 0.189446 0.188286
H116  H     H_    0.116908 0.600874 0.189446 0.188286
H117  H     H_    0.899136 0.383084 0.310554 0.188286
H118  H     H_    0.935314 0.794102 0.419913 0.183659
H119  H     H_    0.383088 0.100868 0.310554 0.188286
H120  H     H_    0.100864 0.616916 0.310554 0.188287
H121  H     H_    0.616912 0.899132 0.310554 0.188286
H122  H     H_    0.899175 0.616951 0.689446 0.188286
H123  H     H_    0.616944 0.100831 0.689446 0.188287
H124  H     H_    0.100825 0.383049 0.689446 0.188286
H125  H     H_    0.383056 0.899169 0.689446 0.188287
H126  H     H_    0.633978 0.427003 0.058163 0.342867
H127  H     H_    0.572997 0.633978 0.058163 0.342867
H128  H     H_    0.366022 0.572997 0.058163 0.342867
N1    N     N_R   0.500000 0.000000 0.851021 -0.465843
N2    N     N_R   0.000000 0.500000 0.851021 -0.465844
N3    N     N_R   0.500000 1.000000 0.148980 -0.465843
N4    N     N_R   0.000000 0.500000 0.148980 -0.465844
N5    N     N_R   1.000000 0.500000 0.351020 -0.465843
N6    N     N_R   0.500000 1.000000 0.351020 -0.465843
N7    N     N_R   1.000000 0.500000 0.648980 -0.465844
N8    N     N_R   0.500000 0.000000 0.648980 -0.465843
O1    O     O_R   0.409890 0.500000 0.979770 -0.588425
O2    O     O_R   1.000000 0.909890 0.479770 -0.588424
O3    O     O_R   0.090110 1.000000 0.479770 -0.588424
O4    O     O_R   1.000000 0.090110 0.479770 -0.588424
O5    O     O_R   0.909890 0.000000 0.520230 -0.588425
O6    O     O_R   1.000000 0.090110 0.520230 -0.588425
O7    O     O_R   0.090110 0.000000 0.520230 -0.588425
O8    O     O_R   1.000000 0.909890 0.520230 -0.588425
O9    O     O_R   0.447860 0.999990 0.965090 -0.585217
O10   O     O_R   0.000010 0.447860 0.965090 -0.585217
O11   O     O_R   0.552140 0.000010 0.965090 -0.585217
O12   O     O_R   0.500000 0.409890 0.979770 -0.588425
O13   O     O_R   0.999990 0.552140 0.965090 -0.585217
O14   O     O_R   0.447860 0.000010 0.034910 -0.585220
O15   O     O_R   0.000010 0.552140 0.034910 -0.585219
O16   O     O_R   0.552140 0.999990 0.034910 -0.585220
O17   O     O_R   0.999990 0.447860 0.034910 -0.585219
O18   O     O_R   0.947860 0.499990 0.465090 -0.585220
O19   O     O_R   0.500010 0.947860 0.465090 -0.585219
O20   O     O_R   0.052140 0.500010 0.465090 -0.585220
O21   O     O_R   0.499990 0.052140 0.465090 -0.585220
O22   O     O_R   0.947860 0.500010 0.534910 -0.585223
O23   O     O_R   0.590110 0.500000 0.979770 -0.588425
O24   O     O_R   0.500010 0.052140 0.534910 -0.585223
O25   O     O_R   0.052140 0.499990 0.534910 -0.585223
O26   O     O_R   0.499990 0.947860 0.534910 -0.585222
O27   O     O_2   0.569570 0.082388 0.851278 -0.541159
O28   O     O_2   0.917614 0.569574 0.851278 -0.541158
O29   O     O_2   0.430430 0.917612 0.851278 -0.541159
O30   O     O_2   0.082386 0.430426 0.851278 -0.541158
O31   O     O_2   0.430456 0.082410 0.148722 -0.541160
O32   O     O_2   0.917593 0.430452 0.148722 -0.541160
O33   O     O_2   0.569544 0.917590 0.148722 -0.541160
O34   O     O_R   0.500000 0.590110 0.979770 -0.588425
O35   O     O_2   0.082408 0.569548 0.148722 -0.541159
O36   O     O_2   0.930459 0.417587 0.351278 -0.541161
O37   O     O_2   0.417589 0.069544 0.351278 -0.541160
O38   O     O_2   0.069541 0.582413 0.351278 -0.541161
O39   O     O_2   0.582411 0.930456 0.351278 -0.541159
O40   O     O_2   0.930486 0.582437 0.648722 -0.541161
O41   O     O_2   0.582432 0.069518 0.648722 -0.541162
O42   O     O_2   0.069514 0.417563 0.648722 -0.541161
O43   O     O_2   0.417568 0.930482 0.648722 -0.541162
O44   O     O_R   0.447860 0.090180 0.999960 -0.574993
O45   O     O_R   0.409890 0.500000 0.020230 -0.588425
O46   O     O_R   0.909820 0.447860 0.999960 -0.574993
O47   O     O_R   0.552140 0.909820 0.999960 -0.574993
O48   O     O_R   0.090180 0.552140 0.999960 -0.574994
O49   O     O_R   0.447860 0.909820 0.000040 -0.574991
O50   O     O_R   0.909820 0.552140 0.000040 -0.574992
O51   O     O_R   0.552140 0.090180 0.000040 -0.574992
O52   O     O_R   0.090180 0.447860 0.000040 -0.574992
O53   O     O_R   0.947860 0.590180 0.499960 -0.574993
O54   O     O_R   0.409820 0.947860 0.499960 -0.574993
O55   O     O_R   0.052140 0.409820 0.499960 -0.574994
O56   O     O_R   0.500000 0.590110 0.020230 -0.588425
O57   O     O_R   0.590180 0.052140 0.499960 -0.574994
O58   O     O_R   0.947860 0.409820 0.500040 -0.574991
O59   O     O_R   0.409820 0.052140 0.500040 -0.574992
O60   O     O_R   0.052140 0.590180 0.500040 -0.574992
O61   O     O_R   0.590180 0.947860 0.500040 -0.574992
O62   O     O_2   0.626668 0.362254 0.023465 -0.565122
O63   O     O_R   0.600653 0.395294 0.060707 -0.750411
O64   O     O_2   0.637746 0.626668 0.023465 -0.565122
O65   O     O_R   0.604706 0.600653 0.060707 -0.750412
O66   O     O_2   0.373331 0.637746 0.023465 -0.565123
O67   O     O_R   0.590110 0.500000 0.020230 -0.588426
O68   O     O_R   0.399346 0.604706 0.060707 -0.750412
O69   O     O_2   0.362254 0.373331 0.023465 -0.565122
O70   O     O_R   0.395294 0.399347 0.060707 -0.750412
O71   O     O_2   0.626669 0.637746 0.976534 -0.565122
O72   O     O_R   0.600653 0.604706 0.939293 -0.750412
O73   O     O_2   0.637746 0.373331 0.976534 -0.565122
O74   O     O_R   0.604706 0.399346 0.939293 -0.750412
O75   O     O_2   0.373331 0.362254 0.976534 -0.565122
O76   O     O_R   0.399346 0.395294 0.939293 -0.750412
O77   O     O_2   0.362254 0.626669 0.976534 -0.565122
O78   O     O_R   0.500000 0.409890 0.020230 -0.588425
O79   O     O_R   0.395294 0.600653 0.939293 -0.750412
O80   O     O_2   0.126668 0.862254 0.523465 -0.565122
O81   O     O_R   0.100653 0.895293 0.560707 -0.750412
O82   O     O_2   0.137746 0.126668 0.523465 -0.565122
O83   O     O_R   0.104706 0.100653 0.560707 -0.750413
O84   O     O_2   0.873332 0.137746 0.523465 -0.565122
O85   O     O_R   0.899347 0.104706 0.560707 -0.750412
O86   O     O_2   0.862254 0.873332 0.523465 -0.565122
O87   O     O_R   0.895293 0.899347 0.560707 -0.750412
O88   O     O_2   0.126668 0.137746 0.476535 -0.565122
O89   O     O_R   0.909890 1.000000 0.479770 -0.588425
O90   O     O_R   0.100653 0.104706 0.439293 -0.750413
O91   O     O_2   0.137746 0.873332 0.476535 -0.565123
O92   O     O_R   0.104706 0.899347 0.439293 -0.750412
O93   O     O_2   0.873331 0.862254 0.476535 -0.565122
O94   O     O_R   0.899346 0.895293 0.439293 -0.750412
O95   O     O_2   0.862254 0.126668 0.476535 -0.565123
O96   O     O_R   0.895294 0.100653 0.439293 -0.750411

loop_
_geom_bond_atom_site_label_1
_geom_bond_atom_site_label_2
_ccdc_geom_bond_type
C115  C141  A    
C253  O2    A    
C95   C158  A    
C8    C26   A    
C32   C45   A    
C30   C45   A    
C195  H35   S    
C11   C62   A    
C137  O31   S    
C174  C257  A    
C216  O88   D    
C214  O84   D    
C79   C224  A    
C132  O27   S    
C9    C27   A    
C79   C194  A    
C203  O63   S    
C20   C66   A    
C206  O69   D    
Cu5   O45   S    
C91   C153  A    
C54   C156  A    
C95   H99   S    
C207  O72   S    
C174  C209  S    
C112  O78   A    
C12   H60   S    
C291  H114  S    
C85   C274  S    
C105  C123  A    
C71   O10   A    
C72   O14   A    
C175  C210  S    
C14   C31   A    
C73   O17   A    
C75   O21   A    
C19   C37   A    
C133  O28   S    
C106  C133  A    
C90   C195  A    
C200  H118  S    
C170  C187  A    
C103  H106  S    
C68   C193  A    
C137  N3    A    
C35   H43   S    
H8    O81   S    
C169  C204  S    
C22   C69   A    
C61   N1    S    
C212  C237  A    
C187  H74   S    
H4    O72   S    
Cu6   O2    S    
Cu9   O52   S    
C242  C284  S    
C211  O80   D    
C81   O49   A    
C233  C250  A    
C10   H58   S    
C109  C290  A    
C111  C139  A    
C106  C287  A    
C64   N4    S    
C122  C149  A    
C177  C213  S    
C110  C138  A    
C57   C192  A    
C136  N2    A    
C242  O89   A    
Cu3   O55   S    
C144  N6    A    
C173  C191  A    
C292  H115  S    
C28   H76   S    
Cu11  O48   S    
C42   H90   S    
C70   O11   A    
C3    C118  A    
C82   O48   A    
C99   C162  A    
C226  C244  A    
C14   C64   A    
Cu7   O6    S    
C144  O39   S    
C171  C206  S    
C167  C250  A    
Cu5   O56   S    
C145  N7    A    
C197  H37   S    
H11   O87   S    
C29   C44   A    
C33   C47   A    
C10   C61   A    
C34   C48   A    
C17   C34   A    
C8    C61   A    
C58   C162  A    
C85   O55   A    
C91   C289  A    
C177  C195  A    
H6    O76   S    
C3    H121  S    
C180  C215  S    
C182  C199  A    
C87   C285  A    
C99   H103  S    
C232  H33   S    
C176  C259  A    
C97   H101  S    
C23   C41   A    
C241  C272  A    
C231  C279  S    
Cu8   O9    S    
C72   O16   A    
C169  C251  A    
C251  C278  A    
C138  O32   S    
C118  C129  A    
C4    H122  S    
C233  C268  A    
C135  C199  A    
C5    H123  S    
C267  C284  A    
C104  H108  S    
C8    H56   S    
C102  H105  S    
C81   C270  S    
C239  C268  A    
C181  C216  S    
C243  C260  A    
C56   C128  A    
C231  O34   A    
C146  C200  A    
C83   C272  S    
C117  C128  A    
C39   H87   S    
C13   C190  A    
Cu1   O23   S    
C114  C293  A    
C92   C290  A    
C190  C235  A    
C143  O38   S    
C54   C154  A    
C30   H78   S    
C175  C193  A    
Cu11  O13   S    
C1    O1    A    
C168  C233  A    
C167  C185  A    
C110  C291  A    
C116  C295  A    
C257  C277  A    
C13   C187  A    
C124  C198  A    
C62   N2    S    
C121  C130  A    
C185  C286  A    
C207  O71   D    
C119  C130  A    
C2    C186  A    
Cu8   O49   S    
H128  O68   S    
C37   H84   S    
C55   C155  A    
C106  C125  A    
C209  O76   S    
Cu12  O18   S    
Cu7   O7    S    
C252  C279  A    
C190  H19   S    
C107  C134  A    
C13   H40   S    
C85   O58   A    
C224  C241  A    
C113  C227  A    
C141  N5    A    
C264  O3    A    
C288  H111  S    
C222  C239  A    
C139  N3    A    
C227  H29   S    
C23   C67   A    
C157  H55   S    
C101  H49   S    
C253  O8    A    
C224  H26   S    
C27   C44   A    
C89   C152  A    
Cu9   Cu11  S    
C21   C39   A    
C49   C75   S    
C140  O35   S    
H14   O92   S    
C237  C270  A    
C114  C140  A    
C247  C273  A    
C14   H61   S    
C275  C283  S    
C83   O53   A    
C59   C165  A    
C101  C196  A    
C275  O4    A    
Cu8   Cu10  S    
C244  C274  A    
C204  O65   S    
C230  H32   S    
C202  H24   S    
C235  C252  A    
Cu1   O12   S    
C186  H85   S    
C293  H116  S    
C220  O67   A    
C194  H36   S    
C25   H72   S    
C24   C201  A    
C141  O36   S    
C155  C159  A    
C33   H81   S    
C133  N2    A    
C93   C155  A    
C289  H112  S    
C211  O81   S    
C201  C236  A    
C84   O54   A    
C178  C196  A    
C105  C285  A    
C115  C128  A    
C82   C271  S    
Cu4   O24   S    
H10   O85   S    
Cu8   O44   S    
C223  H25   S    
C35   C212  A    
C219  O95   D    
Cu2   O26   S    
C73   O15   A    
C177  C260  A    
Cu3   O60   S    
C170  C252  A    
Cu5   O67   S    
C74   O20   A    
C193  H63   S    
C23   H71   S    
C53   C125  A    
C89   C288  A    
C84   O59   A    
C168  C286  A    
C55   C127  A    
C103  C165  A    
C258  C280  A    
C88   C151  A    
C94   H98   S    
Cu3   O25   S    
C201  H20   S    
C122  C131  A    
C266  C281  A    
C294  H117  S    
C185  H96   S    
C80   O50   A    
C220  O23   A    
C153  C165  A    
C75   O19   A    
C76   O25   A    
Cu7   O5    S    
C172  C207  S    
C1    O45   A    
Cu12  O58   S    
C83   O60   A    
C152  C166  A    
C146  H54   S    
Cu10  O16   S    
C18   C66   A    
C40   C51   A    
C138  N4    A    
C18   H66   S    
C19   C65   A    
C183  C200  A    
H7    O79   S    
C249  C267  A    
C206  O70   S    
C92   H95   S    
C171  C254  A    
C90   H48   S    
C60   C164  A    
C67   N7    S    
C77   O26   A    
C209  O75   D    
C173  C208  S    
Cu10  O47   S    
C142  N6    A    
C145  O40   S    
C65   N5    S    
C59   C163  A    
C229  C247  A    
C3    C99   A    
C109  C126  A    
C96   C159  A    
C182  C217  S    
C102  C164  A    
C168  H17   S    
C53   C151  A    
C184  C267  A    
Cu1   Cu5   S    
C232  C249  A    
C6    C121  A    
C236  C254  A    
C208  O73   D    
C174  C192  A    
C115  C294  A    
C96   H100  S    
C41   H89   S    
C132  N1    A    
C120  C131  A    
C264  C282  S    
C191  H41   S    
C107  C123  A    
Cu6   O3    S    
C213  O83   S    
C15   H62   S    
C230  C248  A    
C172  C255  A    
C38   C49   A    
C53   C153  A    
C54   C126  A    
C205  O68   S    
Cu2   Cu4   S    
C171  C188  A    
C245  C276  A    
C240  C271  A    
C169  C186  A    
C56   C159  A    
C24   H42   S    
C179  C234  A    
C181  C198  A    
C182  C265  A    
C134  N1    A    
C36   H83   S    
Cu8   O14   S    
C32   H80   S    
C80   C269  S    
C74   O18   A    
C76   O22   A    
C71   O13   A    
C158  C161  A    
C261  C283  A    
C113  C197  A    
C216  O90   S    
C262  C284  A    
Cu11  O15   S    
C87   C150  A    
C4    C119  A    
C167  C203  S    
C147  N8    A    
C218  O94   S    
C243  C273  A    
Cu1   O34   S    
Cu9   O10   S    
C35   C189  A    
C31   C47   A    
C84   C273  S    
Cu12  O22   S    
C147  O41   S    
C6    H124  S    
H15   O94   S    
C119  C145  A    
C60   C131  A    
C265  C282  A    
C105  C132  A    
C57   C222  A    
C21   H69   S    
C68   H46   S    
H5    O74   S    
C178  C214  S    
C5    C120  A    
C204  O64   D    
C97   C160  A    
C47   C73   S    
C149  N8    A    
C88   C287  A    
Cu6   O4    S    
C222  H23   S    
C87   H91   S    
C56   C161  A    
C88   H92   S    
C236  C271  A    
C60   C166  A    
C111  C292  A    
C82   O52   A    
C101  C226  A    
C86   C276  S    
C234  C251  A    
C238  C269  A    
C135  H53   S    
Cu9   O46   S    
C215  O86   D    
C285  H109  S    
C227  C245  A    
C69   N8    S    
C217  O91   D    
C52   C152  A    
C111  C126  A    
C249  C276  A    
C254  C280  A    
Cu2   O19   S    
C6    C103  A    
C46   C221  A    
Cu4   O57   S    
C170  C205  S    
C79   H47   S    
C136  O30   S    
C239  C257  A    
C34   H82   S    
C214  O85   S    
C41   C50   A    
C98   C161  A    
C150  C164  A    
C7    H125  S    
C234  C269  A    
C10   C28   A    
C5    C102  A    
C12   C30   A    
Cu3   O20   S    
C97   C295  A    
C237  C255  A    
C217  O92   S    
C98   C296  A    
C259  C281  A    
C25   C42   A    
Cu1   O1    S    
C172  C189  A    
C225  C243  A    
C100  C163  A    
C28   C43   A    
C118  C144  A    
C176  C211  S    
C221  C238  A    
C24   C188  A    
H3    O70   S    
C139  O33   S    
C86   O61   A    
C58   C160  A    
Cu12  O53   S    
C114  C127  A    
C143  N5    A    
C246  C274  A    
Cu2   O54   S    
C22   H70   S    
C91   H94   S    
C96   C294  A    
C63   N3    S    
C175  C258  A    
C104  C166  A    
H127  O65   S    
C80   O46   A    
C228  C246  A    
C120  C147  A    
C94   C156  A    
C135  C229  A    
C92   C154  A    
C58   C129  A    
C176  C194  A    
C18   C36   A    
C36   C49   A    
H16   O96   S    
C212  H21   S    
C59   C130  A    
C203  O62   D    
C90   C225  A    
C70   O9    A    
C286  H38   S    
C57   H45   S    
C44   C71   S    
C51   C77   S    
C38   H86   S    
C229  H31   S    
C235  C270  A    
C210  O79   S    
C183  C266  A    
C142  O37   S    
C192  H1    S    
C95   C293  A    
C256  C278  A    
Cu10  O51   S    
C117  C143  A    
C108  C136  A    
C86   O57   A    
C50   C76   S    
C223  C240  A    
C66   N6    S    
C52   C123  A    
Cu3   Cu12  S    
C148  O42   S    
C173  C256  A    
C20   H68   S    
Cu6   O89   S    
C263  C283  A    
C264  O7    A    
C109  C137  A    
Cu4   O21   S    
C112  C277  S    
C180  C197  A    
Cu4   O59   S    
C124  H51   S    
C184  C219  S    
C116  C129  A    
Cu2   O61   S    
H12   O90   S    
C43   C70   S    
C248  C272  A    
C295  H119  S    
C108  C125  A    
C134  O29   S    
C196  H34   S    
C42   C51   A    
C9    C62   A    
C250  C277  A    
C287  H110  S    
C156  C162  A    
C113  H50   S    
C21   C67   A    
C45   C72   S    
C199  H2    S    
C198  H13   S    
C245  C262  A    
C40   H88   S    
C124  C228  A    
C48   C74   S    
C26   C43   A    
C55   C158  A    
C2    H39   S    
C121  C148  A    
C184  C202  A    
C93   C291  A    
C117  C296  A    
C210  O77   D    
C94   C292  A    
Cu7   O8    S    
C46   H44   S    
C1    C280  S    
C12   C63   A    
C112  O12   A    
C238  C256  A    
C218  O93   D    
C78   C268  S    
C98   H102  S    
C154  C160  A    
C78   O51   A    
H126  O63   S    
C179  H18   S    
C16   C33   A    
C20   C38   A    
C108  C289  A    
C93   H97   S    
C181  C263  A    
C22   C40   A    
C46   C191  A    
C225  H27   S    
C37   C48   A    
C89   H93   S    
C221  H22   S    
C205  O66   D    
C140  N4    A    
C215  O87   S    
C15   C32   A    
C248  C266  A    
C52   C150  A    
Cu5   O78   S    
Cu9   O17   S    
C183  C218  S    
C151  C163  A    
C7    C104  A    
C4    C100  A    
C220  C278  S    
C116  C142  A    
C68   C223  A    
C2    C179  A    
C7    C122  A    
C78   O44   A    
C290  H113  S    
C296  H120  S    
C189  H52   S    
C208  O74   S    
C146  C230  A    
Cu6   Cu7   S    
C31   H79   S    
C241  C259  A    
C77   O24   A    
C255  C279  A    
C27   H75   S    
C29   H77   S    
C148  N7    A    
C178  C261  A    
C213  O82   D    
C260  C282  A    
Cu10  O11   S    
C81   O47   A    
C157  C202  A    
C242  O5    A    
C110  C127  A    
C17   C65   A    
C188  H107  S    
C17   H65   S    
C247  C265  A    
C240  C258  A    
C100  H104  S    
C107  C288  A    
C19   H67   S    
C219  O96   S    
C226  H28   S    
C16   H64   S    
C228  H30   S    
C180  C262  A    
C231  O56   A    
Cu11  O50   S    
C9    H57   S    
C11   H59   S    
C149  O43   S    
C39   C50   A    
C25   C69   A    
C11   C29   A    
C275  O6    A    
C15   C63   A    
C253  C281  S    
C244  C261  A    
C16   C64   A    
H9    O83   S    
C246  C263  A    
C157  C232  A    
C26   H73   S    
