data_mof_unit_37326.cif
_audit_creation_date              2012-12-10T17:31:21-0500
_audit_creation_method            fapswitch 2.2
_symmetry_space_group_name_H-M    P1
_symmetry_Int_Tables_number       1
_space_group_crystal_system       triclinic
_cell_length_a                    18.738222
_cell_length_b                    18.666519
_cell_length_c                    12.367858
_cell_angle_alpha                 90.000019
_cell_angle_beta                  129.293414
_cell_angle_gamma                 89.999985
_cell_volume                      3347.9453059

loop_
_atom_site_label
_atom_site_type_symbol
_atom_type_description
_atom_site_fract_x
_atom_site_fract_y
_atom_site_fract_z
_atom_type_partial_charge
C1    C     C_R   0.612349 0.897306 0.652676 0.818419
C2    C     C_R   0.612349 0.102694 0.652676 0.818419
C3    C     C_R   0.112349 0.397306 0.652676 0.818418
C4    C     C_R   0.112349 0.602694 0.652676 0.818419
C5    C     C_R   0.231189 0.785139 0.023200 0.094618
C6    C     C_R   0.231189 0.214861 0.023201 0.094618
C7    C     C_R   0.731189 0.285139 0.023200 0.094618
C8    C     C_R   0.731189 0.714861 0.023201 0.094618
C9    C     C_R   0.667889 0.258494 0.039373 0.116937
C10   C     C_R   0.667890 0.741507 0.039374 0.116938
C11   C     C_R   0.167889 0.758493 0.039373 0.116937
C12   C     C_R   0.167890 0.241507 0.039374 0.116937
C13   C     C_R   0.591709 0.219546 0.931421 -0.195178
C14   C     C_R   0.591710 0.780454 0.931422 -0.195179
C15   C     C_R   0.091709 0.719546 0.931421 -0.195179
C16   C     C_R   0.091710 0.280454 0.931422 -0.195179
C17   C     C_R   0.585317 0.198408 0.817895 -0.153405
C18   C     C_R   0.585317 0.801592 0.817896 -0.153405
C19   C     C_R   0.085317 0.698408 0.817895 -0.153404
C20   C     C_R   0.085317 0.301592 0.817896 -0.153405
C21   C     C_R   0.298027 0.833719 0.122945 -0.270909
C22   C     C_R   0.298026 0.166280 0.122945 -0.270909
C23   C     C_R   0.798026 0.333719 0.122945 -0.270909
C24   C     C_R   0.798026 0.666280 0.122945 -0.270909
C25   C     C_R   0.258332 0.810216 0.271934 0.193033
C26   C     C_R   0.258333 0.189785 0.271935 0.193032
C27   C     C_R   0.758332 0.310216 0.271934 0.193033
C28   C     C_R   0.758333 0.689785 0.271935 0.193032
C29   C     C_R   0.671852 0.166380 0.732171 -0.161771
C30   C     C_R   0.671853 0.833621 0.732171 -0.161771
C31   C     C_R   0.171852 0.666380 0.732171 -0.161771
C32   C     C_R   0.171853 0.333621 0.732171 -0.161771
C33   C     C_R   0.687917 0.000000 0.289114 -0.222407
C34   C     C_R   0.187917 0.500000 0.289114 -0.222407
C35   C     C_R   0.341045 1.000000 0.629889 0.401633
C36   C     C_R   0.841045 0.500000 0.629889 0.401634
C37   C     C_R   0.308457 1.000000 0.704380 -0.229890
C38   C     C_R   0.808457 0.500000 0.704380 -0.229890
C39   C     C_R   0.384863 0.100292 0.344064 0.830881
C40   C     C_R   0.384863 0.899707 0.344064 0.830880
C41   C     C_R   0.884863 0.600292 0.344064 0.830881
C42   C     C_R   0.884863 0.399707 0.344064 0.830880
C43   C     C_R   0.368686 1.000000 0.848539 -0.242052
C44   C     C_R   0.868686 0.500000 0.848539 -0.242052
C45   C     C_R   0.464215 1.000000 0.923072 -0.005726
C46   C     C_R   0.964214 0.500000 0.923072 -0.005726
C47   C     C_R   0.496215 0.000000 0.843623 0.195923
C48   C     C_R   0.996215 0.500000 0.843623 0.195923
C49   C     C_R   0.528606 1.000000 0.073516 -0.056156
C50   C     C_R   0.028606 0.500000 0.073516 -0.056156
C51   C     C_R   0.624407 0.000000 0.142440 0.085691
C52   C     C_R   0.124407 0.500000 0.142440 0.085691
C53   C     C_R   0.654916 0.000000 0.063812 0.091999
C54   C     C_R   0.154916 0.500000 0.063812 0.091998
C55   C     C_R   0.591889 0.000000 0.918490 -0.195379
C56   C     C_R   0.091889 0.500000 0.918490 -0.195379
C57   C     C_R   0.502006 1.000000 0.159488 0.022616
C58   C     C_R   0.002006 0.500000 0.159488 0.022616
C59   C     C_R   0.657159 0.000000 0.366024 0.127293
C60   C     C_R   0.157159 0.500000 0.366024 0.127293
C61   C     C_R   0.682494 0.270310 0.163955 -0.180028
C62   C     C_R   0.682494 0.729691 0.163956 -0.180028
C63   C     C_R   0.182494 0.770310 0.163955 -0.180028
C64   C     C_R   0.182495 0.229691 0.163956 -0.180028
C65   C     C_R   0.313085 0.846654 0.247524 -0.102362
C66   C     C_R   0.313084 0.153346 0.247524 -0.102362
C67   C     C_R   0.813085 0.346654 0.247524 -0.102362
C68   C     C_R   0.813084 0.653346 0.247524 -0.102361
C69   C     C_R   0.746107 0.184038 0.733082 0.190408
C70   C     C_R   0.746108 0.815963 0.733083 0.190409
C71   C     C_R   0.246107 0.684038 0.733082 0.190407
C72   C     C_R   0.246108 0.315963 0.733083 0.190409
C73   C     C_R   0.302830 0.741982 0.809821 -0.126827
C74   C     C_R   0.302833 0.258020 0.809825 -0.126828
C75   C     C_R   0.802830 0.241982 0.809821 -0.126827
C76   C     C_R   0.802833 0.758019 0.809825 -0.126828
C77   C     C_R   0.295657 0.778416 0.899534 -0.220480
C78   C     C_R   0.295660 0.221587 0.899539 -0.220480
C79   C     C_R   0.795657 0.278416 0.899534 -0.220480
C80   C     C_R   0.795660 0.721587 0.899539 -0.220480
C81   C     C_R   0.728647 0.259094 0.912637 0.105414
C82   C     C_R   0.728648 0.740907 0.912639 0.105415
C83   C     C_R   0.228647 0.759094 0.912637 0.105414
C84   C     C_R   0.228648 0.240906 0.912639 0.105414
C85   C     C_R   0.660484 0.207808 0.818211 0.051827
C86   C     C_R   0.660485 0.792192 0.818212 0.051826
C87   C     C_R   0.160484 0.707808 0.818211 0.051827
C88   C     C_R   0.160485 0.292192 0.818212 0.051826
Cu1   Cu    Cu3+1 0.526340 1.000000 0.421010 0.980889
Cu2   Cu    Cu3+1 0.026340 0.500000 0.421010 0.980889
Cu3   Cu    Cu3+1 0.473640 0.000000 0.578990 0.975299
Cu4   Cu    Cu3+1 0.973640 0.500000 0.578990 0.975299
H1    H     H_    0.761498 0.000001 0.346145 0.196599
H2    H     H_    0.261498 0.500001 0.346145 0.196599
H3    H     H_    0.430847 1.000000 0.115740 0.116708
H4    H     H_    0.930847 0.500000 0.115740 0.116708
H5    H     H_    0.337936 1.000000 0.898277 0.147478
H6    H     H_    0.837936 0.500000 0.898277 0.147478
H7    H     H_    0.234994 1.000000 0.649672 0.182964
H8    H     H_    0.734994 0.500000 0.649672 0.182964
H9    H     H_    0.621386 1.000000 0.867943 0.224386
H10   H     H_    0.121386 0.500000 0.867943 0.224386
H11   H     H_    0.537459 0.204673 0.935360 0.145814
H12   H     H_    0.537459 0.795328 0.935361 0.145815
H13   H     H_    0.037459 0.704673 0.935360 0.145815
H14   H     H_    0.037459 0.295328 0.935361 0.145815
H15   H     H_    0.637662 0.245363 0.180106 0.164544
H16   H     H_    0.637663 0.754638 0.180108 0.164545
H17   H     H_    0.137662 0.745363 0.180106 0.164544
H18   H     H_    0.137663 0.254638 0.180108 0.164545
H19   H     H_    0.339552 0.862363 0.105409 0.160631
H20   H     H_    0.339549 0.137635 0.105406 0.160630
H21   H     H_    0.839552 0.362362 0.105409 0.160631
H22   H     H_    0.839549 0.637635 0.105406 0.160630
H23   H     H_    0.346942 0.819210 0.961386 0.139656
H24   H     H_    0.346947 0.180794 0.961395 0.139657
H25   H     H_    0.846942 0.319210 0.961386 0.139656
H26   H     H_    0.846947 0.680794 0.961395 0.139657
H27   H     H_    0.358019 0.756169 0.807719 0.170870
H28   H     H_    0.358023 0.243834 0.807725 0.170869
H29   H     H_    0.858019 0.256169 0.807719 0.170870
H30   H     H_    0.858023 0.743834 0.807725 0.170869
H31   H     H_    0.521220 0.173915 0.732535 0.198886
H32   H     H_    0.521220 0.826085 0.732535 0.198886
H33   H     H_    0.021220 0.673915 0.732535 0.198886
H34   H     H_    0.021220 0.326084 0.732535 0.198886
H35   H     H_    0.706051 0.000000 0.477767 0.180099
H36   H     H_    0.206051 0.500000 0.477767 0.180099
N1    N     N_R   0.566260 1.000000 0.302220 -0.185732
N2    N     N_R   0.066260 0.500000 0.302220 -0.185732
N3    N     N_R   0.434410 0.000000 0.697680 -0.222740
N4    N     N_R   0.934410 0.500000 0.697680 -0.222740
O1    O     O_R   0.608610 0.924520 0.551740 -0.545800
O2    O     O_R   0.608610 0.075480 0.551740 -0.545801
O3    O     O_R   0.108610 0.424520 0.551740 -0.545800
O4    O     O_R   0.108610 0.575480 0.551740 -0.545801
O5    O     O_R   0.564110 0.924510 0.685150 -0.612049
O6    O     O_R   0.564110 0.075490 0.685150 -0.612049
O7    O     O_R   0.064110 0.424510 0.685150 -0.612049
O8    O     O_R   0.064110 0.575490 0.685150 -0.612049
O9    O     O_R   0.435880 0.075470 0.314850 -0.595499
O10   O     O_R   0.435880 0.924530 0.314850 -0.595500
O11   O     O_R   0.935880 0.575470 0.314850 -0.595499
O12   O     O_R   0.935880 0.424530 0.314850 -0.595500
O13   O     O_R   0.391380 0.075460 0.448260 -0.545877
O14   O     O_R   0.391380 0.924540 0.448260 -0.545877
O15   O     O_R   0.891380 0.575460 0.448260 -0.545877
O16   O     O_R   0.891380 0.424540 0.448260 -0.545877
I1    I     I_    0.289582 0.803712 0.469424 -0.343534
I2    I     I_    0.289583 0.196289 0.469425 -0.343532
I3    I     I_    0.789582 0.303712 0.469424 -0.343534
I4    I     I_    0.789583 0.696289 0.469425 -0.343532
I5    I     I_    0.796680 0.000000 0.154642 -0.330794
I6    I     I_    0.296680 0.500000 0.154642 -0.330794
I7    I     I_    0.232877 0.000000 0.409396 -0.252093
I8    I     I_    0.732877 0.500000 0.409396 -0.252093
I9    I     I_    0.792629 0.124281 0.642845 -0.321523
I10   I     I_    0.792628 0.875719 0.642842 -0.321522
I11   I     I_    0.292629 0.624281 0.642845 -0.321523
I12   I     I_    0.292628 0.375719 0.642842 -0.321522

loop_
_geom_bond_atom_site_label_1
_geom_bond_atom_site_label_2
_ccdc_geom_bond_type
C83   C87   A    
C24   H22   S    
C73   H27   S    
C40   O10   A    
Cu4   O16   S    
C14   C18   A    
Cu3   O13   S    
C42   O16   A    
Cu1   N1    S    
C32   C72   A    
C15   C19   A    
C2    O2    A    
C2    C29   S    
C9    C61   A    
C57   N1    A    
C28   C68   A    
C35   I7    S    
C5    C11   A    
C19   C87   A    
C36   N4    A    
C6    C12   A    
C12   C64   A    
Cu1   O9    S    
C62   H16   S    
C77   C83   A    
C59   H35   S    
Cu1   O10   S    
C6    C22   A    
C79   H25   S    
C49   C57   A    
C25   I1    S    
C25   C63   A    
C23   C67   A    
C9    C13   A    
C22   C66   A    
C58   H4    S    
C27   C61   A    
C6    C84   A    
C21   H19   S    
Cu3   O5    S    
C44   H6    S    
C17   H31   S    
C12   C16   A    
C52   C54   A    
C49   C51   A    
C50   C52   A    
C30   C86   A    
C29   C85   A    
Cu2   O11   S    
C48   C56   A    
C16   H14   S    
C4    O4    A    
C21   C65   A    
C53   C55   A    
C3    O7    A    
C33   C59   A    
Cu4   O15   S    
C34   C60   A    
C10   C62   A    
C11   C15   A    
C1    O1    A    
C64   H18   S    
C30   C70   A    
C44   C46   A    
C41   C68   S    
C29   C69   A    
C45   C47   A    
Cu2   Cu4   S    
C54   C56   A    
Cu1   O1    S    
C28   C62   A    
C23   H21   S    
C2    O6    A    
C43   H5    S    
C60   H36   S    
C31   C87   A    
C38   H8    S    
C10   C14   A    
C80   H26   S    
C60   N2    A    
C79   C81   A    
C82   C86   A    
C19   H33   S    
C14   H12   S    
C47   N3    A    
C70   I10   S    
C26   C66   A    
C63   H17   S    
C38   C44   A    
C4    O8    A    
Cu3   O6    S    
Cu2   O4    S    
C69   I9    S    
C41   O15   A    
C45   C49   A    
C16   C20   A    
C26   I2    S    
C39   O13   A    
C50   C58   A    
C5    C21   A    
C18   C86   A    
C43   C45   A    
C39   O9    A    
C72   C74   A    
C7    C81   A    
C34   H2    S    
C28   I4    S    
C22   H20   S    
C40   C65   S    
C70   C76   A    
C42   C67   S    
C39   C66   S    
C17   C85   A    
C37   C43   A    
C13   H11   S    
Cu4   O8    S    
C35   N3    A    
C37   H7    S    
C1    O5    A    
C36   I8    S    
C47   C55   A    
C57   H3    S    
C7    C9    A    
C55   H9    S    
C53   I5    S    
C59   N1    A    
C27   I3    S    
Cu1   O2    S    
C35   C37   A    
C75   H29   S    
C34   C52   A    
C78   H24   S    
C76   C80   A    
C33   H1    S    
C54   I6    S    
C5    C83   A    
C41   O11   A    
C40   O14   A    
C26   C64   A    
C33   C51   A    
C71   I11   S    
Cu4   N4    S    
C46   C50   A    
C11   C63   A    
C72   I12   S    
C13   C17   A    
C76   H30   S    
C15   H13   S    
C36   C38   A    
C56   H10   S    
C42   O12   A    
Cu2   O3    S    
C84   C88   A    
C58   N2    A    
C7    C23   A    
C20   C88   A    
C31   C71   A    
C1    C30   S    
C8    C24   A    
C80   C82   A    
C20   H34   S    
C69   C75   A    
C3    O3    A    
C3    C32   S    
C61   H15   S    
C81   C85   A    
C4    C31   S    
C27   C67   A    
C24   C68   A    
C74   H28   S    
Cu2   N2    S    
C46   C48   A    
C78   C84   A    
C8    C82   A    
Cu3   N3    S    
C8    C10   A    
Cu1   Cu3   S    
C74   C78   A    
C71   C73   A    
C25   C65   A    
C73   C77   A    
C48   N4    A    
C51   C53   A    
C77   H23   S    
Cu4   O7    S    
C75   C79   A    
Cu3   O14   S    
Cu2   O12   S    
C18   H32   S    
C32   C88   A    
