data_mof_unit_35064.cif
_audit_creation_date              2012-12-10T17:17:29-0500
_audit_creation_method            fapswitch 2.2
_symmetry_space_group_name_H-M    P1
_symmetry_Int_Tables_number       1
_space_group_crystal_system       triclinic
_cell_length_a                    10.188494
_cell_length_b                    10.848342
_cell_length_c                    12.480694
_cell_angle_alpha                 90.790865
_cell_angle_beta                  110.25564
_cell_angle_gamma                 95.654454
_cell_volume                      1286.16496668

loop_
_atom_site_label
_atom_site_type_symbol
_atom_type_description
_atom_site_fract_x
_atom_site_fract_y
_atom_site_fract_z
_atom_type_partial_charge
C1    C     C_R   0.053163 0.732360 0.495293 0.935287
C2    C     C_R   0.220717 0.573668 0.829595 -0.135734
C3    C     C_2   0.088604 0.864778 0.501218 -0.383353
C4    C     C_R   0.138597 0.527126 0.711715 0.866509
C5    C     C_2   0.006935 0.936303 0.531642 -0.144273
C6    C     C_2   0.926945 0.137028 0.524209 -0.383496
C7    C     C_2   0.029682 0.068021 0.528351 -0.144399
C8    C     C_2   0.430637 0.518203 0.499885 -0.135616
C9    C     C_2   0.567379 0.487942 0.490385 -0.130777
C10   C     C_R   0.950076 0.268024 0.509998 0.959318
C11   C     C_R   0.864632 0.489242 0.285816 0.870880
C12   C     C_R   0.444796 0.595205 0.985562 0.095818
C13   C     C_R   0.787655 0.523636 0.968643 -0.182302
C14   C     C_R   0.793285 0.502308 0.163225 -0.109301
C15   C     C_R   0.151906 0.594283 0.906961 -0.171762
C16   C     C_R   0.229512 0.623019 0.021888 -0.132079
C17   C     C_R   0.374314 0.617581 0.062536 -0.202291
C18   C     C_R   0.368895 0.594633 0.867761 0.090911
C19   C     C_R   0.586277 0.569147 0.019999 0.074951
C20   C     C_R   0.654065 0.563971 0.938557 0.132353
C21   C     C_R   0.585238 0.596067 0.827090 -0.243453
C22   C     C_R   0.443960 0.613560 0.792505 -0.188766
C23   C     C_R   0.657162 0.537197 0.130741 -0.284110
C24   C     C_R   0.857588 0.490768 0.079967 0.087953
H1    H     H_    0.916895 0.897818 0.553031 0.187237
H2    H     H_    0.605076 0.535570 0.192571 0.170863
H3    H     H_    0.038592 0.589171 0.878437 0.154850
H4    H     H_    0.429029 0.635130 0.153274 0.133265
H5    H     H_    0.176984 0.645221 0.080308 0.143802
H6    H     H_    0.393711 0.642287 0.707054 0.161732
H7    H     H_    0.129298 0.107656 0.522687 0.189195
H8    H     H_    0.068695 0.501973 0.163583 0.205191
H9    H     H_    0.984125 0.355326 0.138206 0.199295
H10   H     H_    0.827531 0.096925 0.529753 0.149580
H11   H     H_    0.178348 0.903698 0.479783 0.148768
H12   H     H_    0.566710 0.409174 0.435581 0.161947
H13   H     H_    0.430122 0.603076 0.545986 0.149254
H14   H     H_    0.682376 0.629756 0.593488 0.150672
H15   H     H_    0.319084 0.366276 0.412145 0.161420
H16   H     H_    0.638717 0.602365 0.765797 0.136486
H17   H     H_    0.835675 0.513978 0.904509 0.143249
N1    N     N_2   0.313640 0.446500 0.454900 -0.195167
N2    N     N_2   0.686360 0.553430 0.545150 -0.196931
N3    N     N_3   0.989992 0.442229 0.103940 -0.461966
O1    O     O_R   0.936910 0.692950 0.509080 -0.610943
O2    O     O_R   0.138320 0.658600 0.480130 -0.623277
O3    O     O_R   0.002900 0.525670 0.675280 -0.612652
O4    O     O_R   0.204310 0.491320 0.646330 -0.603178
O5    O     O_R   0.861680 0.341400 0.519870 -0.606005
O6    O     O_R   0.063090 0.307050 0.490920 -0.608233
O7    O     O_R   0.795690 0.508680 0.353670 -0.609661
O8    O     O_R   0.997100 0.474330 0.324720 -0.620839
Zn1   Zn    Zn3+2 0.865520 0.522940 0.519330 0.932525
Zn2   Zn    Zn3+2 0.134480 0.477060 0.480670 0.927252

loop_
_geom_bond_atom_site_label_1
_geom_bond_atom_site_label_2
_ccdc_geom_bond_type
C14   C23   A    
C6    C10   S    
C9    H12   S    
C2    C4    S    
C6    C7    D    
C2    C18   A    
C19   C23   A    
C19   C20   A    
C3    H11   S    
O3    Zn1   S    
O2    Zn2   S    
C13   H17   S    
H8    N3    S    
O1    Zn1   S    
H14   N2    S    
C21   C22   A    
N1    Zn2   S    
C12   C17   A    
O4    Zn2   S    
C2    C15   A    
C17   H4    S    
C1    O1    A    
O6    Zn2   S    
C21   H16   S    
O5    Zn1   S    
C12   C19   A    
O8    Zn2   S    
H15   N1    S    
C24   N3    S    
C11   C14   S    
C5    H1    S    
C1    O2    A    
C9    N2    D    
C11   O7    A    
C8    H13   S    
H9    N3    S    
C14   C24   A    
C15   C16   A    
C10   O6    A    
C3    C5    D    
C7    H7    S    
C20   C21   A    
C4    O4    A    
C23   H2    S    
C12   C18   A    
C5    C7    S    
C16   C17   A    
C11   O8    A    
C22   H6    S    
C13   C20   A    
O7    Zn1   S    
C16   H5    S    
C18   C22   A    
C10   O5    A    
C15   H3    S    
N2    Zn1   S    
C6    H10   S    
C13   C24   A    
C8    N1    D    
C8    C9    S    
C1    C3    S    
C4    O3    A    
