data_mof_unit_20150.cif
_audit_creation_date              2012-12-10T19:05:51-0500
_audit_creation_method            fapswitch 2.2
_symmetry_space_group_name_H-M    P1
_symmetry_Int_Tables_number       1
_space_group_crystal_system       triclinic
_cell_length_a                    19.351893
_cell_length_b                    10.820822
_cell_length_c                    9.541981
_cell_angle_alpha                 90.177906
_cell_angle_beta                  90.192115
_cell_angle_gamma                 90.163429
_cell_volume                      1998.09411166

loop_
_atom_site_label
_atom_site_type_symbol
_atom_type_description
_atom_site_fract_x
_atom_site_fract_y
_atom_site_fract_z
_atom_type_partial_charge
C1    C     C_R   0.502792 0.262399 0.499422 0.853083
C2    C     C_R   0.291458 0.496398 0.499606 -0.023499
C3    C     C_R   0.929846 0.493954 0.498991 0.409965
C4    C     C_R   0.070005 0.491871 0.499329 0.409945
C5    C     C_R   0.817663 0.538988 0.616655 -0.152967
C6    C     C_R   0.745702 0.540800 0.616719 -0.193683
C7    C     C_R   0.708440 0.498739 0.499655 -0.024245
C8    C     C_R   0.744350 0.455497 0.381884 -0.186412
C9    C     C_R   0.816363 0.454285 0.381288 -0.154186
C10   C     C_R   0.853725 0.495710 0.498912 0.054976
C11   C     C_R   0.492508 0.064250 0.619962 0.007596
C12   C     C_R   0.367438 0.498993 0.499860 0.809674
C13   C     C_R   0.510343 0.129017 0.498926 -0.078338
C14   C     C_R   0.537347 0.062092 0.382814 0.151605
C15   C     C_R   0.534696 0.932643 0.385389 -0.210074
C16   C     C_R   0.507841 0.870370 0.501854 -0.102902
C17   C     C_R   0.492119 0.937362 0.622169 0.032834
C18   C     C_3   0.429381 0.932315 0.712802 -0.495613
C19   C     C_3   0.429725 0.073189 0.710547 0.345593
C20   C     C_R   0.539845 0.582949 0.074398 0.263756
C21   C     C_R   0.456458 0.425779 0.073862 -0.099814
C22   C     C_R   0.456432 0.425862 0.925000 -0.083900
C23   C     C_R   0.500967 0.737553 0.500319 0.811445
C24   C     C_R   0.539916 0.582440 0.926627 0.220390
C25   C     C_3   0.616604 0.591827 0.920298 -0.509804
C26   C     C_3   0.616982 0.592199 0.079276 -0.082866
C27   C     C_R   0.632529 0.499842 0.500033 0.766514
C28   C     C_R   0.254948 0.502203 0.626323 -0.197321
C29   C     C_R   0.182970 0.500432 0.626199 -0.165181
C30   C     C_R   0.146142 0.492103 0.499408 0.059566
C31   C     C_R   0.182725 0.485082 0.372756 -0.157036
C32   C     C_R   0.254730 0.487498 0.372837 -0.182435
Cu1   Cu    Cu3+1 0.500000 0.499980 0.640670 0.947365
Cu2   Cu    Cu3+1 0.500000 0.500020 0.359330 0.938071
H1    H     H_    0.281912 0.508577 0.725748 0.148992
H2    H     H_    0.551327 0.880765 0.294617 0.159726
H3    H     H_    0.384275 0.889375 0.658635 0.211692
H4    H     H_    0.441065 0.893835 0.818091 0.159535
H5    H     H_    0.441602 0.118431 0.813097 0.067011
H6    H     H_    0.422246 0.363786 0.129294 0.142532
H7    H     H_    0.422215 0.364083 0.868638 0.136949
H8    H     H_    0.640574 0.506919 0.876643 0.195379
H9    H     H_    0.633753 0.679733 0.871120 0.198860
H10   H     H_    0.641822 0.508660 0.123813 0.181506
H11   H     H_    0.156268 0.505370 0.725593 0.152710
H12   H     H_    0.155807 0.478727 0.273316 0.151541
H13   H     H_    0.281551 0.482349 0.273553 0.147508
H14   H     H_    0.844949 0.572516 0.708513 0.153636
H15   H     H_    0.719420 0.576905 0.707573 0.141586
H16   H     H_    0.716856 0.420717 0.291034 0.135406
H17   H     H_    0.842652 0.419783 0.289195 0.152611
N1    N     N_R   0.034008 0.468272 0.379836 -0.239736
N2    N     N_R   0.965275 0.469104 0.379715 -0.239337
N3    N     N_R   0.965853 0.517509 0.618444 -0.239779
N4    N     N_R   0.034556 0.516361 0.618644 -0.240063
N5    N     N_R   0.500440 0.500930 0.147930 -0.199057
N6    N     N_R   0.500440 0.500890 0.852020 -0.182859
O1    O     O_R   0.500000 0.319640 0.618810 -0.580955
O2    O     O_R   0.500010 0.319680 0.381230 -0.582002
O3    O     O_R   0.400140 0.499970 0.618830 -0.581353
O4    O     O_R   0.400150 0.500010 0.381250 -0.582823
O5    O     O_R   0.499990 0.680320 0.618770 -0.572636
O6    O     O_R   0.500000 0.680360 0.381190 -0.582466
O7    O     O_R   0.599850 0.499990 0.618750 -0.583807
O8    O     O_R   0.599860 0.500030 0.381170 -0.592453
O9    O     O_3   0.373264 0.122695 0.635141 -0.555802
C33   C     C_3   0.317872 0.143404 0.727629 -0.302989
H18   H     H_    0.331214 0.215598 0.806403 0.138471
H19   H     H_    0.301801 0.056544 0.780675 0.162295
H20   H     H_    0.273047 0.177495 0.666291 0.198615
C34   C     C_3   0.643191 0.713311 0.143412 -0.824148
H21   H     H_    0.616267 0.794201 0.097179 0.220327
H22   H     H_    0.634793 0.712831 0.258330 0.247965
H23   H     H_    0.699480 0.722587 0.123836 0.240357
C35   C     C_3   0.567373 0.123972 0.255093 -0.833325
H24   H     H_    0.525760 0.168595 0.193150 0.245173
H25   H     H_    0.606606 0.193697 0.287281 0.229782
H26   H     H_    0.593454 0.056453 0.185209 0.213325

loop_
_geom_bond_atom_site_label_1
_geom_bond_atom_site_label_2
_ccdc_geom_bond_type
Cu2   N5    S    
Cu1   O1    S    
C3    N2    A    
C9    H17   S    
C20   N5    A    
C2    C12   S    
C25   H9    S    
C22   N6    A    
C26   H10   S    
C7    C8    A    
C11   C19   S    
C4    N1    A    
C28   C29   A    
C18   H3    S    
Cu1   O5    S    
C1    O2    A    
C5    C6    A    
C3    N3    A    
C22   H7    S    
C16   C17   A    
C15   C16   A    
C7    C27   S    
C19   O9    S    
C2    C32   A    
C18   C19   S    
C23   O5    A    
C20   C24   A    
C28   H1    S    
C24   N6    A    
C31   H12   S    
C9    C10   A    
C23   O6    A    
O9    C33   S    
C13   C14   A    
C26   C34   S    
Cu2   O8    S    
Cu1   Cu2   S    
C5    H14   S    
C33   H18   S    
C24   C25   S    
C34   H22   S    
C8    C9    A    
C25   C26   S    
Cu2   O4    S    
C29   H11   S    
C33   H19   S    
C35   H24   S    
C29   C30   A    
C27   O8    A    
C34   H23   S    
C31   C32   A    
C17   C18   S    
C35   H25   S    
C19   H5    S    
Cu1   O3    S    
C4    N4    A    
Cu2   O2    S    
C32   H13   S    
C1    C13   S    
C8    H16   S    
C15   H2    S    
N1    N2    A    
N3    N4    A    
C11   C17   A    
Cu1   N6    S    
C25   H8    S    
C21   N5    A    
C6    C7    A    
C16   C23   S    
C33   H20   S    
C14   C35   S    
C18   H4    S    
C34   H21   S    
C3    C10   S    
C1    O1    A    
C12   O4    A    
C11   C13   A    
C30   C31   A    
C21   H6    S    
C20   C26   S    
Cu1   O7    S    
Cu2   O6    S    
C6    H15   S    
C35   H26   S    
C27   O7    A    
C12   O3    A    
C5    C10   A    
C14   C15   A    
C2    C28   A    
C21   C22   A    
C4    C30   S    
