data_mof_unit_50522.cif
_audit_creation_date              2012-12-10T19:09:26-0500
_audit_creation_method            fapswitch 2.2
_symmetry_space_group_name_H-M    P1
_symmetry_Int_Tables_number       1
_space_group_crystal_system       triclinic
_cell_length_a                    16.278302
_cell_length_b                    13.960994
_cell_length_c                    10.127538
_cell_angle_alpha                 89.183708
_cell_angle_beta                  90.000072
_cell_angle_gamma                 89.999988
_cell_volume                      2301.36363306

loop_
_atom_site_label
_atom_site_type_symbol
_atom_type_description
_atom_site_fract_x
_atom_site_fract_y
_atom_site_fract_z
_atom_type_partial_charge
Br1   Br    Br    0.823264 0.453111 0.164637 -0.516226
Br2   Br    Br    0.875727 0.352886 0.900967 -0.509973
Br3   Br    Br    0.823265 0.546895 0.835367 -0.516226
Br4   Br    Br    0.875730 0.647118 0.099034 -0.509967
Br5   Br    Br    0.323264 0.953106 0.164634 -0.516224
Br6   Br    Br    0.375731 0.852882 0.900964 -0.509975
Br7   Br    Br    0.323263 0.046887 0.835362 -0.516223
Br8   Br    Br    0.375727 0.147114 0.099033 -0.509974
C1    C     C_R   0.121971 0.381850 0.499946 0.773670
C2    C     C_R   0.878796 0.620623 0.499298 0.810932
C3    C     C_R   0.378796 0.879377 0.500702 0.810934
C4    C     C_R   0.378796 0.120624 0.499299 0.810930
C5    C     C_3   0.801764 0.259485 0.638136 -0.336564
C6    C     C_3   0.823959 0.233715 0.396116 -0.400389
C7    C     C_3   0.801763 0.740513 0.361862 -0.336564
C8    C     C_3   0.823959 0.766284 0.603881 -0.400388
C9    C     C_3   0.301764 0.759486 0.638138 -0.336559
C10   C     C_3   0.323960 0.733715 0.396119 -0.400394
C11   C     C_3   0.301765 0.240516 0.361864 -0.336563
C12   C     C_R   0.121971 0.618150 0.500054 0.773670
C13   C     C_3   0.323959 0.266284 0.603884 -0.400388
C14   C     C_3   0.236544 0.681223 0.635969 -0.420986
C15   C     C_3   0.255024 0.658865 0.395921 -0.406712
C16   C     C_3   0.236545 0.318779 0.364033 -0.420987
C17   C     C_3   0.255023 0.341133 0.604083 -0.406710
C18   C     C_3   0.736544 0.181222 0.635968 -0.420988
C19   C     C_3   0.755023 0.158866 0.395918 -0.406710
C20   C     C_3   0.736542 0.818775 0.364030 -0.420984
C21   C     C_3   0.755023 0.841134 0.604078 -0.406709
C22   C     C_3   0.727439 0.361502 0.473438 -0.402012
C23   C     C_R   0.621971 0.881849 0.499946 0.773670
C24   C     C_3   0.727438 0.638497 0.526562 -0.402015
C25   C     C_3   0.227439 0.861502 0.473438 -0.402018
C26   C     C_3   0.227439 0.138498 0.526560 -0.402014
C27   C     C_3   0.809695 0.310190 0.501947 0.149512
C28   C     C_3   0.809695 0.689809 0.498052 0.149515
C29   C     C_3   0.309695 0.810190 0.501948 0.149514
C30   C     C_3   0.309695 0.189810 0.498053 0.149510
C31   C     C_3   0.191018 0.685100 0.501526 0.204698
C32   C     C_3   0.191018 0.314900 0.498475 0.204696
C33   C     C_3   0.691018 0.185100 0.501525 0.204696
C34   C     C_R   0.621971 0.118150 0.500054 0.773671
C35   C     C_3   0.691017 0.814899 0.498474 0.204697
C36   C     C_3   0.157417 0.787622 0.476133 -0.412388
C37   C     C_3   0.157418 0.212378 0.523866 -0.412390
C38   C     C_3   0.657417 0.287622 0.476133 -0.412388
C39   C     C_3   0.657417 0.712377 0.523868 -0.412385
C40   C     C_3   0.034131 0.407872 0.082990 0.161714
C41   C     C_3   0.050927 0.420557 0.921738 0.275713
C42   C     C_3   0.034132 0.592127 0.917009 0.161710
C43   C     C_3   0.050928 0.579441 0.078261 0.275714
C44   C     C_3   0.534132 0.907873 0.082991 0.161706
C45   C     C_3   0.914428 0.514675 0.076162 0.514645
C46   C     C_3   0.550929 0.920559 0.921739 0.275720
C47   C     C_3   0.534130 0.092128 0.917009 0.161714
C48   C     C_3   0.550927 0.079442 0.078262 0.275715
C49   C     C_3   0.014818 0.258834 0.204741 0.168902
C50   C     C_3   0.971899 0.160122 0.190660 -0.381011
C51   C     C_3   0.003464 0.086023 0.291485 -1.030949
C52   C     C_3   0.061779 0.248372 0.883705 0.154595
C53   C     C_3   0.149056 0.230932 0.934749 -0.435730
C54   C     C_3   0.156997 0.127610 0.984038 -0.862537
C55   C     C_3   0.014818 0.741167 0.795262 0.168896
C56   C     C_3   0.914428 0.485328 0.923839 0.514646
C57   C     C_3   0.971896 0.839877 0.809343 -0.380997
C58   C     C_3   0.003462 0.913978 0.708523 -1.030956
C59   C     C_3   0.061784 0.751627 0.116294 0.154588
C60   C     C_3   0.149060 0.769065 0.065250 -0.435742
C61   C     C_3   0.157003 0.872388 0.015966 -0.862479
C62   C     C_3   0.514817 0.758831 0.204733 0.168897
C63   C     C_3   0.471892 0.660123 0.190652 -0.380970
C64   C     C_3   0.503466 0.586018 0.291460 -1.030962
C65   C     C_3   0.561785 0.748374 0.883705 0.154578
C66   C     C_3   0.649060 0.730934 0.934759 -0.435739
C67   C     C_3   0.414428 0.014672 0.076161 0.514641
C68   C     C_3   0.657004 0.627604 0.984015 -0.862416
C69   C     C_3   0.514817 0.241167 0.795261 0.168898
C70   C     C_3   0.471897 0.339878 0.809342 -0.381001
C71   C     C_3   0.503463 0.413979 0.708521 -1.030958
C72   C     C_3   0.561780 0.251628 0.116295 0.154589
C73   C     C_3   0.649056 0.269068 0.065251 -0.435731
C74   C     C_3   0.656998 0.372391 0.015967 -0.862525
C75   C     C_3   0.414428 0.985325 0.923838 0.514639
C76   C     C_R   0.878796 0.379376 0.500701 0.810929
H1    H     H_    0.779486 0.313518 0.708334 0.241875
H2    H     H_    0.882912 0.197789 0.418100 0.164946
H3    H     H_    0.581183 0.252343 0.811063 0.109429
H4    H     H_    0.404784 0.333108 0.801862 0.237696
H5    H     H_    0.480350 0.371884 0.907027 0.207629
H6    H     H_    0.570040 0.427334 0.723199 0.272033
H7    H     H_    0.470132 0.482650 0.721266 0.271317
H8    H     H_    0.493988 0.390126 0.605866 0.257693
H9    H     H_    0.551622 0.301023 0.199285 0.127275
H10   H     H_    0.513791 0.273803 0.049250 0.206284
H11   H     H_    0.693664 0.258592 0.146181 0.246490
H12   H     H_    0.665369 0.219349 0.985322 0.203954
H13   H     H_    0.861587 0.771285 0.329006 0.194674
H14   H     H_    0.717199 0.383451 0.969351 0.341523
H15   H     H_    0.649209 0.422697 0.099013 0.280727
H16   H     H_    0.611412 0.390129 0.939751 0.246203
H17   H     H_    0.882912 0.802210 0.581898 0.164943
H18   H     H_    0.361588 0.728715 0.670994 0.194673
H19   H     H_    0.382913 0.697789 0.418102 0.164939
H20   H     H_    0.361590 0.271287 0.329010 0.194670
H21   H     H_    0.382912 0.302210 0.581903 0.164946
H22   H     H_    0.265795 0.609829 0.651570 0.164946
H23   H     H_    0.281129 0.586555 0.417468 0.150893
H24   H     H_    0.265797 0.390173 0.348435 0.164947
H25   H     H_    0.826350 0.268760 0.297263 0.242313
H26   H     H_    0.281128 0.413444 0.582538 0.150893
H27   H     H_    0.765796 0.109828 0.651567 0.164947
H28   H     H_    0.781128 0.086555 0.417463 0.150893
H29   H     H_    0.765793 0.890170 0.348428 0.164948
H30   H     H_    0.781128 0.913444 0.582530 0.150892
H31   H     H_    0.194222 0.692094 0.720095 0.173920
H32   H     H_    0.226952 0.654732 0.296730 0.187236
H33   H     H_    0.194224 0.307909 0.279905 0.173923
H34   H     H_    0.226951 0.345265 0.703273 0.187236
H35   H     H_    0.694223 0.192092 0.720095 0.173922
H36   H     H_    0.779485 0.686480 0.291665 0.241868
H37   H     H_    0.726951 0.154734 0.296728 0.187237
H38   H     H_    0.694220 0.807902 0.279905 0.173916
H39   H     H_    0.726952 0.845268 0.703269 0.187237
H40   H     H_    0.715796 0.417102 0.548848 0.166023
H41   H     H_    0.728330 0.398354 0.376063 0.218915
H42   H     H_    0.715795 0.582898 0.451151 0.166027
H43   H     H_    0.728330 0.601645 0.623936 0.218905
H44   H     H_    0.215796 0.917102 0.548848 0.166028
H45   H     H_    0.228330 0.898354 0.376063 0.218912
H46   H     H_    0.215796 0.082899 0.451148 0.166026
H47   H     H_    0.826349 0.731240 0.702734 0.242315
H48   H     H_    0.228330 0.101645 0.623934 0.218917
H49   H     H_    0.113443 0.806022 0.555263 0.160157
H50   H     H_    0.123897 0.790976 0.381373 0.180685
H51   H     H_    0.113444 0.193979 0.444735 0.160158
H52   H     H_    0.123897 0.209023 0.618625 0.180684
H53   H     H_    0.613443 0.306021 0.555263 0.160157
H54   H     H_    0.623896 0.290976 0.381373 0.180684
H55   H     H_    0.613441 0.693977 0.444740 0.160152
H56   H     H_    0.623898 0.709024 0.618629 0.180685
H57   H     H_    0.095621 0.397702 0.129088 0.051582
H58   H     H_    0.279485 0.813519 0.708335 0.241873
H59   H     H_    0.116674 0.442265 0.913518 0.020846
H60   H     H_    0.095622 0.602298 0.870910 0.051584
H61   H     H_    0.116675 0.557732 0.086481 0.020846
H62   H     H_    0.595622 0.897702 0.129091 0.051585
H63   H     H_    0.616676 0.942269 0.913521 0.020847
H64   H     H_    0.595621 0.102299 0.870911 0.051582
H65   H     H_    0.616674 0.057735 0.086482 0.020846
H66   H     H_    0.004982 0.282146 0.307178 0.178231
H67   H     H_    0.081185 0.247659 0.188939 0.109425
H68   H     H_    0.904786 0.166891 0.198137 0.237698
H69   H     H_    0.326349 0.768761 0.297267 0.242312
H70   H     H_    0.980356 0.128115 0.092976 0.207634
H71   H     H_    0.070043 0.072669 0.276812 0.272030
H72   H     H_    0.970134 0.017351 0.278738 0.271317
H73   H     H_    0.993986 0.109877 0.394139 0.257692
H74   H     H_    0.051622 0.198977 0.800715 0.127273
H75   H     H_    0.013791 0.226197 0.950751 0.206286
H76   H     H_    0.193663 0.241405 0.853817 0.246490
H77   H     H_    0.165370 0.280653 0.014676 0.203956
H78   H     H_    0.217203 0.116547 0.030633 0.341532
H79   H     H_    0.149192 0.077301 0.901001 0.280720
H80   H     H_    0.279487 0.186484 0.291665 0.241879
H81   H     H_    0.111422 0.109881 0.060274 0.246207
H82   H     H_    0.004985 0.717855 0.692824 0.178229
H83   H     H_    0.081184 0.752345 0.811067 0.109432
H84   H     H_    0.904784 0.833106 0.801860 0.237697
H85   H     H_    0.980347 0.871882 0.907028 0.207625
H86   H     H_    0.070041 0.927332 0.723199 0.272034
H87   H     H_    0.970132 0.982650 0.721270 0.271317
H88   H     H_    0.993986 0.890126 0.605868 0.257694
H89   H     H_    0.051627 0.801022 0.199283 0.127277
H90   H     H_    0.013796 0.773802 0.049248 0.206281
H91   H     H_    0.326349 0.231238 0.702737 0.242313
H92   H     H_    0.193669 0.758588 0.146178 0.246489
H93   H     H_    0.165372 0.719345 0.985319 0.203951
H94   H     H_    0.217200 0.883441 0.969328 0.341513
H95   H     H_    0.149229 0.922693 0.099019 0.280742
H96   H     H_    0.111406 0.890133 0.939767 0.246188
H97   H     H_    0.504986 0.782142 0.307172 0.178220
H98   H     H_    0.581182 0.747649 0.188925 0.109439
H99   H     H_    0.404780 0.666894 0.198147 0.237687
H100  H     H_    0.480333 0.628122 0.092961 0.207613
H101  H     H_    0.570045 0.572673 0.276778 0.272041
H102  H     H_    0.861589 0.228715 0.670992 0.194672
H103  H     H_    0.470141 0.517343 0.278705 0.271314
H104  H     H_    0.493988 0.609863 0.394118 0.257697
H105  H     H_    0.551630 0.698979 0.800714 0.127282
H106  H     H_    0.513795 0.726198 0.950746 0.206275
H107  H     H_    0.693674 0.741427 0.853842 0.246486
H108  H     H_    0.665364 0.780643 0.014705 0.203939
H109  H     H_    0.717187 0.616555 0.030710 0.341489
H110  H     H_    0.649268 0.577315 0.900931 0.280759
H111  H     H_    0.611376 0.609829 0.060160 0.246168
H112  H     H_    0.504982 0.217855 0.692823 0.178227
N1    N     N_3   0.998760 0.500000 0.138610 -0.164188
N2    N     N_3   0.998760 0.500000 0.861390 -0.164186
N3    N     N_3   0.498760 0.000000 0.138610 -0.164185
N4    N     N_3   0.498760 0.000000 0.861390 -0.164186
O1    O     O_R   0.092530 0.407440 0.616040 -0.558162
O2    O     O_R   0.907330 0.407420 0.383960 -0.567261
O3    O     O_R   0.907330 0.592580 0.383960 -0.544351
O4    O     O_R   0.907330 0.592580 0.616040 -0.567260
O5    O     O_R   0.407330 0.907420 0.616040 -0.544351
O6    O     O_R   0.407330 0.907420 0.383960 -0.567258
O7    O     O_R   0.407330 0.092580 0.383960 -0.544350
O8    O     O_R   0.407330 0.092580 0.616040 -0.567261
O9    O     O_3   0.980933 0.328702 0.116016 -0.571391
O10   O     O_3   0.045816 0.341142 0.835032 -0.553453
O11   O     O_3   0.980934 0.671298 0.883984 -0.571388
O12   O     O_R   0.092530 0.407440 0.383960 -0.666470
O13   O     O_3   0.045820 0.658857 0.164968 -0.553451
O14   O     O_3   0.480933 0.828702 0.116014 -0.571389
O15   O     O_3   0.545822 0.841144 0.835032 -0.553453
O16   O     O_3   0.480932 0.171298 0.883984 -0.571391
O17   O     O_3   0.545817 0.158858 0.164968 -0.553453
O18   O     O_R   0.092530 0.592560 0.383960 -0.558158
O19   O     O_R   0.092530 0.592560 0.616040 -0.666470
O20   O     O_R   0.592530 0.907440 0.616040 -0.558158
O21   O     O_R   0.592530 0.907440 0.383960 -0.666469
O22   O     O_R   0.592530 0.092560 0.383960 -0.558162
O23   O     O_R   0.592530 0.092560 0.616040 -0.666469
O24   O     O_R   0.907330 0.407420 0.616040 -0.544350
Zn1   Zn    Zn3+2 0.999890 0.500000 0.654960 1.020858
Zn2   Zn    Zn3+2 0.999890 0.500000 0.345040 1.020858
Zn3   Zn    Zn3+2 0.499890 0.000000 0.654960 1.020859
Zn4   Zn    Zn3+2 0.499890 1.000000 0.345040 1.020859

loop_
_geom_bond_atom_site_label_1
_geom_bond_atom_site_label_2
_ccdc_geom_bond_type
C6    H25   S    
Br7   C75   S    
C47   C48   S    
C55   C57   S    
Br5   C67   S    
C56   N2    S    
Br4   C45   S    
C65   C66   S    
C72   O17   S    
C52   H75   S    
C21   H30   S    
C17   H34   S    
C73   C74   S    
C19   H37   S    
O2    Zn2   S    
C13   H21   S    
C69   C70   S    
O1    Zn1   S    
C57   H84   S    
C16   H33   S    
C23   C35   S    
C22   C27   S    
O4    Zn1   S    
C53   H77   S    
C4    O8    A    
C24   H43   S    
C58   H88   S    
C11   C30   S    
C10   C29   S    
C52   H74   S    
C11   H80   S    
C5    C27   S    
C20   H29   S    
O8    Zn3   S    
C73   H11   S    
C45   C56   S    
C20   H38   S    
C43   H61   S    
C1    O12   A    
C25   H45   S    
C41   H59   S    
C60   H93   S    
C46   N4    S    
C7    H36   S    
C33   C34   S    
C24   H42   S    
C3    C29   S    
C8    H47   S    
Br1   C45   S    
C64   H104  S    
C71   H6    S    
C50   H70   S    
C15   H32   S    
C23   O21   A    
C74   H15   S    
C62   H98   S    
C55   H82   S    
C13   C30   S    
C47   N4    S    
C50   H68   S    
C60   C61   S    
C13   H91   S    
C39   H56   S    
C33   C38   S    
C62   C63   S    
Br6   C75   S    
C3    O6    A    
C6    C19   S    
C43   N1    S    
C2    O3    A    
C71   H7    S    
C65   H106  S    
N2    Zn1   S    
C38   H54   S    
C48   N3    S    
O12   Zn2   S    
N1    Zn2   S    
C43   O13   S    
C55   H83   S    
C21   H39   S    
C22   H41   S    
C26   H48   S    
C61   H96   S    
C21   C35   S    
C36   H50   S    
C74   H14   S    
C32   C37   S    
C74   H16   S    
C7    H13   S    
C48   O17   S    
Br2   C56   S    
C49   C50   S    
C41   N2    S    
C70   H5    S    
C60   H92   S    
C46   O15   S    
C58   H86   S    
C49   O9    S    
C37   H51   S    
C59   C60   S    
C62   O14   S    
C4    O7    A    
C63   H99   S    
C58   H87   S    
O7    Zn4   S    
C76   O2    A    
C18   H35   S    
C6    H2    S    
C76   O24   A    
C53   H76   S    
C47   O16   S    
C26   C37   S    
C12   C31   S    
C51   H71   S    
C70   C71   S    
C1    O1    A    
O24   Zn1   S    
C8    C21   S    
C14   H22   S    
C18   C33   S    
Br8   C67   S    
C25   C29   S    
C10   C15   S    
O20   Zn3   S    
C57   H85   S    
C52   C53   S    
C42   H60   S    
N4    Zn3   S    
C41   O10   S    
C9    H18   S    
C64   H103  S    
C1    C32   S    
C68   H111  S    
C61   H94   S    
C11   H20   S    
C19   C33   S    
C62   H97   S    
C54   H79   S    
O21   Zn4   S    
O22   Zn4   S    
C27   C76   S    
C15   H23   S    
C49   H66   S    
C44   O14   S    
C42   C43   S    
C44   C46   S    
C42   N2    S    
C44   N3    S    
C9    C29   S    
O19   Zn1   S    
C69   H3    S    
C71   H8    S    
C10   H69   S    
C66   C68   S    
C17   H26   S    
C38   H53   S    
C66   H108  S    
C40   C41   S    
C22   H40   S    
C42   O11   S    
O6    Zn4   S    
C24   C39   S    
C5    C18   S    
C59   O13   S    
C39   H55   S    
C72   H10   S    
C34   O23   A    
C4    C30   S    
C24   C28   S    
C7    C28   S    
C6    C27   S    
C23   O20   A    
N3    Zn4   S    
C70   H4    S    
C36   H49   S    
C73   H12   S    
C13   C17   S    
C14   H31   S    
C37   H52   S    
C44   H62   S    
C5    H102  S    
C26   C30   S    
C25   C36   S    
C12   O18   A    
C63   H100  S    
C69   H112  S    
C65   O15   S    
C55   O11   S    
C72   C73   S    
C19   H28   S    
C51   H72   S    
C31   C36   S    
C67   N3    S    
C3    O5    A    
C20   C35   S    
C65   H105  S    
C9    C14   S    
C22   C38   S    
C40   N1    S    
C45   N1    S    
C11   C16   S    
C72   H9    S    
C63   C64   S    
C17   C32   S    
C34   O22   A    
C8    C28   S    
C51   H73   S    
C67   C75   S    
C47   H64   S    
C54   H78   S    
C2    O4    A    
C59   H89   S    
C15   C31   S    
C14   C31   S    
C49   H67   S    
C16   C32   S    
C52   O10   S    
C40   H57   S    
O5    Zn3   S    
O23   Zn3   S    
C10   H19   S    
C25   H44   S    
Br3   C56   S    
C53   C54   S    
C50   C51   S    
C64   H101  S    
C68   H109  S    
C66   H107  S    
C7    C20   S    
C8    H17   S    
C68   H110  S    
C54   H81   S    
C40   O9    S    
C26   H46   S    
C57   C58   S    
C5    H1    S    
C48   H65   S    
C9    H58   S    
C2    C28   S    
C59   H90   S    
C75   N4    S    
C12   O19   A    
C35   C39   S    
C18   H27   S    
O18   Zn2   S    
O3    Zn2   S    
C61   H95   S    
C16   H24   S    
C69   O16   S    
C46   H63   S    
