data_mof_unit_14089.cif
_audit_creation_date              2012-12-10T16:57:49-0500
_audit_creation_method            fapswitch 2.2
_symmetry_space_group_name_H-M    P1
_symmetry_Int_Tables_number       1
_space_group_crystal_system       triclinic
_cell_length_a                    7.745966
_cell_length_b                    8.581166
_cell_length_c                    19.032765
_cell_angle_alpha                 90.851338
_cell_angle_beta                  85.888303
_cell_angle_gamma                 93.621766
_cell_volume                      1259.25276423

loop_
_atom_site_label
_atom_site_type_symbol
_atom_type_description
_atom_site_fract_x
_atom_site_fract_y
_atom_site_fract_z
_atom_type_partial_charge
C1    C     C_R   0.545863 0.794838 0.498181 0.954815
C2    C     C_R   0.663313 0.592344 0.179777 -0.192195
C3    C     C_R   0.524590 0.612728 0.853017 -0.161766
C4    C     C_R   0.509185 0.610498 0.147211 -0.161806
C5    C     C_R   0.679388 0.597502 0.810749 0.581591
C6    C     C_R   0.348711 0.588764 0.186649 0.580565
C7    C     C_R   0.673342 0.556327 0.740045 0.542504
C8    C     C_R   0.343659 0.548545 0.257294 0.546133
C9    C     C_R   0.512388 0.531111 0.710471 -0.286637
C10   C     C_R   0.498838 0.530319 0.289523 -0.285905
C11   C     C_R   0.518069 0.637325 0.071209 0.349940
C12   C     C_R   0.454138 0.205162 0.501821 0.958749
C13   C     C_R   0.526842 0.639408 0.929076 0.352717
C14   C     C_2   0.570086 0.958220 0.497139 -0.354218
C15   C     C_2   0.429916 0.041770 0.502855 -0.355190
C16   C     C_R   0.503076 0.504029 0.634834 0.940382
C17   C     C_R   0.498322 0.503391 0.365145 0.940375
C18   C     C_R   0.358594 0.547161 0.752685 -0.222001
C19   C     C_R   0.658182 0.552106 0.250055 -0.224620
C20   C     C_R   0.364615 0.587964 0.823159 -0.191170
F1    F     F_    0.836992 0.622855 0.837302 -0.626279
F2    F     F_    0.196130 0.603094 0.157097 -0.625587
F3    F     F_    0.825400 0.544565 0.700681 -0.637894
F4    F     F_    0.186776 0.527611 0.293729 -0.634758
H1    H     H_    0.232945 0.529447 0.731219 0.249843
H2    H     H_    0.779896 0.540590 0.273625 0.250550
H3    H     H_    0.243183 0.597294 0.854416 0.241091
H4    H     H_    0.788733 0.607993 0.150894 0.243218
H5    H     H_    0.702473 0.009237 0.491690 0.185494
H6    H     H_    0.297529 0.990749 0.508304 0.186111
H7    H     H_    0.013870 0.382387 0.447424 0.215450
H8    H     H_    0.986145 0.617680 0.552546 0.225211
N1    N     N_R   0.673186 0.621454 0.962195 -0.067406
N2    N     N_R   0.373176 0.661787 0.038140 -0.065406
N3    N     N_R   0.668943 0.620652 0.031951 -0.150612
N4    N     N_R   0.377441 0.662736 0.968336 -0.151454
N5    N     N_2   0.950330 0.457950 0.481240 -0.153441
N6    N     N_2   0.049670 0.542050 0.518760 -0.151163
O1    O     O_R   0.389250 0.738570 0.504600 -0.616410
O2    O     O_R   0.610750 0.261430 0.495400 -0.616420
O3    O     O_R   0.678400 0.711620 0.492580 -0.629569
O4    O     O_R   0.321600 0.288380 0.507420 -0.629930
O5    O     O_R   0.355380 0.513500 0.607880 -0.614765
O6    O     O_R   0.644620 0.486500 0.392120 -0.618010
O7    O     O_R   0.644530 0.486550 0.595850 -0.563870
O8    O     O_R   0.355470 0.513450 0.404150 -0.565726
Zn1   Zn    Zn3+2 0.306930 0.517990 0.508030 1.005653
Zn2   Zn    Zn3+2 0.693070 0.482010 0.491970 1.003812

loop_
_geom_bond_atom_site_label_1
_geom_bond_atom_site_label_2
_ccdc_geom_bond_type
C16   O7    A    
C12   O2    A    
C2    C4    A    
C13   N1    A    
N5    N6    D    
C20   H3    S    
H8    N6    S    
C5    C7    A    
N2    N4    A    
C3    C13   S    
C12   C15   S    
C10   C19   A    
C3    C5    A    
C11   N3    A    
C17   O6    A    
C3    C20   A    
N5    Zn2   S    
C16   O5    A    
N6    Zn1   S    
C18   H1    S    
C15   H6    S    
C7    F3    S    
C6    C8    A    
C1    O3    A    
N1    N3    A    
C9    C16   S    
C18   C20   A    
O4    Zn1   S    
C8    C10   A    
C1    O1    A    
C10   C17   S    
C12   O4    A    
C6    F2    S    
H7    N5    S    
C9    C18   A    
C5    F1    S    
C17   O8    A    
C13   N4    A    
C4    C6    A    
O7    Zn2   S    
C7    C9    A    
C19   H2    S    
O2    Zn2   S    
C14   C15   D    
C2    H4    S    
C1    C14   S    
C14   H5    S    
C8    F4    S    
C2    C19   A    
O8    Zn1   S    
O1    Zn1   S    
O5    Zn1   S    
O3    Zn2   S    
C11   N2    A    
O6    Zn2   S    
C4    C11   S    
