data_mof_unit_54585.cif
_audit_creation_date              2012-12-10T19:31:20-0500
_audit_creation_method            fapswitch 2.2
_symmetry_space_group_name_H-M    P1
_symmetry_Int_Tables_number       1
_space_group_crystal_system       triclinic
_cell_length_a                    19.186311
_cell_length_b                    15.752146
_cell_length_c                    14.953643
_cell_angle_alpha                 90.311058
_cell_angle_beta                  91.135285
_cell_angle_gamma                 89.808645
_cell_volume                      4518.39595638

loop_
_atom_site_label
_atom_site_type_symbol
_atom_type_description
_atom_site_fract_x
_atom_site_fract_y
_atom_site_fract_z
_atom_type_partial_charge
C1    C     C_R   0.500160 0.337546 0.499733 0.867623
C2    C     C_R   0.499649 0.662389 0.500252 0.884438
C3    C     C_3   0.543249 0.972025 0.558109 0.553236
C4    C     C_3   0.448041 0.027617 0.441873 0.532471
C5    C     C_3   0.560056 0.026388 0.475660 -0.393015
C6    C     C_3   0.431155 0.972991 0.524527 -0.409397
C7    C     C_1   0.499212 0.248789 0.499045 -0.211319
C8    C     C_1   0.497506 0.751011 0.500859 -0.180396
C9    C     C_3   0.481211 0.028928 0.581939 0.106829
C10   C     C_3   0.510145 0.970679 0.418249 0.115183
C11   C     C_3   0.496963 0.082945 0.499312 0.026197
C12   C     C_3   0.494437 0.916694 0.500739 0.025103
C13   C     C_1   0.498116 0.173658 0.498736 0.018543
C14   C     C_1   0.495639 0.826072 0.501208 0.026761
C15   C     C_3   0.505886 0.420588 0.969749 0.215678
C16   C     C_3   0.494155 0.579230 0.030274 0.214971
C17   C     C_3   0.559397 0.466351 0.031292 0.203090
C18   C     C_3   0.440646 0.533463 0.968745 0.208895
C19   C     C_3   0.445619 0.453382 0.028662 -0.249431
C20   C     C_3   0.554428 0.546437 0.971367 -0.251740
C21   C     C_3   0.499825 0.499748 0.089880 0.007994
C22   C     C_3   0.500215 0.500077 0.910140 0.009292
C23   C     C_R   0.365443 0.501465 0.499030 0.908499
C24   C     C_R   0.634648 0.501947 0.501015 0.902729
C25   C     C_1   0.499917 0.499873 0.189916 0.092828
C26   C     C_1   0.500102 0.500044 0.810089 0.093368
C27   C     C_R   0.254399 0.441237 0.546656 0.449326
C28   C     C_R   0.746988 0.448400 0.447191 0.451360
C29   C     C_R   0.182339 0.440516 0.544370 -0.300407
C30   C     C_R   0.819047 0.447234 0.451254 -0.305698
C31   C     C_R   0.145102 0.494830 0.487505 -0.038038
C32   C     C_R   0.855281 0.494832 0.515728 -0.035799
C33   C     C_R   0.179820 0.551967 0.431130 0.214112
C34   C     C_R   0.819541 0.546571 0.577324 0.212099
C35   C     C_R   0.253051 0.558425 0.438700 0.120836
C36   C     C_R   0.746455 0.554453 0.568321 0.111436
C37   C     C_R   0.289842 0.501380 0.495589 -0.211293
C38   C     C_R   0.710435 0.502785 0.504681 -0.211111
C39   C     C_R   0.930728 0.494295 0.511702 0.320647
C40   C     C_R   0.069813 0.494528 0.493771 0.320798
H1    H     H_    0.599192 0.584709 0.948768 0.155333
H2    H     H_    0.400857 0.415107 0.051254 0.156320
H3    H     H_    0.155228 0.397501 0.587993 0.178486
H4    H     H_    0.846957 0.408981 0.403140 0.178643
H5    H     H_    0.612055 0.048596 0.455675 0.169771
H6    H     H_    0.379370 0.949399 0.544725 0.163951
N1    N     N_R   0.034780 0.568600 0.503939 -0.164537
N2    N     N_R   0.965761 0.420127 0.501760 -0.183176
N3    N     N_R   0.966113 0.568523 0.512112 -0.164445
N4    N     N_R   0.034509 0.420198 0.493609 -0.182177
N5    N     N_1   0.500020 0.500000 0.268010 -0.089401
N6    N     N_1   0.499980 0.500000 0.731990 -0.089090
O1    O     O_R   0.500000 0.376780 0.574460 -0.611735
O2    O     O_R   0.500000 0.623220 0.425540 -0.614726
O3    O     O_R   0.500010 0.376780 0.425520 -0.608076
O4    O     O_R   0.499990 0.623220 0.574480 -0.608538
O5    O     O_R   0.398130 0.499990 0.574490 -0.574177
O6    O     O_R   0.601870 0.500010 0.425510 -0.571514
O7    O     O_R   0.398140 0.499990 0.425550 -0.623433
O8    O     O_R   0.601860 0.500010 0.574450 -0.622520
Zn1   Zn    Zn3+2 0.499990 0.500000 0.599450 0.984121
Zn2   Zn    Zn3+2 0.500010 0.500000 0.400550 0.982561
O9    O     O_3   0.289626 0.386730 0.604325 -0.627726
C41   C     C_3   0.313889 0.314976 0.556521 0.111851
H7    H     H_    0.362507 0.292754 0.590631 0.175041
H8    H     H_    0.327963 0.329201 0.486065 0.109197
C42   C     C_3   0.260391 0.243107 0.558472 -0.393100
H9    H     H_    0.248393 0.227896 0.628998 0.236551
H10   H     H_    0.211463 0.263418 0.523771 0.222991
C43   C     C_3   0.287826 0.163584 0.512220 -0.911285
H11   H     H_    0.298927 0.177397 0.441190 0.284487
H12   H     H_    0.248112 0.112587 0.514516 0.255459
H13   H     H_    0.336251 0.140810 0.546241 0.273564
O10   O     O_3   0.713000 0.400964 0.381555 -0.627204
C44   C     C_3   0.690686 0.322940 0.417567 0.115805
H14   H     H_    0.645557 0.300967 0.375960 0.182427
H15   H     H_    0.671493 0.329003 0.487304 0.096264
C45   C     C_3   0.748719 0.255958 0.413330 -0.369828
H16   H     H_    0.771780 0.255849 0.345720 0.239951
H17   H     H_    0.790348 0.271396 0.463431 0.217531
C46   C     C_3   0.720808 0.167655 0.432783 -0.973117
H18   H     H_    0.694579 0.167192 0.498335 0.262100
H19   H     H_    0.764471 0.121219 0.434790 0.275059
H20   H     H_    0.683115 0.148220 0.379254 0.266808
C47   C     C_3   0.139929 0.602657 0.360887 -0.878152
H21   H     H_    0.167335 0.599718 0.296215 0.239847
H22   H     H_    0.087094 0.577048 0.346673 0.244252
H23   H     H_    0.135113 0.669781 0.382968 0.244451
C48   C     C_3   0.858191 0.590106 0.654107 -0.878586
H24   H     H_    0.864937 0.658473 0.638998 0.245545
H25   H     H_    0.828827 0.583284 0.716907 0.240100
H26   H     H_    0.910075 0.561353 0.668045 0.243959
C49   C     C_3   0.292130 0.626394 0.388487 -0.856652
H27   H     H_    0.258167 0.679444 0.365990 0.236727
H28   H     H_    0.332676 0.655702 0.432680 0.223727
H29   H     H_    0.317147 0.597959 0.329057 0.253221
C50   C     C_3   0.707111 0.618833 0.624217 -0.828081
H30   H     H_    0.740757 0.671535 0.648436 0.236373
H31   H     H_    0.665043 0.649464 0.583643 0.232420
H32   H     H_    0.684211 0.586998 0.682754 0.249612
O11   O     O_3   0.590988 0.935867 0.620150 -0.637917
C51   C     C_3   0.639514 0.997056 0.651590 0.085498
H33   H     H_    0.643091 0.991760 0.725591 0.168150
H34   H     H_    0.624433 0.064134 0.636856 0.121351
C52   C     C_3   0.711182 0.977931 0.613049 -0.346542
H35   H     H_    0.726611 0.911719 0.629787 0.236468
H36   H     H_    0.708631 0.983716 0.539071 0.220326
C53   C     C_3   0.766437 0.038638 0.650464 -0.960228
H37   H     H_    0.752185 0.105376 0.634815 0.266574
H38   H     H_    0.817428 0.024076 0.619965 0.271030
H39   H     H_    0.771822 0.031411 0.724129 0.266320
O12   O     O_3   0.401138 0.063339 0.378567 -0.639659
C54   C     C_3   0.348540 0.004106 0.356321 0.069825
H40   H     H_    0.312429 0.997597 0.413171 0.145906
H41   H     H_    0.370866 0.940678 0.339823 0.141809
C55   C     C_3   0.307207 0.036083 0.274863 -0.311986
H42   H     H_    0.284418 0.099374 0.290076 0.224839
H43   H     H_    0.342803 0.042920 0.217603 0.229025
C56   C     C_3   0.248616 0.975014 0.248614 -0.968253
H44   H     H_    0.270309 0.911620 0.231543 0.264366
H45   H     H_    0.219672 0.999968 0.189284 0.269639
H46   H     H_    0.211701 0.968405 0.304438 0.265597
C57   C     C_3   0.526828 0.936322 0.325808 -0.867930
H47   H     H_    0.531749 0.989837 0.278426 0.253814
H48   H     H_    0.576715 0.900519 0.329087 0.243749
H49   H     H_    0.484819 0.893172 0.301833 0.230779
C58   C     C_3   0.465701 0.063385 0.674693 -0.881192
H50   H     H_    0.459252 0.009805 0.721638 0.256464
H51   H     H_    0.509220 0.104240 0.698808 0.230028
H52   H     H_    0.417014 0.101537 0.672111 0.240586
C59   C     C_3   0.627287 0.427845 0.066417 -0.880421
H53   H     H_    0.660328 0.409231 0.009435 0.241100
H54   H     H_    0.655504 0.475100 0.108728 0.250623
H55   H     H_    0.615967 0.370920 0.106982 0.248360
C60   C     C_3   0.372715 0.571934 0.933744 -0.892563
H56   H     H_    0.339706 0.590459 0.990790 0.242716
H57   H     H_    0.383978 0.628914 0.893243 0.246809
H58   H     H_    0.344500 0.524686 0.891424 0.250510
C61   C     C_3   0.512663 0.329824 0.935852 -0.908485
H59   H     H_    0.515830 0.285738 0.993428 0.246567
H60   H     H_    0.466565 0.313527 0.893244 0.246051
H61   H     H_    0.560550 0.323452 0.895906 0.243424
C62   C     C_3   0.487332 0.669987 0.064180 -0.908302
H62   H     H_    0.484111 0.714074 0.006608 0.247828
H63   H     H_    0.439459 0.676311 0.104165 0.243050
H64   H     H_    0.533437 0.686328 0.106753 0.244372

loop_
_geom_bond_atom_site_label_1
_geom_bond_atom_site_label_2
_ccdc_geom_bond_type
O6    Zn2   S    
C60   H58   S    
C49   H27   S    
C27   C29   A    
C61   H60   S    
C59   H55   S    
C28   O10   S    
C46   H20   S    
C6    C9    S    
C58   H51   S    
C46   H18   S    
C57   H47   S    
N1    N3    A    
C47   H21   S    
C55   H42   S    
C15   C19   S    
C52   H36   S    
C16   C21   S    
C35   C37   A    
C5    C11   S    
N6    Zn1   S    
C1    C7    S    
C6    C12   S    
C61   H61   S    
C45   H17   S    
C57   H48   S    
C17   C59   S    
C62   H62   S    
O3    Zn2   S    
C50   H30   S    
C17   C20   S    
C53   H37   S    
C51   C52   S    
C62   H63   S    
C18   C19   S    
C32   C39   S    
C1    O1    A    
C33   C47   S    
C3    C12   S    
C50   H31   S    
C31   C40   S    
O1    Zn1   S    
C15   C22   S    
C53   H38   S    
C24   C38   S    
C31   C33   A    
C36   C50   S    
C48   H25   S    
C19   H2    S    
C16   C20   S    
C54   C55   S    
C3    O11   S    
N2    N4    A    
C4    O12   S    
C49   H28   S    
C60   H57   S    
C29   H3    S    
C30   H4    S    
N5    Zn2   S    
O12   C54   S    
C46   H19   S    
O11   C51   S    
C20   H1    S    
C15   C61   S    
C56   H45   S    
C52   C53   S    
O10   C44   S    
C47   H22   S    
C42   H9    S    
C41   C42   S    
C60   H56   S    
C16   C62   S    
C4    C6    S    
C10   C57   S    
C2    O2    A    
C62   H64   S    
C45   H16   S    
C57   H49   S    
O2    Zn2   S    
C3    C5    S    
C23   C37   S    
C40   N1    A    
C5    H5    S    
C17   C21   S    
O8    Zn1   S    
C48   H26   S    
C41   H8    S    
C23   O7    A    
C44   H14   S    
C25   N5    T    
C3    C9    S    
C26   N6    T    
C9    C11   S    
C35   C49   S    
C28   C38   A    
C24   O8    A    
C43   H13   S    
C18   C60   S    
C9    C58   S    
C4    C11   S    
C51   H34   S    
C44   H15   S    
C43   H11   S    
C10   C12   S    
C16   C18   S    
C39   N3    A    
C12   C14   S    
C49   H29   S    
C4    C10   S    
C59   H53   S    
C50   H32   S    
C54   H40   S    
C47   H23   S    
C23   O5    A    
C21   C25   S    
O7    Zn2   S    
C8    C14   T    
C6    H6    S    
C19   C21   S    
C18   C22   S    
C56   H46   S    
C2    C8    S    
C20   C22   S    
C59   H54   S    
C61   H59   S    
C55   C56   S    
O5    Zn1   S    
C52   H35   S    
C53   H39   S    
C42   C43   S    
C41   H7    S    
C28   C30   A    
C1    O3    A    
C58   H52   S    
C5    C10   S    
C29   C31   A    
C2    O4    A    
C30   C32   A    
C11   C13   S    
C45   C46   S    
C27   C37   A    
C40   N4    A    
C36   C38   A    
C33   C35   A    
C55   H43   S    
C34   C36   A    
C51   H33   S    
C44   C45   S    
C34   C48   S    
O9    C41   S    
C7    C13   T    
C24   O6    A    
C56   H44   S    
C22   C26   S    
O4    Zn1   S    
C27   O9    S    
C43   H12   S    
C42   H10   S    
C48   H24   S    
C15   C17   S    
C58   H50   S    
C32   C34   A    
C39   N2    A    
C54   H41   S    
