data_mof_unit_11111.cif
_audit_creation_date              2012-12-11T15:57:56-0500
_audit_creation_method            fapswitch 2.2
_symmetry_space_group_name_H-M    P1
_symmetry_Int_Tables_number       1
_space_group_crystal_system       triclinic
_cell_length_a                    10.777668
_cell_length_b                    10.849842
_cell_length_c                    17.139472
_cell_angle_alpha                 100.017375
_cell_angle_beta                  99.786797
_cell_angle_gamma                 60.958818
_cell_volume                      1716.98142943

loop_
_atom_site_label
_atom_site_type_symbol
_atom_type_description
_atom_site_fract_x
_atom_site_fract_y
_atom_site_fract_z
_atom_type_partial_charge
C1    C     C_R   0.355463 0.773487 0.400891 0.545166
C2    C     C_2   0.299658 0.278778 0.805360 -0.080991
C3    C     C_2   0.320362 0.181533 0.742329 -0.181638
C4    C     C_R   0.370507 0.347220 0.356866 0.540271
C5    C     C_2   0.352778 0.201537 0.667475 -0.157191
C6    C     C_1   0.836856 0.331818 0.706315 -0.069606
C7    C     C_1   0.884064 0.296227 0.772236 -0.050697
C8    C     C_1   0.338960 0.812438 0.708864 -0.070889
C9    C     C_1   0.313209 0.840166 0.776817 -0.074723
C10   C     C_R   0.896078 0.309042 0.087054 0.559534
C11   C     C_R   0.318632 0.299371 0.119922 0.556736
C12   C     C_2   0.837467 0.342666 0.162397 -0.010426
C13   C     C_R   0.293182 0.892993 0.083743 0.552938
C14   C     C_R   0.938383 0.274817 0.853563 0.537174
C15   C     C_R   0.278484 0.252151 0.879051 0.538901
C16   C     C_R   0.778012 0.374907 0.406545 0.537327
C17   C     C_R   0.278255 0.885806 0.856378 0.535503
C18   C     C_R   0.358056 0.770259 0.627039 0.543147
C19   C     C_R   0.365949 0.348822 0.581476 0.546057
C20   C     C_R   0.772879 0.381128 0.629925 0.537679
C21   C     C_1   0.343921 0.337103 0.273666 -0.079909
C22   C     C_1   0.331699 0.326966 0.203026 -0.065546
C23   C     C_2   0.833130 0.241084 0.194657 -0.171198
C24   C     C_2   0.850792 0.320813 0.335964 -0.111362
C25   C     C_R   0.176468 0.461278 0.677984 0.015842
C26   C     C_R   0.052926 0.459140 0.691415 -0.078955
C27   C     C_R   0.944096 0.578881 0.729230 -0.076667
C28   C     C_R   0.951971 0.705063 0.747590 -0.104153
C29   C     C_R   0.071983 0.709946 0.732276 -0.098540
C30   C     C_R   0.186290 0.587449 0.701369 -0.070715
C31   C     C_R   0.814712 0.484660 0.203092 0.025658
C32   C     C_R   0.696471 0.603472 0.172248 -0.084409
C33   C     C_R   0.704605 0.727880 0.170204 -0.095295
C34   C     C_2   0.796389 0.260806 0.274642 -0.165434
C35   C     C_R   0.828062 0.737626 0.201596 -0.091758
C36   C     C_R   0.944608 0.622705 0.234853 -0.086297
C37   C     C_R   0.938495 0.497187 0.235402 -0.076240
C38   C     C_R   0.560759 0.856717 0.337370 0.038750
C39   C     C_R   0.671014 0.725947 0.356599 -0.013829
C40   C     C_R   0.803484 0.712074 0.393180 -0.087799
C41   C     C_R   0.830378 0.827512 0.403202 -0.138138
C42   C     C_R   0.728205 0.952788 0.372308 -0.102276
C43   C     C_R   0.596005 0.964833 0.337508 -0.077609
C44   C     C_2   0.326345 0.849922 0.332118 -0.115644
C45   C     C_2   0.336104 0.841158 0.160777 -0.130747
C46   C     C_2   0.377274 0.915721 0.219868 -0.172002
C47   C     C_2   0.419127 0.872736 0.300033 -0.052898
C48   C     C_2   0.299153 0.330347 0.642633 -0.017972
Cr1   Cr    Cr6+3 0.608020 0.610770 0.522990 1.022800
Cr2   Cr    Cr6+3 0.289390 0.599570 0.488050 1.005321
Cr3   Cr    Cr6+3 0.602610 0.289690 0.489020 1.013017
Cr4   Cr    Cr6+3 0.053780 0.052210 0.965970 1.021063
Cr5   Cr    Cr6+3 0.060060 0.372530 0.992430 1.030767
Cr6   Cr    Cr6+3 0.372600 0.061970 0.991430 1.010540
H1    H     H_    0.849592 0.141862 0.159374 0.146027
H2    H     H_    0.044952 0.362626 0.674691 0.115371
H3    H     H_    0.852456 0.575770 0.744185 0.148704
H4    H     H_    0.865537 0.798726 0.774149 0.122315
H5    H     H_    0.076224 0.808650 0.745083 0.149811
H6    H     H_    0.283156 0.590118 0.695878 0.135016
H7    H     H_    0.604522 0.594013 0.141574 0.106390
H8    H     H_    0.617031 0.815640 0.141970 0.137605
H9    H     H_    0.833816 0.833833 0.199464 0.104679
H10   H     H_    0.041642 0.628986 0.257624 0.120536
H11   H     H_    0.036301 0.404609 0.252119 0.096180
H12   H     H_    0.431440 0.108401 0.635104 0.152761
H13   H     H_    0.653882 0.635063 0.337518 0.153693
H14   H     H_    0.888538 0.610433 0.409118 0.131177
H15   H     H_    0.933576 0.816465 0.429321 0.124578
H16   H     H_    0.753207 0.038134 0.372813 0.142528
H17   H     H_    0.523366 0.054257 0.306041 0.134426
H18   H     H_    0.312076 0.372167 0.805586 0.133970
H19   H     H_    0.714496 0.233338 0.281294 0.153314
H20   H     H_    0.936276 0.343080 0.331579 0.093131
H21   H     H_    0.386882 0.005565 0.207804 0.141247
H22   H     H_    0.321958 0.752978 0.171244 0.098972
H23   H     H_    0.222034 0.877271 0.299365 0.106914
H24   H     H_    0.322565 0.082290 0.747308 0.127504
O1    O     O_R   0.749250 0.499990 0.439200 -0.540442
O2    O     O_R   0.411120 0.181190 0.091480 -0.519197
O3    O     O_R   0.364220 0.944920 0.062310 -0.510120
O4    O     O_R   0.477870 0.725740 0.440280 -0.493165
O5    O     O_R   0.158740 0.906940 0.874970 -0.524028
O6    O     O_R   0.930920 0.176940 0.885610 -0.485471
O7    O     O_R   0.910730 0.394510 0.895320 -0.510151
O8    O     O_R   0.185840 0.361180 0.920280 -0.501596
O9    O     O_R   0.399210 0.173040 0.915160 -0.494515
O10   O     O_R   0.353170 0.937370 0.898860 -0.508751
O11   O     O_3   0.162150 0.162240 0.983280 -0.294145
O12   O     O_R   0.299400 0.468710 0.556310 -0.505661
O13   O     O_R   0.260770 0.742210 0.412610 -0.525800
O14   O     O_R   0.297990 0.466320 0.394220 -0.501852
O15   O     O_R   0.487720 0.253870 0.385870 -0.538596
O16   O     O_R   0.721940 0.304340 0.422320 -0.509841
O17   O     O_R   0.750770 0.502570 0.614050 -0.517854
O18   O     O_R   0.479280 0.728140 0.602370 -0.490534
O19   O     O_R   0.262290 0.744790 0.587460 -0.522376
O20   O     O_R   0.489240 0.256450 0.560730 -0.508065
O21   O     O_R   0.723350 0.306730 0.584410 -0.488812
O22   O     O_3   0.500010 0.500010 0.500020 -0.250598
O23   O     O_R   0.170650 0.915100 0.051290 -0.503450
O24   O     O_R   0.941960 0.184500 0.049060 -0.499267
O25   O     O_R   0.922640 0.402670 0.071640 -0.495786
O26   O     O_R   0.196880 0.368740 0.083740 -0.489418

loop_
_geom_bond_atom_site_label_1
_geom_bond_atom_site_label_2
_ccdc_geom_bond_type
Cr6   O10   S    
C16   O16   A    
C17   O10   A    
C18   O18   A    
C41   C42   A    
C35   C36   A    
C14   O6    A    
C45   C46   D    
C12   C23   D    
Cr4   O24   S    
C26   C27   A    
C45   H22   S    
C15   O9    A    
C10   O25   A    
C32   H7    S    
Cr6   O9    S    
Cr5   O26   S    
C13   O3    A    
C42   H16   S    
Cr4   O6    S    
Cr2   O12   S    
C7    C14   S    
C29   H5    S    
C33   H8    S    
C37   H11   S    
C36   C37   A    
Cr5   O8    S    
C18   O19   A    
C44   C47   D    
Cr3   O20   S    
C16   C24   S    
C21   C22   T    
Cr4   O11   S    
C2    H18   S    
C46   H21   S    
C19   O20   A    
Cr6   O2    S    
Cr3   O21   S    
C5    C48   D    
Cr4   O23   S    
C10   O24   A    
Cr6   O11   S    
C27   H3    S    
C39   C40   A    
C19   C48   S    
C8    C9    T    
C34   H19   S    
C25   C26   A    
C24   C34   D    
Cr1   O1    S    
C30   H6    S    
C17   O5    A    
Cr1   O4    S    
Cr4   O5    S    
C29   C30   A    
C1    C44   S    
C31   C32   A    
C23   C34   S    
Cr1   O17   S    
C2    C15   S    
C25   C48   S    
C38   C47   S    
C11   O26   A    
C10   C12   S    
Cr3   O15   S    
C15   O8    A    
Cr2   O14   S    
C40   C41   A    
C20   O17   A    
C12   C31   S    
Cr5   O11   S    
C42   C43   A    
C13   O23   A    
C41   H15   S    
C9    C17   S    
C25   C30   A    
C46   C47   S    
C28   C29   A    
Cr2   O19   S    
C43   H17   S    
C39   H13   S    
C14   O7    A    
C5    H12   S    
C3    C5    S    
C26   H2    S    
Cr5   O7    S    
C23   H1    S    
C6    C7    T    
C28   H4    S    
C6    C20   S    
C11   C22   S    
Cr2   O22   S    
Cr3   O22   S    
C16   O1    A    
C32   C33   A    
C2    C3    D    
C1    O4    A    
C38   C43   A    
C19   O12   A    
Cr1   O22   S    
C13   C45   S    
C4    C21   S    
C24   H20   S    
C44   H23   S    
C38   C39   A    
C20   O21   A    
Cr5   O25   S    
C33   C35   A    
Cr1   O18   S    
C8    C18   S    
C11   O2    A    
Cr3   O16   S    
C4    O15   A    
C31   C37   A    
Cr2   O13   S    
C1    O13   A    
C40   H14   S    
C27   C28   A    
C35   H9    S    
C36   H10   S    
C3    H24   S    
Cr6   O3    S    
C4    O14   A    
