data_mof_unit_12884.cif
_audit_creation_date              2012-12-10T17:32:35-0500
_audit_creation_method            fapswitch 2.2
_symmetry_space_group_name_H-M    P1
_symmetry_Int_Tables_number       1
_space_group_crystal_system       triclinic
_cell_length_a                    12.04573
_cell_length_b                    12.898868
_cell_length_c                    14.140248
_cell_angle_alpha                 90.27871
_cell_angle_beta                  87.029586
_cell_angle_gamma                 94.635706
_cell_volume                      2186.92916483

loop_
_atom_site_label
_atom_site_type_symbol
_atom_type_description
_atom_site_fract_x
_atom_site_fract_y
_atom_site_fract_z
_atom_type_partial_charge
C1    C     C_R   0.523485 0.700603 0.496028 0.884515
C2    C     C_R   0.141880 0.506180 0.439965 0.586734
C3    C     C_R   0.975703 0.506563 0.545883 -0.079557
C4    C     C_R   0.024225 0.494375 0.454262 -0.083846
C5    C     C_R   0.500485 0.499863 0.670678 0.881815
C6    C     C_R   0.499549 0.499867 0.329320 0.890938
C7    C     C_1   0.501224 0.499146 0.772118 -0.193740
C8    C     C_1   0.499129 0.499409 0.227862 -0.190149
C9    C     C_1   0.501215 0.498763 0.857401 -0.020796
C10   C     C_1   0.499815 0.498993 0.142544 -0.025864
C11   C     C_1   0.500931 0.498654 0.957314 0.012915
C12   C     C_R   0.476500 0.299322 0.502938 0.908244
C13   C     C_1   0.500487 0.498732 0.042614 0.010780
C14   C     C_R   0.459989 0.186967 0.505196 -0.207672
C15   C     C_R   0.540079 0.812812 0.490467 -0.196299
C16   C     C_R   0.650465 0.975548 0.513208 -0.101664
C17   C     C_R   0.350451 0.024654 0.477780 -0.104761
C18   C     C_R   0.644395 0.867217 0.502368 0.446172
C19   C     C_R   0.356355 0.132967 0.489561 0.462327
C20   C     C_R   0.446456 0.865675 0.475577 -0.321564
C21   C     C_R   0.553539 0.133791 0.519389 -0.317402
C22   C     C_3   0.204331 0.186599 0.572298 0.132964
C23   C     C_R   0.448818 0.972314 0.486159 0.034068
C24   C     C_3   0.090550 0.227169 0.561912 -0.701047
C25   C     C_3   0.791497 0.812319 0.413974 0.150842
C26   C     C_3   0.905116 0.769788 0.419248 -0.793566
C27   C     C_2   0.760706 0.032600 0.529210 0.414158
C28   C     C_2   0.240953 0.968131 0.458296 0.405917
C29   C     C_3   0.196510 0.605007 0.311438 0.085709
C30   C     C_3   0.208971 0.599001 0.204059 -0.809979
C31   C     C_3   0.810796 0.630020 0.663030 0.122400
C32   C     C_3   0.795814 0.650917 0.768648 -0.826366
C33   C     C_R   0.551625 0.027539 0.506537 0.028874
C34   C     C_R   0.954463 0.470749 0.379471 -0.285343
C35   C     C_R   0.045653 0.524010 0.621506 -0.305281
C36   C     C_R   0.838858 0.462953 0.396224 -0.099211
C37   C     C_R   0.161102 0.529252 0.605043 -0.106907
C38   C     C_R   0.857996 0.503371 0.558979 0.574347
H1    H     H_    0.629046 0.177130 0.539643 0.179605
H2    H     H_    0.046144 0.231510 0.632445 0.197483
H3    H     H_    0.100575 0.305865 0.530089 0.249464
H4    H     H_    0.804659 0.891379 0.381809 0.130405
H5    H     H_    0.739999 0.760828 0.366966 0.132913
H6    H     H_    0.958723 0.820430 0.465028 0.275768
H7    H     H_    0.895343 0.690163 0.449049 0.231175
H8    H     H_    0.946191 0.766961 0.347253 0.202882
H9    H     H_    0.782833 0.108612 0.498139 0.047193
H10   H     H_    0.216579 0.892522 0.489369 0.032610
H11   H     H_    0.270170 0.651626 0.338133 0.162427
H12   H     H_    0.370582 0.821736 0.457112 0.164577
H13   H     H_    0.120463 0.646753 0.329402 0.116794
H14   H     H_    0.133521 0.556989 0.175940 0.246825
H15   H     H_    0.219335 0.678662 0.173756 0.210520
H16   H     H_    0.282810 0.557157 0.182090 0.270294
H17   H     H_    0.740866 0.661358 0.627511 0.224295
H18   H     H_    0.890196 0.673504 0.636888 0.139237
H19   H     H_    0.865862 0.621856 0.806150 0.246876
H20   H     H_    0.794411 0.735847 0.781304 0.228765
H21   H     H_    0.716189 0.611268 0.797428 0.263806
H22   H     H_    0.213170 0.540032 0.664701 0.172995
H23   H     H_    0.786435 0.445904 0.337545 0.170636
H24   H     H_    0.988549 0.458681 0.308273 0.201683
H25   H     H_    0.011925 0.531985 0.693383 0.197779
H26   H     H_    0.251699 0.238461 0.621839 0.130089
H27   H     H_    0.190709 0.107258 0.603852 0.119667
H28   H     H_    0.039933 0.174401 0.515604 0.272889
N1    N     N_R   0.207800 0.519340 0.515940 -0.137004
N2    N     N_R   0.792200 0.480660 0.484060 -0.132108
O1    O     O_R   0.421690 0.658830 0.504250 -0.631255
O2    O     O_3   0.739984 0.814848 0.506050 -0.591150
O3    O     O_2   0.828636 0.994626 0.577002 -0.527628
O4    O     O_2   0.176041 0.006226 0.407557 -0.516834
O5    O     O_3   0.189971 0.503249 0.349454 -0.587972
O6    O     O_3   0.809397 0.521451 0.647550 -0.611395
O7    O     O_R   0.578310 0.341170 0.495750 -0.615919
O8    O     O_R   0.609320 0.646410 0.494030 -0.600179
O9    O     O_R   0.390680 0.353590 0.505970 -0.566171
O10   O     O_R   0.406170 0.506210 0.631400 -0.627360
O11   O     O_R   0.593830 0.493790 0.368600 -0.627062
O12   O     O_R   0.593790 0.493790 0.621170 -0.550913
O13   O     O_R   0.406210 0.506210 0.378830 -0.547225
O14   O     O_3   0.261582 0.185902 0.482404 -0.546478
Zn1   Zn    Zn3+2 0.374720 0.508290 0.506830 0.971442
Zn2   Zn    Zn3+2 0.625280 0.491710 0.493170 0.962853

loop_
_geom_bond_atom_site_label_1
_geom_bond_atom_site_label_2
_ccdc_geom_bond_type
C18   O2    S    
C15   C18   A    
N1    Zn1   S    
C32   H20   S    
O12   Zn2   S    
O8    Zn2   S    
C26   H6    S    
C29   H11   S    
C30   H16   S    
C17   C23   A    
C22   O14   S    
C14   C21   A    
C35   C37   A    
C29   H13   S    
O11   Zn2   S    
O7    Zn2   S    
C29   O5    S    
O9    Zn1   S    
C34   H24   S    
C20   H12   S    
C26   H7    S    
C17   C19   A    
O10   Zn1   S    
C3    C38   A    
C23   C33   A    
C1    C15   S    
C31   H18   S    
C19   O14   S    
C24   H28   S    
C16   C27   S    
C6    O13   A    
C24   H3    S    
C1    O8    A    
C25   H5    S    
C28   O4    D    
C32   H19   S    
O13   Zn1   S    
C15   C20   A    
C30   H15   S    
C4    C34   A    
N2    Zn2   S    
C2    N1    A    
C5    C7    S    
C31   O6    S    
C6    C8    S    
C25   C26   S    
C1    O1    A    
C2    C4    A    
C22   H27   S    
C29   C30   S    
O1    Zn1   S    
C16   C33   A    
C31   C32   S    
C21   H1    S    
C20   C23   A    
C3    C35   A    
C12   O9    A    
C5    O12   A    
C9    C11   S    
C2    O5    S    
C8    C10   T    
C38   N2    A    
C22   C24   S    
C3    C4    A    
C27   O3    D    
C38   O6    S    
C27   H9    S    
C7    C9    T    
C30   H14   S    
C28   H10   S    
C17   C28   S    
C14   C19   A    
C12   C14   S    
C10   C13   S    
C25   H4    S    
C36   N2    A    
C11   C13   T    
C6    O11   A    
C37   N1    A    
C24   H2    S    
C34   C36   A    
C37   H22   S    
C26   H8    S    
C22   H26   S    
C21   C33   A    
C16   C18   A    
C12   O7    A    
C35   H25   S    
C25   O2    S    
C32   H21   S    
C31   H17   S    
C5    O10   A    
C36   H23   S    
