data_mof_unit_57056.cif
_audit_creation_date              2013-03-05T15:44:38-0500
_audit_creation_method            fapswitch 2.2
_symmetry_space_group_name_H-M    P1
_symmetry_Int_Tables_number       1
_space_group_crystal_system       triclinic
_cell_length_a                    19.201859
_cell_length_b                    11.136513
_cell_length_c                    18.768016
_cell_angle_alpha                 89.997813
_cell_angle_beta                  90.493498
_cell_angle_gamma                 90.000753
_cell_volume                      4013.23655803

loop_
_atom_site_label
_atom_site_type_symbol
_atom_site_description
_atom_site_fract_x
_atom_site_fract_y
_atom_site_fract_z
_atom_type_partial_charge
O1    O     O_R   0.787540 0.042690 0.170470 -0.509341
O2    O     O_R   0.212460 0.042690 0.829530 -0.484701
O3    O     O_R   0.287540 0.542690 0.170470 -0.484726
O4    O     O_R   0.712460 0.542690 0.829530 -0.509452
O5    O     O_R   0.765660 0.292160 0.175050 -0.483407
O6    O     O_R   0.234340 0.292160 0.824950 -0.477176
O7    O     O_R   0.265660 0.792160 0.175050 -0.477205
O8    O     O_R   0.734340 0.792160 0.824950 -0.483453
C1    C     C_R   0.731139 0.378730 0.146908 0.575364
C2    C     C_R   0.273947 0.368103 0.858352 0.566647
C3    C     C_R   0.226057 0.868109 0.141648 0.566634
C4    C     C_R   0.768868 0.878714 0.853099 0.575359
O9    O     O_R   0.670190 0.408980 0.168550 -0.467948
O10   O     O_R   0.329810 0.408980 0.831450 -0.429737
O11   O     O_R   0.170190 0.908980 0.168550 -0.429718
O12   O     O_R   0.829810 0.908980 0.831450 -0.467935
O13   O     O_R   0.556580 0.251450 0.175160 -0.519687
O14   O     O_R   0.443420 0.251450 0.824840 -0.498505
O15   O     O_R   0.056580 0.751450 0.175160 -0.498509
O16   O     O_R   0.943420 0.751450 0.824840 -0.519648
C5    C     C_R   0.530666 0.157181 0.147905 0.540321
C6    C     C_R   0.466855 0.155160 0.854256 0.529988
C7    C     C_R   0.033129 0.655166 0.145753 0.530091
C8    C     C_R   0.969332 0.657179 0.852097 0.540342
O17   O     O_R   0.545920 0.049510 0.170320 -0.484789
O18   O     O_R   0.454080 0.049510 0.829680 -0.488762
O19   O     O_R   0.045920 0.549510 0.170320 -0.488757
O20   O     O_R   0.954080 0.549510 0.829680 -0.484840
O21   O     O_R   0.681390 0.957840 0.176710 -0.461333
O22   O     O_R   0.318610 0.957840 0.823290 -0.481081
O23   O     O_R   0.181390 0.457840 0.176710 -0.480993
O24   O     O_R   0.818610 0.457840 0.823290 -0.461311
C9    C     C_R   0.738894 0.970973 0.146134 0.561474
C10   C     C_R   0.258194 0.963541 0.849938 0.552598
C11   C     C_R   0.241805 0.463546 0.150061 0.552639
C12   C     C_R   0.761105 0.470973 0.853868 0.561437
O25   O     O_R   0.787500 0.044280 0.330990 -0.449653
O26   O     O_R   0.212500 0.044280 0.669010 -0.465391
O27   O     O_R   0.287500 0.544280 0.330990 -0.465377
O28   O     O_R   0.712500 0.544280 0.669010 -0.449746
O29   O     O_R   0.765610 0.293630 0.323860 -0.478312
O30   O     O_R   0.234390 0.293630 0.676140 -0.501793
O31   O     O_R   0.265610 0.793630 0.323860 -0.501751
O32   O     O_R   0.734390 0.793630 0.676140 -0.478510
C13   C     C_R   0.731286 0.384235 0.349313 0.545495
C14   C     C_R   0.273443 0.370603 0.644327 0.557882
C15   C     C_R   0.226569 0.870636 0.355658 0.557956
C16   C     C_R   0.768713 0.884230 0.650683 0.545559
O33   O     O_R   0.670140 0.410570 0.329080 -0.511965
O34   O     O_R   0.329860 0.410570 0.670920 -0.481949
O35   O     O_R   0.170140 0.910570 0.329080 -0.481906
O36   O     O_R   0.829860 0.910570 0.670920 -0.512066
O37   O     O_R   0.556540 0.252920 0.323970 -0.488630
O38   O     O_R   0.443460 0.252920 0.676030 -0.505953
O39   O     O_R   0.056540 0.752920 0.323970 -0.506193
O40   O     O_R   0.943460 0.752920 0.676030 -0.488874
C17   C     C_R   0.533282 0.157661 0.353430 0.541894
C18   C     C_R   0.463965 0.156408 0.644972 0.527703
C19   C     C_R   0.036123 0.656390 0.355076 0.527887
C20   C     C_R   0.966742 0.657673 0.646582 0.541970
O41   O     O_R   0.545870 0.051100 0.330840 -0.478326
O42   O     O_R   0.454130 0.051100 0.669160 -0.475025
O43   O     O_R   0.045870 0.551100 0.330840 -0.475466
O44   O     O_R   0.954130 0.551100 0.669160 -0.478657
O45   O     O_R   0.681340 0.959300 0.325510 -0.444585
O46   O     O_R   0.318660 0.959300 0.674490 -0.468393
O47   O     O_R   0.181340 0.459300 0.325510 -0.468527
O48   O     O_R   0.818660 0.459300 0.674490 -0.444534
C21   C     C_R   0.729656 0.015729 0.362133 0.549230
C22   C     C_R   0.257039 0.966284 0.647840 0.566627
C23   C     C_R   0.242974 0.466261 0.352150 0.566719
C24   C     C_R   0.770310 0.515595 0.637862 0.549264
Cr1   Cr    Cr6+3 0.772000 0.169640 0.250110 1.116497
Cr2   Cr    Cr6+3 0.228000 0.169640 0.749890 1.111936
Cr3   Cr    Cr6+3 0.272000 0.669640 0.250110 1.112037
Cr4   Cr    Cr6+3 0.728000 0.669640 0.749890 1.116450
Cr5   Cr    Cr6+3 0.614960 0.323350 0.249260 1.087432
Cr6   Cr    Cr6+3 0.385040 0.323350 0.750740 1.113055
Cr7   Cr    Cr6+3 0.114960 0.823350 0.249260 1.112898
Cr8   Cr    Cr6+3 0.885040 0.823350 0.750740 1.087305
Cr9   Cr    Cr6+3 0.616670 0.010620 0.250840 1.142798
Cr10  Cr    Cr6+3 0.383330 0.010620 0.749160 1.134187
Cr11  Cr    Cr6+3 0.116670 0.510620 0.250840 1.134046
Cr12  Cr    Cr6+3 0.883330 0.510620 0.749160 1.142727
O49   O     O_3   0.667880 0.167870 0.250070 -0.325292
O50   O     O_3   0.332120 0.167870 0.749930 -0.314806
O51   O     O_3   0.167880 0.667870 0.250070 -0.314734
O52   O     O_3   0.832120 0.667870 0.749930 -0.325106
H1    H     H_    0.459073 0.998566 0.076426 0.190932
H2    H     H_    0.449775 0.985815 0.950186 0.195403
H3    H     H_    0.049872 0.485645 0.049872 0.195596
H4    H     H_    0.040709 0.498426 0.923652 0.191063
C25   C     C_R   0.488644 0.163607 0.929412 0.009219
C26   C     C_R   0.496306 0.175256 0.078593 -0.009734
C27   C     C_R   0.003671 0.675234 0.921421 -0.009720
C28   C     C_R   0.011294 0.663624 0.070610 0.009100
C29   C     C_R   0.509085 0.272383 0.962661 0.022988
C30   C     C_R   0.505953 0.281158 0.038057 0.007383
C31   C     C_R   0.994077 0.781172 0.961938 0.007374
C32   C     C_R   0.990942 0.772434 0.037338 0.022949
C33   C     C_R   0.471318 0.074779 0.045181 -0.137501
C34   C     C_R   0.468681 0.067567 0.972433 -0.120500
C35   C     C_R   0.031123 0.567491 0.027611 -0.120596
C36   C     C_R   0.028541 0.574700 0.954866 -0.137530
C37   C     C_R   0.530389 0.373450 0.923634 -0.077756
C38   C     C_R   0.510617 0.395322 0.070156 -0.083191
C39   C     C_R   0.989440 0.895326 0.929817 -0.083277
C40   C     C_R   0.969685 0.873543 0.076347 -0.077804
C41   C     C_R   0.974310 0.995753 0.970079 0.001468
C42   C     C_R   0.963888 0.985052 0.042884 -0.026195
C43   C     C_R   0.536181 0.484979 0.957069 -0.026294
C44   C     C_R   0.525755 0.495722 0.029871 0.001495
H5    H     H_    0.539866 0.368916 0.866996 0.143276
H6    H     H_    0.498176 0.410021 0.125509 0.154025
H7    H     H_    0.001876 0.909991 0.874459 0.154010
H8    H     H_    0.960205 0.869043 0.132985 0.143268
H9    H     H_    0.973311 0.083100 0.944956 0.220590
H10   H     H_    0.953322 0.064357 0.074372 0.197082
H11   H     H_    0.546740 0.564271 0.925564 0.196953
H12   H     H_    0.526739 0.583083 0.054973 0.220691
C45   C     C_R   0.679326 0.894981 0.031230 0.168380
C46   C     C_R   0.304469 0.849519 0.956046 0.093826
C47   C     C_R   0.195524 0.349568 0.043945 0.093983
C48   C     C_R   0.820665 0.394922 0.968770 0.168358
C49   C     C_R   0.683907 0.889331 0.955714 0.092456
C50   C     C_R   0.299260 0.846802 0.031257 0.061739
C51   C     C_R   0.200738 0.346849 0.968736 0.061851
C52   C     C_R   0.816101 0.389299 0.044290 0.092503
C53   C     C_R   0.746721 0.922957 0.923151 0.001127
C54   C     C_R   0.236900 0.887608 0.064217 -0.030812
C55   C     C_R   0.263110 0.387606 0.935781 -0.030804
C56   C     C_R   0.753313 0.423027 0.076873 0.001076
C57   C     C_R   0.797922 0.975245 0.965179 0.166181
C58   C     C_R   0.179591 0.921728 0.019244 0.170071
C59   C     C_R   0.320423 0.421699 0.980755 0.170052
C60   C     C_R   0.702139 0.475425 0.034861 0.166189
C61   C     C_R   0.800484 0.948919 0.036861 -0.158421
C62   C     C_R   0.183709 0.902227 0.946428 -0.135384
C63   C     C_R   0.316290 0.402233 0.053575 -0.135415
C64   C     C_R   0.699558 0.449167 0.963174 -0.158515
H13   H     H_    0.842852 0.981760 0.068037 0.169754
H14   H     H_    0.139472 0.924851 0.912728 0.178332
H15   H     H_    0.360528 0.424841 0.087278 0.178343
H16   H     H_    0.657214 0.482133 0.932016 0.169924
C65   C     C_R   0.740256 0.925016 0.072250 -0.015732
C66   C     C_R   0.247750 0.893127 0.915366 -0.040644
C67   C     C_R   0.252246 0.393151 0.084630 -0.040641
C68   C     C_R   0.759746 0.425069 0.927766 -0.015904
C69   C     C_R   0.454983 0.095612 0.450103 -0.063575
C70   C     C_R   0.441419 0.092308 0.522472 -0.076697
C71   C     C_R   0.058132 0.591113 0.477477 -0.077197
C72   C     C_R   0.044653 0.594515 0.549854 -0.064122
H17   H     H_    0.426945 0.036212 0.414241 0.145414
H18   H     H_    0.400890 0.033380 0.541590 0.150868
H19   H     H_    0.098154 0.531228 0.458272 0.152607
H20   H     H_    0.072200 0.534221 0.585602 0.146527
C73   C     C_R   0.480345 0.163479 0.570097 0.022008
C74   C     C_R   0.507158 0.171239 0.425120 0.065344
C75   C     C_R   0.993093 0.671288 0.574971 0.064227
C76   C     C_R   0.019775 0.663432 0.429968 0.020806
C77   C     C_R   0.529786 0.243856 0.544921 -0.105336
C78   C     C_R   0.543252 0.247879 0.472336 -0.071881
C79   C     C_R   0.957682 0.749139 0.527892 -0.071832
C80   C     C_R   0.971095 0.745080 0.455297 -0.106297
H21   H     H_    0.559367 0.299291 0.581600 0.170850
H22   H     H_    0.584721 0.305507 0.453639 0.155660
H23   H     H_    0.916716 0.807772 0.546675 0.157632
H24   H     H_    0.942019 0.801493 0.418713 0.172034
C81   C     C_R   0.796178 0.025962 0.477174 0.147724
C82   C     C_R   0.179009 0.926667 0.545127 0.157984
C83   C     C_R   0.321018 0.426756 0.454869 0.157838
C84   C     C_R   0.703725 0.525591 0.522890 0.147685
C85   C     C_R   0.799252 0.009259 0.549476 -0.104072
C86   C     C_R   0.177605 0.926330 0.471335 -0.106804
C87   C     C_R   0.322390 0.426450 0.528662 -0.106982
C88   C     C_R   0.700645 0.509002 0.450589 -0.103992
H25   H     H_    0.846891 0.036683 0.576267 0.228841
H26   H     H_    0.128922 0.948278 0.444830 0.216291
H27   H     H_    0.371037 0.448562 0.555187 0.216458
H28   H     H_    0.652964 0.536331 0.423841 0.228825
C89   C     C_R   0.747786 0.944825 0.585031 -0.067850
C90   C     C_R   0.235954 0.890172 0.432090 -0.064727
C91   C     C_R   0.264064 0.390106 0.567884 -0.064780
C92   C     C_R   0.752173 0.444789 0.414985 -0.067791
C93   C     C_R   0.685315 0.920196 0.550751 -0.098636
C94   C     C_R   0.294718 0.846269 0.467970 -0.153898
C95   C     C_R   0.205369 0.345970 0.531971 -0.154120
C96   C     C_R   0.814666 0.420250 0.449246 -0.098520
H29   H     H_    0.642843 0.881969 0.580335 0.222954
H30   H     H_    0.337037 0.806684 0.438247 0.199528
H31   H     H_    0.163093 0.306206 0.561675 0.199468
H32   H     H_    0.857177 0.382236 0.419626 0.222931
C97   C     C_R   0.679445 0.935281 0.477121 0.150129
C98   C     C_R   0.297824 0.848332 0.542419 0.131350
C99   C     C_R   0.202296 0.348013 0.457514 0.131180
C100  C     C_R   0.820499 0.435086 0.522896 0.150226
C101  C     C_R   0.735687 0.988468 0.438758 -0.043807
C102  C     C_R   0.242519 0.902593 0.580588 0.002325
C103  C     C_R   0.257543 0.402514 0.419380 0.002502
C104  C     C_R   0.764239 0.488173 0.561273 -0.043668
N1    N     N_R   0.858898 0.068252 0.444250 0.115442
O53   O     O_R   0.917961 0.016779 0.459525 -0.303110
O54   O     O_R   0.860254 0.173399 0.414811 -0.289442
N2    N     N_R   0.115704 0.949783 0.583408 0.094264
O55   O     O_R   0.066608 0.015292 0.555114 -0.253153
O56   O     O_R   0.103353 0.893165 0.642652 -0.329174
N3    N     N_R   0.384327 0.449990 0.416613 0.094359
O57   O     O_R   0.433381 0.515560 0.444934 -0.252774
O58   O     O_R   0.396735 0.393393 0.357378 -0.329097
N4    N     N_R   0.640988 0.567657 0.555862 0.115567
O59   O     O_R   0.582032 0.515566 0.540922 -0.302852
O60   O     O_R   0.639441 0.673042 0.584989 -0.289201
N5    N     N_R   0.619904 0.882716 0.442569 0.113864
O61   O     O_R   0.628872 0.788763 0.402456 -0.279593
O62   O     O_R   0.558544 0.900486 0.469330 -0.290533
N6    N     N_R   0.355738 0.792047 0.578353 0.092164
O63   O     O_R   0.345475 0.731277 0.636571 -0.292492
O64   O     O_R   0.415917 0.784049 0.547311 -0.253327
N7    N     N_R   0.144514 0.291398 0.421533 0.091734
O65   O     O_R   0.154904 0.231018 0.363199 -0.292619
O66   O     O_R   0.084392 0.282663 0.452625 -0.253852
N8    N     N_R   0.879984 0.382301 0.557441 0.113963
O67   O     O_R   0.870887 0.288538 0.597683 -0.280026
O68   O     O_R   0.941348 0.399621 0.530589 -0.290699
I1    I     I_    0.581928 0.849484 0.078688 -0.149771
I2    I     I_    0.393337 0.778479 0.901358 -0.118394
I3    I     I_    0.106644 0.278561 0.098621 -0.118484
I4    I     I_    0.918022 0.349291 0.921267 -0.149959
I5    I     I_    0.594850 0.852494 0.889633 -0.221879
I6    I     I_    0.388706 0.796722 0.094144 -0.228003
I7    I     I_    0.111286 0.296855 0.905837 -0.228145
I8    I     I_    0.905153 0.352357 0.110353 -0.222030
N9    N     N_R   0.830664 0.083130 0.942669 0.069918
O69   O     O_R   0.816585 0.129697 0.880542 -0.307092
O70   O     O_R   0.854432 0.152343 0.992710 -0.381654
N10   N     N_R   0.126328 0.005816 0.038895 0.089997
O71   O     O_R   0.090887 0.001063 0.097039 -0.297619
O72   O     O_R   0.105299 0.080887 0.990878 -0.342975
N11   N     N_R   0.373722 0.505718 0.961095 0.090018
O73   O     O_R   0.409172 0.500899 0.902959 -0.297628
O74   O     O_R   0.394773 0.580791 0.009098 -0.342981
N12   N     N_R   0.669362 0.583240 0.057426 0.069934
O75   O     O_R   0.683450 0.629775 0.119556 -0.307084
O76   O     O_R   0.645525 0.652453 0.007418 -0.381773

loop_
_geom_bond_atom_site_label_1
_geom_bond_atom_site_label_2
_geom_bond_distance
_ccdc_geom_bond_type
C18   O42   1.272223 A    
Cr11  O51   2.008508 S    
C17   C74   1.447917 S    
O4    C12   1.308310 A    
C57   C61   1.377364 A    
C33   C34   1.368214 A    
C70   C73   1.405114 A    
O39   C19   1.286104 A    
O20   Cr12  2.069198 S    
C39   C41   1.382058 A    
N1    O53   1.300530 A    
O15   C7    1.285649 A    
N11   O73   1.292100 A    
C20   C75   1.448115 S    
C82   C102  1.409964 A    
C60   C64   1.377316 A    
C69   H17   1.083626 S    
C86   C90   1.405079 A    
O29   Cr1   1.959755 S    
C99   N7    1.439342 S    
C29   C30   1.420210 A    
N2    O56   1.301769 A    
C41   H9    1.081066 S    
C38   C44   1.382024 A    
N5    O61   1.301346 A    
C7    C28   1.470839 S    
O7    C3    1.295542 A    
C88   H28   1.083963 S    
C48   C68   1.434504 A    
C63   C67   1.369167 A    
O5    C1    1.281314 A    
H2    C34   1.064149 S    
C28   C32   1.416609 A    
C38   H6    1.080471 S    
C69   C70   1.385654 A    
C76   C80   1.390765 A    
C61   C65   1.364791 A    
C50   I6    2.149196 S    
N6    O64   1.301627 A    
C55   C59   1.432410 A    
O30   C14   1.288908 A    
C16   C89   1.458244 S    
C27   C31   1.416522 A    
C56   C60   1.383619 A    
O47   C23   1.283128 A    
C47   I3    2.149670 S    
C5    C26   1.467374 S    
C26   C30   1.416467 A    
C46   I2    2.149775 S    
O21   C9    1.257300 A    
O8    Cr4   1.964239 S    
O23   Cr11  1.963521 S    
N10   O71   1.292109 A    
C43   H11   1.082830 S    
C90   C94   1.397379 A    
O32   Cr4   1.959677 S    
C1    O9    1.286989 A    
C2    C55   1.485754 S    
O44   Cr12  2.083473 S    
O17   Cr9   2.069180 S    
C83   C103  1.409999 A    
C78   H22   1.083442 S    
C3    O11   1.273673 A    
C12   C68   1.478554 S    
O11   Cr7   2.087139 S    
C4    O12   1.286943 A    
C26   C33   1.367620 A    
O33   Cr5   2.069557 S    
C58   N10   1.437184 S    
C52   I8    2.143366 S    
N12   O76   1.295008 A    
C71   C72   1.385518 A    
O27   Cr3   2.081792 S    
O7    Cr3   1.964166 S    
O3    Cr3   2.080806 S    
N9    O69   1.302337 A    
Cr4   O52   1.999389 S    
C82   N2    1.440548 S    
O2    Cr2   2.080721 S    
C100  C104  1.431350 A    
C48   C52   1.422211 A    
C29   C37   1.405604 A    
Cr6   O50   2.007641 S    
C64   H16   1.062838 S    
C37   C43   1.395589 A    
C72   C75   1.393386 A    
C85   C89   1.395743 A    
C22   C102  1.472395 S    
C86   H26   1.083067 S    
C21   C101  1.473369 S    
N2    O55   1.301672 A    
N1    O54   1.295117 A    
C64   C68   1.364764 A    
C54   C58   1.432386 A    
C45   I1    2.139260 S    
C63   H15   1.084340 S    
C15   C90   1.460513 S    
C52   C56   1.407598 A    
O13   Cr5   1.950659 S    
C48   I4    2.139295 S    
O6    Cr2   1.964239 S    
C81   C101  1.424413 A    
C99   C103  1.420935 A    
C23   C103  1.472482 S    
N5    O62   1.299943 A    
O31   Cr3   1.959755 S    
O24   Cr12  1.963480 S    
O16   Cr8   1.950627 S    
O9    Cr5   2.087139 S    
C32   C40   1.405592 A    
O30   Cr2   1.959677 S    
C4    C53   1.470324 S    
O22   C10   1.268858 A    
N10   O72   1.291438 A    
O1    C9    1.308321 A    
N3    O57   1.301681 A    
O48   Cr12  1.950045 S    
O14   Cr6   1.950627 S    
C72   H20   1.083812 S    
C80   H24   1.082222 S    
N6    O63   1.301674 A    
C62   H14   1.084334 S    
C8    C27   1.467385 S    
C93   C97   1.395647 A    
N7    O65   1.301688 A    
C44   H12   1.081071 S    
C50   C54   1.426813 A    
C89   C93   1.383772 A    
C46   C66   1.410892 A    
C15   O35   1.269384 A    
C81   N1    1.437655 S    
O45   C21   1.310384 A    
N8    O68   1.299921 A    
Cr10  O50   2.008531 S    
C83   C87   1.384972 A    
O13   C5    1.267692 A    
O28   Cr4   2.081865 S    
O43   Cr11  2.083507 S    
O48   C24   1.310170 A    
O12   Cr8   2.087202 S    
C14   C91   1.460641 S    
C46   C50   1.416276 A    
C79   H23   1.083611 S    
C45   C49   1.422165 A    
C91   C95   1.397510 A    
C24   C104  1.473155 S    
O39   Cr7   1.966369 S    
C19   C76   1.444955 S    
C25   C29   1.416600 A    
C47   C51   1.416250 A    
C31   C32   1.420250 A    
O3    C11   1.299608 A    
O40   Cr8   1.966425 S    
O8    C4    1.281321 A    
C39   H7    1.080469 S    
C51   I7    2.149173 S    
C13   O33   1.265331 A    
C61   H13   1.062906 S    
N11   O74   1.291429 A    
C11   C67   1.472120 S    
O47   Cr11  1.950025 S    
Cr2   O50   1.999389 S    
O15   Cr7   1.950659 S    
C42   H10   1.082816 S    
N9    O70   1.295035 A    
O35   Cr7   2.069557 S    
C69   C74   1.393180 A    
Cr7   O51   2.007663 S    
C49   I5    2.143402 S    
C9    C65   1.478542 S    
C93   H29   1.078156 S    
C53   C57   1.383669 A    
N4    O60   1.295159 A    
Cr3   O51   1.999388 S    
O26   C22   1.284385 A    
C47   C67   1.410885 A    
O21   Cr9   1.963521 S    
C7    O19   1.286627 A    
C49   C53   1.407543 A    
C6    O18   1.286594 A    
O37   Cr5   1.966369 S    
O38   C18   1.286083 A    
O25   C21   1.299068 A    
C45   C65   1.434546 A    
C19   O43   1.272142 A    
O18   Cr10  2.069198 S    
C84   N4    1.437522 S    
C83   N3    1.440564 S    
C3    C54   1.485790 S    
C73   C77   1.390491 A    
O34   Cr6   2.069518 S    
C27   C36   1.367603 A    
C8    O20   1.303242 A    
C87   C91   1.405056 A    
C82   C86   1.384961 A    
C1    C56   1.470363 S    
C37   H5    1.081171 S    
C88   C92   1.395820 A    
C5    O17   1.303237 A    
O26   Cr2   2.081865 S    
O27   C23   1.284305 A    
O22   Cr10  1.963480 S    
O28   C24   1.298924 A    
C43   C44   1.387815 A    
H1    C33   1.059178 S    
O14   C6    1.285648 A    
H4    C36   1.059112 S    
C95   H31   1.083360 S    
C94   C98   1.398209 A    
O5    Cr1   1.964166 S    
C100  N8    1.434506 S    
Cr12  O52   2.008531 S    
H3    C35   1.064109 S    
C18   C73   1.444818 S    
O37   C17   1.278570 A    
C25   C34   1.395718 A    
C58   C62   1.386707 A    
C87   H27   1.083066 S    
O24   C12   1.257341 A    
C17   O41   1.283856 A    
C31   C39   1.409445 A    
C96   H32   1.078162 S    
C14   O34   1.269436 A    
O25   Cr1   2.081792 S    
C71   H19   1.081694 S    
C30   C38   1.409425 A    
O29   C13   1.298541 A    
C60   N12   1.421889 S    
C20   O44   1.283955 A    
C59   C63   1.386707 A    
O1    Cr1   2.080806 S    
C71   C76   1.405270 A    
C40   H8    1.081169 S    
C51   C55   1.426759 A    
O19   Cr11  2.069180 S    
Cr1   O49   1.999388 S    
C59   N11   1.437193 S    
O32   C16   1.298462 A    
C77   C78   1.389491 A    
C41   C42   1.387813 A    
O46   Cr10  1.950045 S    
C98   N6    1.439250 S    
C10   C66   1.472137 S    
O2    C10   1.299625 A    
C98   C102  1.421009 A    
C62   C66   1.369168 A    
C97   C101  1.431394 A    
N12   O75   1.302339 A    
O23   C11   1.268846 A    
C6    C25   1.470819 S    
C40   C42   1.395589 A    
C97   N5    1.434408 S    
C84   C104  1.424217 A    
C75   C79   1.408660 A    
N7    O66   1.301668 A    
O10   Cr6   2.087202 S    
O42   Cr10  2.083473 S    
N8    O67   1.301349 A    
Cr9   O49   2.008508 S    
O4    Cr4   2.080721 S    
C79   C80   1.389518 A    
O6    C2    1.295563 A    
C74   C78   1.408388 A    
Cr5   O49   2.007663 S    
C92   C96   1.383765 A    
C16   O36   1.265399 A    
O40   C20   1.278579 A    
O46   C22   1.283003 A    
C96   C100  1.395647 A    
Cr8   O52   2.007641 S    
N4    O59   1.300484 A    
C70   H18   1.081586 S    
C28   C35   1.395620 A    
C35   C36   1.368100 A    
N3    O58   1.301771 A    
C81   C85   1.370412 A    
O45   Cr9   1.950025 S    
C95   C99   1.398332 A    
O41   Cr9   2.083507 S    
C94   H30   1.083363 S    
C85   H25   1.083950 S    
O36   Cr8   2.069518 S    
C57   N9    1.421888 S    
O31   C15   1.288930 A    
O16   C8    1.267692 A    
C77   H21   1.082103 S    
C84   C88   1.370249 A    
C13   C92   1.458189 S    
C2    O10   1.273613 A    
O38   Cr6   1.966425 S    
