data_mof_unit_33306.cif
_audit_creation_date              2013-03-05T16:10:38-0500
_audit_creation_method            fapswitch 2.2
_symmetry_space_group_name_H-M    P1
_symmetry_Int_Tables_number       1
_space_group_crystal_system       triclinic
_cell_length_a                    20.689736
_cell_length_b                    7.193916
_cell_length_c                    20.436858
_cell_angle_alpha                 89.834471
_cell_angle_beta                  101.864919
_cell_angle_gamma                 89.877902
_cell_volume                      2976.81408322

loop_
_atom_site_label
_atom_site_type_symbol
_atom_site_description
_atom_site_fract_x
_atom_site_fract_y
_atom_site_fract_z
_atom_type_partial_charge
O1    O     O_R   0.807340 0.614490 0.194100 -0.579457
O2    O     O_R   0.192660 0.385510 0.805900 -0.585037
O3    O     O_R   0.692660 0.114490 0.305900 -0.584777
O4    O     O_R   0.307340 0.885510 0.694100 -0.574985
O5    O     O_R   0.672910 0.282300 0.178070 -0.608572
O6    O     O_R   0.327090 0.717700 0.821930 -0.558411
O7    O     O_R   0.827090 0.782300 0.321930 -0.546541
O8    O     O_R   0.172910 0.217700 0.678070 -0.544639
C1    C     C_R   0.649208 0.453530 0.160964 1.073876
C2    C     C_R   0.350692 0.546559 0.839044 1.066247
C3    C     C_R   0.850423 0.952848 0.339396 1.060062
C4    C     C_R   0.149580 0.047151 0.660602 1.059386
O9    O     O_R   0.805620 0.284620 0.186180 -0.595927
O10   O     O_R   0.194380 0.715380 0.813820 -0.594074
O11   O     O_R   0.694380 0.784620 0.313820 -0.586678
O12   O     O_R   0.305620 0.215380 0.686180 -0.600642
O13   O     O_R   0.826310 0.116750 0.314070 -0.581252
O14   O     O_R   0.173690 0.883250 0.685930 -0.583811
O15   O     O_R   0.673690 0.616750 0.185930 -0.567723
O16   O     O_R   0.326310 0.383250 0.814070 -0.604549
C5    C     C_R   0.824923 0.453163 0.171518 1.018124
C6    C     C_R   0.174987 0.546846 0.828391 1.024131
C7    C     C_R   0.675311 0.953170 0.328736 0.980856
C8    C     C_R   0.325132 0.046852 0.671718 0.996195
O17   O     O_3   0.756630 0.448770 0.291950 -0.259672
O18   O     O_3   0.243370 0.551230 0.708050 -0.263684
O19   O     O_3   0.743370 0.948770 0.208050 -0.284764
O20   O     O_3   0.256630 0.051230 0.791950 -0.283613
V1    V     V_3+5 0.748770 0.172970 0.242220 1.238521
V2    V     V_3+5 0.251230 0.827030 0.757780 1.261511
V3    V     V_3+5 0.751230 0.672970 0.257780 1.278858
V4    V     V_3+5 0.248770 0.327030 0.742220 1.259046
H1    H     H_    0.541361 0.286199 0.454752 0.126593
H2    H     H_    0.461855 0.713292 0.548608 0.129359
H3    H     H_    0.957360 0.786671 0.043878 0.128457
H4    H     H_    0.042434 0.213362 0.955917 0.128265
C9    C     C_R   0.479535 0.174207 0.518103 -0.147850
C10   C     C_R   0.523848 0.825329 0.485426 -0.136132
C11   C     C_R   0.020445 0.674664 0.981851 -0.143764
C12   C     C_R   0.979343 0.325371 0.017937 -0.144353
H5    H     H_    0.462838 0.310231 0.530270 0.123923
H6    H     H_    0.540442 0.689290 0.473158 0.127303
H7    H     H_    0.035839 0.810849 0.968300 0.123399
H8    H     H_    0.963953 0.189185 0.031492 0.123428
C13   C     C_R   0.456439 0.013544 0.545008 0.174318
C14   C     C_R   0.546866 0.985978 0.458435 0.169810
C15   C     C_R   0.045052 0.513892 0.956553 0.174625
C16   C     C_R   0.954738 0.486141 0.043237 0.174408
C17   C     C_R   0.479005 0.839024 0.528412 -0.146627
C18   C     C_R   0.524355 0.160497 0.475098 -0.140717
C19   C     C_R   0.024125 0.339163 0.974888 -0.144527
C20   C     C_R   0.975664 0.660871 0.024901 -0.144094
C21   C     C_1   0.409772 0.027406 0.589396 0.001927
C22   C     C_1   0.592847 0.972099 0.413317 -0.000434
C23   C     C_1   0.091354 0.527827 0.911780 0.007067
C24   C     C_1   0.908459 0.472200 0.088034 0.007403
C25   C     C_1   0.630699 0.962328 0.375071 -0.200588
C26   C     C_1   0.370969 0.037513 0.626638 -0.211584
C27   C     C_1   0.870128 0.462281 0.125780 -0.211171
C28   C     C_1   0.129717 0.537735 0.874067 -0.207652
C29   C     C_R   0.911510 0.958768 0.392637 -0.471097
C30   C     C_R   0.088498 0.041228 0.607358 -0.470618
C31   C     C_R   0.587733 0.464797 0.108154 -0.465794
C32   C     C_R   0.412214 0.537642 0.891712 -0.467770
C33   C     C_R   0.973856 0.138025 0.568215 0.273850
C34   C     C_R   0.026150 0.861940 0.431781 0.273857
C35   C     C_R   0.531619 0.583438 0.924773 0.294552
C36   C     C_R   0.467059 0.475089 0.078244 0.292341
C37   C     C_R   0.031886 0.133271 0.618132 0.402094
C38   C     C_R   0.968116 0.866680 0.381867 0.402152
C39   C     C_R   0.472986 0.582988 0.875126 0.356935
C40   C     C_R   0.526028 0.452359 0.126564 0.344995
C41   C     C_R   0.085862 0.939989 0.547858 0.342057
C42   C     C_R   0.914155 0.060032 0.452133 0.342015
C43   C     C_R   0.410112 0.489334 0.958260 0.345109
C44   C     C_R   0.590495 0.497974 0.040522 0.341911
C45   C     C_R   0.028395 0.949157 0.494930 -0.205522
C46   C     C_R   0.971618 0.050838 0.505062 -0.205501
C47   C     C_R   0.468923 0.493629 0.009281 -0.218019
C48   C     C_R   0.530979 0.523423 0.991216 -0.216373
N1    N     N_R   0.859331 0.178304 0.456566 0.262053
O21   O     O_R   0.801094 0.107280 0.454160 -0.370717
O22   O     O_R   0.865401 0.357627 0.452093 -0.329661
N2    N     N_R   0.140700 0.821775 0.543420 0.261906
O23   O     O_R   0.198934 0.892856 0.545852 -0.371485
O24   O     O_R   0.134652 0.642446 0.547901 -0.329685
N3    N     N_R   0.653423 0.487711 0.021346 0.246338
O25   O     O_R   0.701816 0.594787 0.049304 -0.378744
O26   O     O_R   0.663675 0.362030 0.978936 -0.323190
N4    N     N_R   0.349135 0.422162 0.972550 0.252490
O27   O     O_R   0.295652 0.522375 0.957936 -0.384185
O28   O     O_R   0.346105 0.254881 0.996093 -0.331463
O29   O     O_3   0.967375 0.783600 0.320617 -0.596212
C49   C     C_3   0.985938 0.917268 0.277053 0.292231
H9    H     H_    0.039040 0.953320 0.293416 0.158300
H10   H     H_    0.955847 0.046852 0.274603 0.066812
C50   C     C_3   0.975459 0.837660 0.206852 -0.846096
H11   H     H_    0.922117 0.811397 0.187676 0.248073
H12   H     H_    0.992906 0.938278 0.173008 0.208365
H13   H     H_    0.003376 0.705484 0.207209 0.272041
O30   O     O_3   0.032615 0.216269 0.679393 -0.596140
C51   C     C_3   0.014055 0.082526 0.722933 0.293171
H14   H     H_    0.044146 0.952950 0.725359 0.066126
H15   H     H_    0.960953 0.046479 0.706564 0.158104
C52   C     C_3   0.024534 0.162027 0.793149 -0.848269
H16   H     H_    0.996609 0.294180 0.792819 0.272032
H17   H     H_    0.007096 0.061339 0.826975 0.208460
H18   H     H_    0.077876 0.188301 0.812327 0.247735
O31   O     O_3   0.523142 0.439759 0.193501 -0.612551
C53   C     C_3   0.520294 0.250226 0.211211 0.298471
H19   H     H_    0.569351 0.183212 0.215557 0.089966
H20   H     H_    0.483607 0.170803 0.174183 0.140613
C54   C     C_3   0.500456 0.236576 0.278697 -0.782232
H21   H     H_    0.451915 0.305283 0.276358 0.289780
H22   H     H_    0.496396 0.088271 0.292421 0.205739
H23   H     H_    0.538112 0.305241 0.317659 0.231685
O32   O     O_3   0.474353 0.645824 0.811281 -0.603219
C55   C     C_3   0.477746 0.491112 0.769538 0.313402
H24   H     H_    0.435509 0.394857 0.768113 0.067004
H25   H     H_    0.524413 0.411842 0.786781 0.150560
C56   C     C_3   0.475585 0.559189 0.698566 -0.833374
H26   H     H_    0.517812 0.653499 0.697594 0.275973
H27   H     H_    0.478522 0.438915 0.665330 0.200933
H28   H     H_    0.428670 0.635295 0.679604 0.247047
N5    N     N_R   0.916571 0.222537 0.584918 0.265139
O33   O     O_R   0.868103 0.118091 0.594591 -0.335801
O34   O     O_R   0.918633 0.395377 0.603818 -0.301388
N6    N     N_R   0.083429 0.777384 0.415081 0.265190
O35   O     O_R   0.081359 0.604527 0.396200 -0.301065
O36   O     O_R   0.131899 0.881797 0.405392 -0.335241
N7    N     N_R   0.589166 0.670387 0.909369 0.279585
O37   O     O_R   0.612105 0.618829 0.857569 -0.318953
O38   O     O_R   0.613843 0.816756 0.942553 -0.312471
N8    N     N_R   0.406828 0.508915 0.100984 0.278956
O39   O     O_R   0.385665 0.391132 0.140123 -0.321711
O40   O     O_R   0.376173 0.666863 0.087365 -0.310397

loop_
_geom_bond_atom_site_label_1
_geom_bond_atom_site_label_2
_geom_bond_distance
_ccdc_geom_bond_type
C29   C38   1.400881 A    
O17   V3    1.749900 S    
N3    O25   1.301098 A    
O18   V4    1.749901 S    
O30   C51   1.414941 S    
O19   V1    1.754055 S    
O13   V1    1.979537 S    
O3    C7    1.327021 A    
C16   C24   1.457863 S    
O15   V3    1.982666 S    
N6    O35   1.301259 A    
C55   H25   1.112752 S    
C50   H11   1.109399 S    
C10   C17   1.406242 A    
C45   C46   1.433559 A    
O1    C5    1.327623 A    
C52   H17   1.110639 S    
O29   C49   1.414937 S    
O9    V1    1.973049 S    
N2    O24   1.301176 A    
C5    C27   1.453347 S    
C16   C20   1.405069 A    
C6    C28   1.453394 S    
O4    C8    1.326617 A    
C31   C44   1.414674 A    
O1    V3    1.959775 S    
C51   C52   1.520081 S    
O2    V4    1.959778 S    
C32   C39   1.406628 A    
O3    V1    1.959223 S    
C12   C16   1.404758 A    
C55   H24   1.111851 S    
C56   H28   1.110820 S    
C43   N4    1.436575 S    
N1    O22   1.301175 A    
C53   H19   1.109526 S    
C1    O15   1.339907 A    
C2    O16   1.339902 A    
O2    C6    1.327568 A    
C30   C41   1.410691 A    
O14   V2    1.979541 S    
C41   N2    1.434358 S    
C36   C40   1.411818 A    
C49   H10   1.115152 S    
C54   H23   1.110789 S    
C36   C47   1.423685 A    
O11   C7    1.329803 A    
C11   C20   1.406193 A    
C13   C21   1.457888 S    
O12   C8    1.330122 A    
C23   C28   1.216790 T    
C51   H14   1.115153 S    
O10   V2    1.973050 S    
C50   H12   1.110637 S    
N1    O21   1.301425 A    
O5    V1    1.985807 S    
C11   H7    1.083507 S    
C52   H18   1.109404 S    
C2    C32   1.489550 S    
O7    V3    1.991448 S    
C39   O32   1.385452 S    
O8    V4    1.991448 S    
C38   O29   1.385933 S    
N2    O23   1.301436 A    
C15   C19   1.405067 A    
C49   C50   1.520095 S    
N7    O38   1.301295 A    
H1    C18   1.083416 S    
C11   C15   1.404760 A    
C30   C37   1.400865 A    
C55   C56   1.521450 S    
C33   N5    1.433660 S    
O7    C3    1.341626 A    
O5    C1    1.343319 A    
C4    C30   1.489304 S    
N4    O28   1.301155 A    
C53   C54   1.520685 S    
C13   C17   1.405103 A    
O8    C4    1.341618 A    
C14   C22   1.458095 S    
O9    C5    1.329880 A    
C51   H15   1.112120 S    
C44   N3    1.436573 S    
C56   H26   1.110666 S    
H4    C19   1.083426 S    
O6    V2    1.985806 S    
N3    O26   1.301144 A    
N5    O33   1.301203 A    
C42   N1    1.434346 S    
C9    C13   1.404727 A    
N7    O37   1.300618 A    
C50   H13   1.110713 S    
C15   C23   1.457866 S    
C54   H21   1.110501 S    
O16   V4    1.982665 S    
C7    C25   1.453450 S    
C34   C45   1.428828 A    
C40   O31   1.384221 S    
C3    O13   1.339719 A    
H2    C17   1.083436 S    
C33   C46   1.428822 A    
C1    C31   1.491208 S    
C35   N7    1.436709 S    
C35   C48   1.426349 A    
C44   C48   1.432790 A    
C3    C29   1.489331 S    
N6    O36   1.301203 A    
O6    C2    1.342123 A    
N8    O40   1.301274 A    
C21   C26   1.216736 T    
O11   V3    1.973704 S    
N8    O39   1.300446 A    
C37   O30   1.385929 S    
C29   C42   1.410691 A    
O12   V4    1.973701 S    
C12   C19   1.406187 A    
C52   H16   1.110714 S    
C14   C18   1.405099 A    
C24   C27   1.216790 T    
O10   C6    1.329946 A    
C36   N8    1.437239 S    
O31   C53   1.414145 S    
C10   C14   1.404777 A    
C9    C18   1.406187 A    
N4    O27   1.301086 A    
C34   C38   1.406903 A    
C33   C37   1.406882 A    
O20   V2    1.754054 S    
C32   C43   1.412086 A    
C34   N6    1.433657 S    
C35   C39   1.412445 A    
C9    H5    1.083516 S    
C49   H9    1.112122 S    
C53   H20   1.115088 S    
C56   H27   1.110775 S    
C47   C48   1.423491 A    
C10   H6    1.083456 S    
C12   H8    1.083506 S    
C31   C40   1.406147 A    
C8    C26   1.453278 S    
C42   C46   1.434704 A    
C4    O14   1.339706 A    
H3    C20   1.083428 S    
N5    O34   1.301258 A    
C41   C45   1.434726 A    
O32   C55   1.414631 S    
C43   C47   1.430870 A    
O4    V2    1.959221 S    
C54   H22   1.110103 S    
C22   C25   1.216967 T    
