data_mof_unit_10141.cif
_audit_creation_date              2012-12-11T14:38:12-0500
_audit_creation_method            fapswitch 2.2
_symmetry_space_group_name_H-M    P1
_symmetry_Int_Tables_number       1
_space_group_crystal_system       triclinic
_cell_length_a                    19.787141
_cell_length_b                    11.179025
_cell_length_c                    19.712596
_cell_angle_alpha                 90.39792
_cell_angle_beta                  96.281859
_cell_angle_gamma                 90.399296
_cell_volume                      4334.02764779

loop_
_atom_site_label
_atom_site_type_symbol
_atom_type_description
_atom_site_fract_x
_atom_site_fract_y
_atom_site_fract_z
_atom_type_partial_charge
C1    C     C_R   0.725195 0.949446 0.358770 0.581340
C2    C     C_R   0.274956 0.951934 0.640537 0.613853
C3    C     C_R   0.226327 0.449939 0.358508 0.585808
C4    C     C_R   0.775792 0.453086 0.639528 0.550668
C5    C     C_3   0.697219 0.482700 0.452848 -0.268692
C6    C     C_3   0.305211 0.468949 0.548237 -0.271110
C7    C     C_3   0.195620 0.974318 0.452166 -0.272807
C8    C     C_3   0.791819 0.971809 0.549087 -0.264592
C9    C     C_3   0.836229 0.434127 0.535440 0.083843
C10   C     C_3   0.174895 0.385472 0.458095 0.079399
C11   C     C_3   0.329083 0.902746 0.538588 0.077969
C12   C     C_3   0.669191 0.866858 0.455616 0.083800
C13   C     C_3   0.740363 0.293150 0.550426 0.077026
C14   C     C_3   0.284633 0.289065 0.434945 0.094183
C15   C     C_3   0.225981 0.785170 0.561533 0.088340
C16   C     C_3   0.788667 0.796559 0.436878 0.097109
C17   C     C_3   0.764456 0.421264 0.566358 -0.038766
C18   C     C_3   0.245155 0.407143 0.428748 -0.040059
C19   C     C_3   0.258520 0.910553 0.569712 -0.041245
C20   C     C_3   0.739794 0.903039 0.429085 -0.028533
C21   C     C_3   0.749265 0.394431 0.433127 -0.060218
C22   C     C_3   0.265353 0.352211 0.559162 -0.057900
C23   C     C_3   0.236586 0.861302 0.439138 -0.053412
C24   C     C_3   0.760798 0.847925 0.559500 -0.059567
C25   C     C_3   0.822206 0.445782 0.456568 0.116345
C26   C     C_3   0.187080 0.383415 0.534543 0.132247
C27   C     C_3   0.314897 0.901395 0.461703 0.140423
C28   C     C_3   0.680199 0.856944 0.532841 0.110389
C29   C     C_3   0.735222 0.278792 0.471732 -0.246359
C30   C     C_3   0.302028 0.261971 0.512507 -0.247090
C31   C     C_3   0.200674 0.768074 0.485196 -0.267188
C32   C     C_3   0.802655 0.766726 0.514335 -0.238325
C33   C     C_3   0.471948 0.310273 0.966728 -0.116211
C34   C     C_3   0.486371 0.306548 0.043826 -0.114709
C35   C     C_3   0.972015 0.810262 0.966713 -0.117407
C36   C     C_3   0.986426 0.806554 0.043809 -0.114931
C37   C     C_3   0.410294 0.107222 0.977730 -0.144686
C38   C     C_3   0.555577 0.113832 0.025636 -0.133830
C39   C     C_3   0.910309 0.607255 0.977732 -0.144620
C40   C     C_3   0.055592 0.613787 0.025635 -0.134946
C41   C     C_3   0.529910 0.111016 0.949182 -0.229877
C42   C     C_3   0.436972 0.098570 0.055087 -0.249034
C43   C     C_3   0.029921 0.610954 0.949180 -0.229397
C44   C     C_3   0.936983 0.598609 0.055087 -0.249361
C45   C     C_R   0.539219 0.180742 0.340177 0.582769
C46   C     C_R   0.462801 0.180368 0.661041 0.567823
C47   C     C_R   0.062412 0.684129 0.347509 0.534176
C48   C     C_R   0.962948 0.680614 0.660972 0.575026
C49   C     C_3   0.461974 0.178702 0.937499 0.004403
C50   C     C_3   0.502614 0.174541 0.068526 0.010957
C51   C     C_3   0.962001 0.678692 0.937495 0.003380
C52   C     C_3   0.002638 0.674541 0.068520 0.009262
C53   C     C_1   0.763837 0.431506 0.906256 0.028837
C54   C     C_1   0.222140 0.467085 0.085999 0.041185
C55   C     C_1   0.263821 0.931463 0.906241 0.029880
C56   C     C_1   0.722125 0.967128 0.085993 0.041140
C57   C     C_1   0.753902 0.420847 0.038442 0.017012
C58   C     C_1   0.241428 0.439211 0.957076 0.006165
C59   C     C_1   0.253884 0.920801 0.038427 0.016934
C60   C     C_1   0.741418 0.939237 0.957072 0.004353
C61   C     C_1   0.757725 0.424471 0.966700 0.017041
C62   C     C_1   0.231739 0.454340 0.026815 0.017504
C63   C     C_1   0.257705 0.924417 0.966684 0.015843
C64   C     C_1   0.731725 0.954382 0.026809 0.017826
C65   C     C_1   0.748415 0.405053 0.098467 0.036842
C66   C     C_1   0.250415 0.413934 0.898999 0.029138
C67   C     C_1   0.248403 0.905021 0.098455 0.033851
C68   C     C_1   0.750411 0.913942 0.898999 0.026815
C69   C     C_R   0.739698 0.363030 0.360432 0.584005
C70   C     C_R   0.274050 0.315364 0.632030 0.538802
C71   C     C_R   0.226970 0.820310 0.367636 0.537920
C72   C     C_R   0.773493 0.814125 0.632300 0.542187
C73   C     C_R   0.707469 0.991654 0.154732 0.555650
C74   C     C_R   0.278313 0.955529 0.837291 0.573007
C75   C     C_R   0.207478 0.491630 0.154733 0.561322
C76   C     C_R   0.778316 0.455539 0.837296 0.535853
C77   C     C_R   0.531274 0.178947 0.141438 0.548465
C78   C     C_R   0.439514 0.182808 0.863117 0.540933
C79   C     C_R   0.031284 0.678948 0.141435 0.555845
C80   C     C_R   0.939529 0.682805 0.863119 0.541988
C81   C     C_R   0.737377 0.361950 0.165456 0.563613
C82   C     C_R   0.262727 0.363170 0.834167 0.565651
C83   C     C_R   0.237374 0.861943 0.165453 0.571560
C84   C     C_R   0.762729 0.863162 0.834171 0.572368
C85   C     C_1   0.483516 0.172662 0.593982 0.106896
C86   C     C_1   0.520461 0.173528 0.408019 0.149599
C87   C     C_1   0.988884 0.674137 0.595896 0.138525
C88   C     C_1   0.043449 0.678376 0.415616 0.086244
C89   C     C_1   0.508372 0.170543 0.466545 0.151920
C90   C     C_1   0.495074 0.170061 0.535347 0.119467
C91   C     C_1   0.027846 0.676230 0.473142 0.111681
C92   C     C_1   0.007104 0.673798 0.539453 0.142991
C93   C     C_3   0.706481 0.501884 0.529935 -0.254710
C94   C     C_3   0.293798 0.500925 0.471694 -0.264719
C95   C     C_3   0.204764 0.998775 0.530028 -0.275560
C96   C     C_3   0.771537 0.006379 0.474910 -0.289970
Cr1   Cr    Cr6+3 0.765780 0.160710 0.267420 1.111732
Cr2   Cr    Cr6+3 0.234220 0.160710 0.732580 1.132276
Cr3   Cr    Cr6+3 0.265780 0.660710 0.267420 1.100784
Cr4   Cr    Cr6+3 0.734220 0.660710 0.732580 1.116518
Cr5   Cr    Cr6+3 0.612200 0.009560 0.248850 1.078898
Cr6   Cr    Cr6+3 0.387800 0.009560 0.751150 1.066459
Cr7   Cr    Cr6+3 0.112200 0.509560 0.248850 1.056648
Cr8   Cr    Cr6+3 0.887800 0.509560 0.751150 1.063898
Cr9   Cr    Cr6+3 0.616030 0.323720 0.248510 1.089729
Cr10  Cr    Cr6+3 0.383970 0.323720 0.751490 1.062472
Cr11  Cr    Cr6+3 0.116030 0.823720 0.248510 1.089796
Cr12  Cr    Cr6+3 0.883970 0.823720 0.751490 1.076723
H1    H     H_    0.710318 0.596827 0.543324 0.185842
H2    H     H_    0.281956 0.594318 0.464288 0.144431
H3    H     H_    0.210651 0.093862 0.542531 0.183454
H4    H     H_    0.728884 0.066595 0.476453 0.104181
H5    H     H_    0.778576 0.224088 0.460707 0.155441
H6    H     H_    0.297039 0.167581 0.523221 0.042442
H7    H     H_    0.195402 0.675542 0.466979 0.044416
H8    H     H_    0.795917 0.673070 0.522871 0.026066
H9    H     H_    0.424714 0.361844 0.951434 0.129644
H10   H     H_    0.530951 0.366162 0.059265 0.154821
H11   H     H_    0.924799 0.861879 0.951410 0.129128
H12   H     H_    0.031019 0.866140 0.059249 0.154178
H13   H     H_    0.398716 0.128187 0.089009 0.152781
H14   H     H_    0.567336 0.149322 0.916690 0.164132
H15   H     H_    0.898732 0.628260 0.089006 0.152428
H16   H     H_    0.067355 0.649212 0.916680 0.167719
H17   H     H_    0.522615 0.015914 0.932558 0.134506
H18   H     H_    0.447829 0.003476 0.068347 0.123531
H19   H     H_    0.022602 0.515850 0.932567 0.134732
H20   H     H_    0.947821 0.503511 0.068354 0.123717
H21   H     H_    0.563428 0.019792 0.042903 0.120864
H22   H     H_    0.404837 0.014745 0.956511 0.122850
H23   H     H_    0.063431 0.519750 0.042913 0.121035
H24   H     H_    0.904838 0.514774 0.956520 0.124672
H25   H     H_    0.657298 0.480307 0.547664 0.262484
H26   H     H_    0.343870 0.503134 0.452300 0.261253
H27   H     H_    0.154441 0.983462 0.547696 0.249436
H28   H     H_    0.816165 0.047342 0.454112 0.239003
H29   H     H_    0.644598 0.450068 0.436211 0.221078
H30   H     H_    0.360715 0.459814 0.564269 0.205638
H31   H     H_    0.140664 0.962762 0.433696 0.214476
H32   H     H_    0.848275 0.973059 0.560261 0.207234
H33   H     H_    0.705898 0.566323 0.427584 0.190517
H34   H     H_    0.288281 0.539638 0.581179 0.173907
H35   H     H_    0.212598 0.049456 0.423289 0.184436
H36   H     H_    0.772600 0.037391 0.584583 0.204351
H37   H     H_    0.356992 0.988462 0.551833 0.106340
H38   H     H_    0.635473 0.946387 0.446415 0.150055
H39   H     H_    0.859529 0.520693 0.553933 0.099718
H40   H     H_    0.143671 0.467459 0.446600 0.114392
H41   H     H_    0.314971 0.998372 0.449720 0.119846
H42   H     H_    0.671360 0.948887 0.549774 0.187933
H43   H     H_    0.818249 0.542734 0.447165 0.105987
H44   H     H_    0.184712 0.479240 0.548306 0.138761
H45   H     H_    0.778408 0.229807 0.569773 0.193238
H46   H     H_    0.253375 0.216589 0.412516 0.169600
H47   H     H_    0.262958 0.716222 0.571720 0.171268
H48   H     H_    0.764206 0.719670 0.409216 0.143259
H49   H     H_    0.685362 0.239262 0.450817 0.143803
H50   H     H_    0.357924 0.271390 0.525369 0.151022
H51   H     H_    0.145712 0.787040 0.481491 0.139065
H52   H     H_    0.857773 0.778012 0.531653 0.156186
O1    O     O_R   0.783100 0.287550 0.345460 -0.463026
O2    O     O_R   0.216900 0.287550 0.654540 -0.409689
O3    O     O_R   0.283100 0.787550 0.345460 -0.439872
O4    O     O_R   0.716900 0.787550 0.654540 -0.410446
O5    O     O_R   0.554710 0.081900 0.170950 -0.520593
O6    O     O_R   0.445290 0.081900 0.829050 -0.505093
O7    O     O_R   0.054710 0.581900 0.170950 -0.517879
O8    O     O_R   0.945290 0.581900 0.829050 -0.502084
O9    O     O_R   0.545650 0.284910 0.163740 -0.508536
O10   O     O_R   0.454350 0.284910 0.836260 -0.496025
O11   O     O_R   0.045650 0.784910 0.163740 -0.505676
O12   O     O_R   0.954350 0.784910 0.836260 -0.493574
O13   O     O_R   0.677950 0.374280 0.185410 -0.488377
O14   O     O_R   0.322050 0.374280 0.814590 -0.512755
O15   O     O_R   0.177950 0.874280 0.185410 -0.484907
O16   O     O_R   0.822050 0.874280 0.814590 -0.510723
O17   O     O_3   0.664670 0.164660 0.254930 -0.328122
O18   O     O_3   0.335330 0.164660 0.745070 -0.342911
O19   O     O_3   0.164670 0.664660 0.254930 -0.353793
O20   O     O_3   0.835330 0.664660 0.745070 -0.339198
O21   O     O_R   0.760020 0.037400 0.337700 -0.465328
O22   O     O_R   0.239980 0.037400 0.662300 -0.486435
O23   O     O_R   0.260020 0.537400 0.337700 -0.484056
O24   O     O_R   0.739980 0.537400 0.662300 -0.493950
O25   O     O_R   0.666600 0.921990 0.332020 -0.459260
O26   O     O_R   0.333400 0.921990 0.667980 -0.459625
O27   O     O_R   0.166600 0.421990 0.332020 -0.482859
O28   O     O_R   0.833400 0.421990 0.667980 -0.461833
O29   O     O_R   0.557260 0.082670 0.312540 -0.481055
O30   O     O_R   0.442740 0.082670 0.687460 -0.483096
O31   O     O_R   0.057260 0.582670 0.312540 -0.462827
O32   O     O_R   0.942740 0.582670 0.687460 -0.475534
O33   O     O_R   0.548410 0.285740 0.316480 -0.473325
O34   O     O_R   0.451590 0.285740 0.683520 -0.497042
O35   O     O_R   0.048410 0.785740 0.316480 -0.446707
O36   O     O_R   0.951590 0.785740 0.683520 -0.490718
O37   O     O_R   0.680500 0.375040 0.327000 -0.502674
O38   O     O_R   0.319500 0.375040 0.673000 -0.499824
O39   O     O_R   0.180500 0.875040 0.327000 -0.499484
O40   O     O_R   0.819500 0.875040 0.673000 -0.490764
O41   O     O_R   0.780350 0.286720 0.192720 -0.503969
O42   O     O_R   0.219650 0.286720 0.807280 -0.479666
O43   O     O_R   0.280350 0.786720 0.192720 -0.499084
O44   O     O_R   0.719650 0.786720 0.807280 -0.476809
O45   O     O_R   0.757470 0.036630 0.196110 -0.460697
O46   O     O_R   0.242530 0.036630 0.803890 -0.463358
O47   O     O_R   0.257470 0.536630 0.196110 -0.455581
O48   O     O_R   0.742530 0.536630 0.803890 -0.476803
O49   O     O_R   0.663840 0.921160 0.179280 -0.505091
O50   O     O_R   0.336160 0.921160 0.820720 -0.518348
O51   O     O_R   0.163840 0.421160 0.179280 -0.507510
O52   O     O_R   0.836160 0.421160 0.820720 -0.522277
S1    S     S_3+6 0.902425 0.322974 0.568077 0.062226
O53   O     O_2   0.881906 0.236180 0.620352 -0.340818
O54   O     O_2   0.929956 0.248474 0.514366 -0.122220
O55   O     O_3   0.965788 0.404523 0.608562 -0.443184
H53   H     H_    0.979081 0.363231 0.652258 0.377767
S2    S     S_3+6 0.119018 0.263045 0.416621 0.066919
O56   O     O_2   0.146982 0.202552 0.357283 -0.342036
O57   O     O_2   0.101082 0.167179 0.464075 -0.203398
O58   O     O_3   0.046115 0.328366 0.385279 -0.392059
H54   H     H_    0.043764 0.321285 0.334967 0.356343
S3    S     S_3+6 0.389845 0.786774 0.576036 0.059970
O59   O     O_2   0.365008 0.716026 0.633317 -0.354203
O60   O     O_2   0.411308 0.697071 0.526246 -0.169458
O61   O     O_3   0.458277 0.864379 0.610160 -0.420082
H55   H     H_    0.467961 0.835867 0.657674 0.372869
S4    S     S_3+6 0.616575 0.749587 0.407852 0.048405
O62   O     O_2   0.650892 0.696321 0.350320 -0.343536
O63   O     O_2   0.594262 0.650601 0.451387 -0.219822
O64   O     O_3   0.545945 0.818086 0.372668 -0.415740
H56   H     H_    0.532174 0.774450 0.329411 0.354754
S5    S     S_3+6 0.891712 0.416767 0.405292 0.117538
O65   O     O_2   0.876717 0.479250 0.338011 -0.279276
O66   O     O_2   0.955011 0.469749 0.441526 -0.177897
O67   O     O_3   0.905415 0.270892 0.389294 -0.397416
H57   H     H_    0.917427 0.267205 0.341844 0.361389
S6    S     S_3+6 0.110273 0.343031 0.573453 0.120110
O68   O     O_2   0.107414 0.412922 0.638523 -0.230531
O69   O     O_2   0.050956 0.377899 0.524386 -0.124708
O70   O     O_3   0.104749 0.196645 0.591931 -0.468374
H58   H     H_    0.058787 0.185859 0.606547 0.384044
S7    S     S_3+6 0.390171 0.875793 0.416226 0.134497
O71   O     O_2   0.381229 0.936414 0.347923 -0.245624
O72   O     O_2   0.450390 0.932591 0.456575 -0.188536
O73   O     O_3   0.405318 0.729852 0.402058 -0.407281
H59   H     H_    0.414266 0.723408 0.353722 0.357096
S8    S     S_3+6 0.605575 0.803784 0.572039 0.116682
O74   O     O_2   0.597183 0.881388 0.633270 -0.234114
O75   O     O_2   0.543491 0.817620 0.522673 -0.090208
O76   O     O_3   0.610401 0.660689 0.597220 -0.500311
H60   H     H_    0.566133 0.643334 0.614294 0.380438
C97   C     C_1   0.528702 0.377246 0.939633 0.227145
N1    N     N_1   0.572754 0.429162 0.918795 -0.256514
C98   C     C_1   0.429558 0.359713 0.076722 0.203518
N2    N     N_1   0.385492 0.401237 0.102711 -0.252956
C99   C     C_1   0.028794 0.877156 0.939611 0.228555
N3    N     N_1   0.072865 0.929004 0.918764 -0.248081
C100  C     C_1   0.929617 0.859773 0.076688 0.204272
N4    N     N_1   0.885552 0.901343 0.102660 -0.256232
C101  C     C_1   0.341951 0.158254 0.970965 0.152804
N5    N     N_1   0.287203 0.194318 0.967305 -0.301670
C102  C     C_1   0.622473 0.170077 0.033930 0.168803
N6    N     N_1   0.676272 0.210660 0.038345 -0.327031
C103  C     C_1   0.841973 0.658308 0.970964 0.155173
N7    N     N_1   0.787227 0.694381 0.967307 -0.300390
C104  C     C_1   0.122493 0.670011 0.033921 0.168935
N8    N     N_1   0.176296 0.710579 0.038330 -0.326341
S9    S     S_3+6 0.670065 0.237895 0.592875 -0.043190
O77   O     O_2   0.619537 0.330413 0.609244 -0.285708
O78   O     O_2   0.634085 0.143625 0.548419 -0.347473
O79   O     O_3   0.701487 0.173259 0.666340 -0.479221
H61   H     H_    0.721421 0.239759 0.695570 0.352566
S10   S     S_3+6 0.356572 0.284699 0.386244 -0.023552
O80   O     O_2   0.415394 0.357819 0.419007 -0.284888
O81   O     O_2   0.377674 0.157197 0.382553 -0.287416
O82   O     O_3   0.336471 0.332504 0.305919 -0.457881
H62   H     H_    0.303635 0.272428 0.284483 0.355610
S11   S     S_3+6 0.165543 0.755422 0.621801 -0.016807
O83   O     O_2   0.108825 0.844462 0.617303 -0.271830
O84   O     O_2   0.136293 0.633116 0.608792 -0.299211
O85   O     O_3   0.205333 0.758752 0.701702 -0.470574
H63   H     H_    0.239204 0.693746 0.702879 0.358219
S12   S     S_3+6 0.866331 0.818525 0.398288 0.006215
O86   O     O_2   0.913437 0.904090 0.439652 -0.245276
O87   O     O_2   0.899870 0.699599 0.395987 -0.268869
O88   O     O_3   0.852304 0.867985 0.317676 -0.449427
H64   H     H_    0.826722 0.802521 0.291998 0.352579

loop_
_geom_bond_atom_site_label_1
_geom_bond_atom_site_label_2
_ccdc_geom_bond_type
C8    H32   S    
C34   H10   S    
C39   C51   S    
C26   H44   S    
C73   O45   A    
C58   C62   S    
C8    C24   S    
C83   O15   A    
Cr10  O14   S    
S10   O82   S    
Cr4   O44   S    
C14   C18   S    
C35   H11   S    
C35   C36   S    
C8    C96   S    
C13   C29   S    
C87   C92   T    
C43   C51   S    
Cr11  O35   S    
Cr4   O48   S    
S3    O61   S    
C9    C25   S    
C102  N6    T    
C96   H28   S    
Cr11  O11   S    
S1    O53   D    
C49   C78   S    
C15   C19   S    
C96   H4    S    
S6    O70   S    
C11   C19   S    
O85   H63   S    
Cr6   O26   S    
C36   C100  S    
Cr9   O9    S    
C12   C28   S    
C3    O27   A    
C73   O49   A    
S12   O86   D    
C69   O1    A    
O70   H58   S    
C93   H25   S    
C28   S8    S    
C97   N1    T    
C12   S4    S    
C72   O40   A    
C39   H24   S    
C25   H43   S    
C77   O5    A    
S7    O71   D    
C6    C22   S    
C10   H40   S    
Cr12  O16   S    
C78   O10   A    
C37   H22   S    
Cr12  O20   S    
C3    C18   S    
S10   O80   D    
C2    O22   A    
S11   O85   S    
C79   O11   A    
C37   C42   S    
C35   C99   S    
C51   C80   S    
S3    O59   D    
S10   O81   D    
C59   C67   T    
C70   O38   A    
C55   C74   S    
C75   O47   A    
C58   C66   T    
C40   C43   S    
C82   O14   A    
O79   H61   S    
C6    C94   S    
C55   C63   T    
C16   H48   S    
Cr8   O20   S    
Cr2   O46   S    
S11   O83   D    
C56   C64   T    
C28   H42   S    
C23   C27   S    
C6    H34   S    
C18   C94   S    
C93   H1    S    
C103  N7    T    
C12   H38   S    
C36   C52   S    
S8    O76   S    
C42   H13   S    
Cr10  O38   S    
C46   C85   S    
Cr3   O43   S    
C5    C93   S    
C76   O52   A    
Cr9   O37   S    
C20   C96   S    
C25   S5    S    
C29   H5    S    
C27   H41   S    
Cr9   O13   S    
S9    O77   D    
C48   O36   A    
C69   O37   A    
C26   S6    S    
Cr10  O10   S    
Cr12  O36   S    
C2    O26   A    
C53   C61   T    
C46   O30   A    
Cr8   O8    S    
Cr5   O25   S    
C70   O2    A    
C41   C49   S    
S4    O62   D    
Cr2   O2    S    
S8    O75   D    
C46   O34   A    
S1    O54   D    
C24   C72   S    
C45   O33   A    
C33   H9    S    
Cr8   O28   S    
C85   C90   T    
S6    O69   D    
C78   O6    A    
C34   C50   S    
C22   C70   S    
Cr1   O21   S    
C68   C84   S    
C38   H21   S    
C41   H17   S    
C80   O8    A    
O76   H60   S    
Cr7   O27   S    
O55   H53   S    
C38   C41   S    
Cr10  O34   S    
O67   H57   S    
S6    O68   D    
C11   S3    S    
C91   C92   S    
C82   O42   A    
C1    O21   A    
C11   H37   S    
C29   H49   S    
C54   C62   T    
Cr5   O49   S    
C40   C52   S    
C21   C29   S    
C15   C31   S    
C9    H39   S    
C32   H8    S    
C21   C69   S    
Cr1   O17   S    
C81   O13   A    
C41   H14   S    
Cr12  O40   S    
Cr9   O33   S    
C24   C32   S    
Cr3   O19   S    
O58   H54   S    
C13   S9    S    
C66   C82   S    
C37   C49   S    
C14   S10   S    
C5    H33   S    
O88   H64   S    
C88   C91   T    
C11   C27   S    
C16   C20   S    
S7    O73   S    
C75   O51   A    
C12   C20   S    
C95   H27   S    
C10   C26   S    
C72   O4    A    
C48   C87   S    
C5    C21   S    
Cr4   O4    S    
C43   H19   S    
C67   C83   S    
C4    O24   A    
C71   O39   A    
S5    O66   D    
C6    H30   S    
C13   H45   S    
C1    O25   A    
C71   O3    A    
C42   C50   S    
Cr3   O3    S    
C4    C17   S    
C9    C17   S    
O64   H56   S    
C40   H23   S    
C74   O50   A    
Cr1   O1    S    
S9    O78   D    
C35   C51   S    
S4    O63   D    
Cr6   O18   S    
O82   H62   S    
C59   C63   S    
C53   C76   S    
C17   C93   S    
C80   O12   A    
Cr7   O51   S    
C100  N4    T    
Cr4   O20   S    
C50   C77   S    
C79   O7    A    
C99   N3    T    
C83   O43   A    
C19   C95   S    
S8    O74   D    
C10   S2    S    
S2    O58   S    
Cr2   O18   S    
C30   H6    S    
S1    O55   S    
C47   O35   A    
C30   H50   S    
C77   O9    A    
C21   C25   S    
O73   H59   S    
C44   H20   S    
C1    C20   S    
C56   C73   S    
C22   C30   S    
Cr11  O19   S    
C2    C19   S    
C31   H51   S    
Cr11  O39   S    
C15   H47   S    
Cr2   O42   S    
S12   O88   S    
Cr6   O50   S    
C7    H35   S    
C24   C28   S    
Cr9   O17   S    
C33   C49   S    
C86   C89   T    
C27   S7    S    
C81   O41   A    
C104  N8    T    
C39   C103  S    
C57   C61   S    
C39   C44   S    
C38   C50   S    
Cr1   O41   S    
Cr2   O22   S    
C16   C32   S    
C7    C95   S    
Cr4   O24   S    
C44   H15   S    
Cr5   O29   S    
C38   C102  S    
C94   H26   S    
C13   C17   S    
S2    O57   D    
C60   C64   S    
C9    S1    S    
C47   C88   S    
C4    O28   A    
S12   O87   D    
C45   C86   S    
C89   C90   S    
C14   C30   S    
C5    H29   S    
C94   H2    S    
Cr7   O7    S    
Cr5   O5    S    
S11   O84   D    
C7    H31   S    
C16   S12   S    
S3    O60   D    
C44   C52   S    
S2    O56   D    
C101  N5    T    
Cr11  O15   S    
C10   C18   S    
Cr12  O12   S    
C7    C23   S    
C74   O46   A    
C15   S11   S    
Cr6   O30   S    
C33   C34   S    
Cr7   O19   S    
C31   H7    S    
C47   O31   A    
C36   H12   S    
S5    O67   S    
C37   C101  S    
C48   O32   A    
C32   H52   S    
Cr5   O17   S    
C42   H18   S    
C54   C75   S    
C8    H36   S    
C40   C104  S    
C76   O48   A    
Cr7   O31   S    
C60   C68   T    
C23   C71   S    
Cr6   O6    S    
O61   H55   S    
C22   C26   S    
S9    O79   S    
Cr3   O47   S    
C33   C97   S    
C45   O29   A    
Cr8   O52   S    
C65   C81   S    
C34   C98   S    
C95   H3    S    
Cr3   O23   S    
S7    O72   D    
Cr1   O45   S    
C84   O44   A    
C84   O16   A    
C3    O23   A    
C43   H16   S    
Cr10  O18   S    
S4    O64   S    
C14   H46   S    
C98   N2    T    
S5    O65   D    
C23   C31   S    
C57   C65   T    
C52   C79   S    
Cr8   O32   S    
