data_mof_unit_63148.cif
_audit_creation_date              2012-12-10T18:20:33-0500
_audit_creation_method            fapswitch 2.2
_symmetry_space_group_name_H-M    P1
_symmetry_Int_Tables_number       1
_space_group_crystal_system       triclinic
_cell_length_a                    21.521697
_cell_length_b                    21.520463
_cell_length_c                    22.228622
_cell_angle_alpha                 119.461696
_cell_angle_beta                  119.472917
_cell_angle_gamma                 90.294768
_cell_volume                      7377.52512747

loop_
_atom_site_label
_atom_site_type_symbol
_atom_type_description
_atom_site_fract_x
_atom_site_fract_y
_atom_site_fract_z
_atom_type_partial_charge
C1    C     C_R   0.497713 0.118891 0.495325 0.839526
C2    C     C_3   0.232556 0.802106 0.952777 0.399638
C3    C     C_3   0.694375 0.156193 0.948287 0.032690
C4    C     C_3   0.276674 0.850526 0.052293 0.031632
C5    C     C_1   0.838694 0.333459 0.174256 -0.075120
C6    C     C_1   0.161225 0.665989 0.825658 -0.067866
C7    C     C_1   0.664391 0.159238 0.825641 -0.039433
C8    C     C_1   0.334781 0.840236 0.174362 -0.052364
C9    C     C_1   0.626643 0.123863 0.750730 -0.204297
C10   C     C_1   0.373186 0.875913 0.249284 -0.203157
C11   C     C_3   0.415366 0.171822 0.414605 0.434210
C12   C     C_R   0.502275 0.881107 0.504671 0.839000
C13   C     C_3   0.584380 0.828508 0.585949 0.431995
C14   C     C_3   0.423887 0.242943 0.413452 -0.371659
C15   C     C_3   0.575876 0.757267 0.586925 -0.370907
C16   C     C_R   0.581383 0.081164 0.661950 0.896072
C17   C     C_R   0.418610 0.918844 0.338059 0.897116
C18   C     C_3   0.508646 0.250978 0.575325 -0.506692
C19   C     C_3   0.492016 0.749203 0.425059 -0.505772
C20   C     C_3   0.563647 0.212892 0.490819 0.033178
C21   C     C_3   0.435991 0.786771 0.508539 0.033478
C22   C     C_3   0.495135 0.185278 0.491232 0.141632
C23   C     C_3   0.709962 0.202205 0.917159 0.175376
C24   C     C_3   0.504856 0.814756 0.508831 0.141510
C25   C     C_3   0.496442 0.309127 0.497029 0.083112
C26   C     C_3   0.503625 0.690908 0.503031 0.083248
C27   C     C_3   0.499656 0.320722 0.573276 -0.424369
C28   C     C_3   0.501086 0.679521 0.427204 -0.425307
C29   C     C_3   0.566586 0.289501 0.501111 -0.430177
C30   C     C_3   0.433124 0.710151 0.498213 -0.429852
C31   C     C_3   0.751323 0.588410 0.567751 0.440861
C32   C     C_3   0.248746 0.411581 0.432376 0.440808
C33   C     C_3   0.795883 0.444032 0.520688 -0.383024
C34   C     C_3   0.288031 0.796896 0.082817 0.168633
C35   C     C_3   0.204036 0.555875 0.479165 -0.383065
C36   C     C_3   0.725849 0.446245 0.523630 -0.006232
C37   C     C_3   0.274076 0.553669 0.476233 -0.006232
C38   C     C_3   0.692278 0.504444 0.504448 0.142459
C39   C     C_3   0.307725 0.495567 0.495561 0.142358
C40   C     C_3   0.744317 0.478946 0.416405 -0.434810
C41   C     C_3   0.255698 0.521181 0.583635 -0.434657
C42   C     C_3   0.672108 0.473445 0.414346 -0.484356
C43   C     C_3   0.327908 0.526687 0.585694 -0.484245
C44   C     C_R   0.879645 0.500514 0.501384 0.855911
C45   C     C_3   0.730813 0.319900 0.047728 -0.020145
C46   C     C_R   0.120347 0.499479 0.498602 0.855637
C47   C     C_R   0.919317 0.418583 0.338044 0.907800
C48   C     C_R   0.080715 0.581393 0.661931 0.908597
C49   C     C_R   0.377759 0.497576 0.498938 0.860704
C50   C     C_R   0.622242 0.502435 0.501065 0.860637
C51   C     C_R   0.496945 0.378182 0.499330 0.864078
C52   C     C_R   0.503105 0.621826 0.500685 0.863916
C53   C     C_3   0.812423 0.501181 0.502833 0.078987
C54   C     C_3   0.187570 0.498815 0.497156 0.079060
C55   C     C_3   0.825558 0.581473 0.573321 -0.388893
C56   C     C_3   0.278957 0.690230 0.953185 -0.008759
C57   C     C_3   0.174489 0.418493 0.426756 -0.388946
C58   C     C_3   0.687553 0.274156 0.950595 -0.490818
C59   C     C_3   0.329328 0.744627 0.050327 -0.496031
C60   C     C_3   0.795328 0.225699 0.951897 -0.411711
C61   C     C_3   0.210754 0.747366 0.048188 -0.402862
C62   C     C_3   0.845428 0.285787 0.049368 0.387308
C63   C     C_3   0.158656 0.698722 0.949710 0.372554
C64   C     C_1   0.875582 0.372868 0.249232 -0.213086
C65   C     C_1   0.124426 0.626964 0.750694 -0.216940
C66   C     C_3   0.721250 0.638489 0.534747 -0.957256
C67   C     C_3   0.793305 0.284923 0.082423 0.234002
C68   C     C_3   0.278892 0.361633 0.465554 -0.957108
C69   C     C_3   0.921168 0.269924 0.091730 -0.883155
C70   C     C_3   0.083549 0.717695 0.919318 -0.878706
C71   C     C_3   0.685143 0.071430 0.895895 -0.948785
C72   C     C_3   0.244640 0.911580 0.090051 -0.945949
C73   C     C_3   0.710676 0.196304 0.086128 -0.909903
C74   C     C_3   0.287771 0.818456 0.932102 -0.915774
C75   C     C_3   0.676445 0.333383 0.075879 -0.937192
C76   C     C_3   0.324483 0.675685 0.913400 -0.917338
C77   C     C_3   0.812021 0.159189 0.070081 -0.861540
C78   C     C_3   0.206271 0.714001 0.917519 0.240840
C79   C     C_3   0.165909 0.827813 0.909494 -0.868706
C80   C     C_3   0.348728 0.162613 0.423427 -0.870591
C81   C     C_3   0.651473 0.838304 0.577989 -0.871861
C82   C     C_3   0.389922 0.099658 0.328319 -0.941982
C83   C     C_3   0.609044 0.900528 0.672021 -0.937250
C84   C     C_3   0.568233 0.156942 0.416409 -0.909211
C85   C     C_3   0.430788 0.842461 0.582554 -0.909002
C86   C     C_3   0.770213 0.633550 0.658270 -0.865229
C87   C     C_3   0.229882 0.366327 0.341866 -0.865388
C88   C     C_3   0.742545 0.452549 0.602785 -0.957605
C89   C     C_3   0.753152 0.199676 0.046909 0.394692
C90   C     C_3   0.257348 0.547250 0.397014 -0.957442
C91   C     C_3   0.871984 0.364578 0.067300 -0.922568
C92   C     C_3   0.133353 0.613648 0.916925 -0.922217
H1    H     H_    0.637115 0.154925 0.935153 0.159869
H2    H     H_    0.429147 0.710043 0.546262 0.174687
H3    H     H_    0.151382 0.374432 0.429720 0.182958
H4    H     H_    0.797176 0.496115 0.660179 0.248821
H5    H     H_    0.696596 0.461852 0.611998 0.271455
H6    H     H_    0.747896 0.398296 0.595432 0.233900
H7    H     H_    0.202758 0.503599 0.339639 0.248808
H8    H     H_    0.251898 0.601444 0.404247 0.233960
H9    H     H_    0.303329 0.538004 0.387847 0.271471
H10   H     H_    0.682177 0.389459 0.470939 0.146340
H11   H     H_    0.317713 0.610485 0.528865 0.146291
H12   H     H_    0.635385 0.413218 0.369167 0.184699
H13   H     H_    0.566686 0.265724 0.628991 0.163080
H14   H     H_    0.364589 0.586926 0.630795 0.184683
H15   H     H_    0.870293 0.592303 0.634914 0.145417
H16   H     H_    0.129747 0.407578 0.365118 0.145391
H17   H     H_    0.803591 0.247789 0.919434 0.177699
H18   H     H_    0.221645 0.710745 0.071843 0.169402
H19   H     H_    0.913845 0.367007 0.052375 0.239084
H20   H     H_    0.826163 0.377517 0.027293 0.214910
H21   H     H_    0.898477 0.410530 0.134391 0.245155
H22   H     H_    0.093455 0.602848 0.931315 0.240250
H23   H     H_    0.104607 0.575576 0.847917 0.252252
H24   H     H_    0.434114 0.734263 0.371065 0.162907
H25   H     H_    0.179883 0.595304 0.947904 0.209233
H26   H     H_    0.548234 0.370891 0.633390 0.197139
H27   H     H_    0.452807 0.629229 0.366889 0.197127
H28   H     H_    0.738042 0.423579 0.365481 0.167574
H29   H     H_    0.261936 0.576574 0.634495 0.167343
H30   H     H_    0.760021 0.378514 0.074290 0.185322
H31   H     H_    0.260277 0.633798 0.938185 0.180934
H32   H     H_    0.700304 0.309798 0.932454 0.172132
H33   H     H_    0.334643 0.884539 0.081266 0.155580
H34   H     H_    0.344133 0.710782 0.077467 0.177328
H35   H     H_    0.812319 0.174222 0.934413 0.166452
H36   H     H_    0.183297 0.783369 0.076419 0.177838
H37   H     H_    0.720903 0.622112 0.478871 0.236678
H38   H     H_    0.663102 0.635474 0.518522 0.217891
H39   H     H_    0.757611 0.698659 0.583047 0.245399
H40   H     H_    0.279162 0.378056 0.521398 0.236683
H41   H     H_    0.242628 0.301428 0.417311 0.245492
H42   H     H_    0.337087 0.364754 0.481915 0.217875
H43   H     H_    0.917291 0.210118 0.058526 0.216506
H44   H     H_    0.470236 0.235245 0.588973 0.202286
H45   H     H_    0.965939 0.296187 0.091994 0.235462
H46   H     H_    0.945217 0.292919 0.158342 0.236428
H47   H     H_    0.090907 0.776661 0.963285 0.213392
H48   H     H_    0.056806 0.704478 0.855316 0.240393
H49   H     H_    0.040775 0.685259 0.916541 0.234509
H50   H     H_    0.632552 0.042250 0.831705 0.248719
H51   H     H_    0.732887 0.063019 0.889505 0.250125
H52   H     H_    0.679540 0.043273 0.924313 0.252023
H53   H     H_    0.281714 0.945854 0.159634 0.251199
H54   H     H_    0.243100 0.951446 0.071790 0.248198
H55   H     H_    0.530734 0.765176 0.411873 0.202477
H56   H     H_    0.187443 0.887102 0.070368 0.247205
H57   H     H_    0.658300 0.210191 0.064472 0.227364
H58   H     H_    0.690993 0.137886 0.067164 0.232376
H59   H     H_    0.747657 0.232999 0.155762 0.250796
H60   H     H_    0.344667 0.818217 0.971433 0.229413
H61   H     H_    0.264909 0.778316 0.864636 0.253135
H62   H     H_    0.298211 0.876364 0.946734 0.230766
H63   H     H_    0.625336 0.258078 0.919498 0.191363
H64   H     H_    0.383584 0.780226 0.072950 0.188280
H65   H     H_    0.622728 0.285753 0.030461 0.241977
H66   H     H_    0.447508 0.330867 0.569137 0.171750
H67   H     H_    0.703383 0.345802 0.139571 0.260072
H68   H     H_    0.659908 0.383082 0.078532 0.238091
H69   H     H_    0.379106 0.721021 0.954018 0.243179
H70   H     H_    0.339706 0.623818 0.903851 0.231985
H71   H     H_    0.291880 0.666472 0.850989 0.254574
H72   H     H_    0.862227 0.197558 0.135630 0.239877
H73   H     H_    0.788860 0.109765 0.065706 0.233987
H74   H     H_    0.828998 0.134588 0.026227 0.228757
H75   H     H_    0.187175 0.884143 0.924579 0.231827
H76   H     H_    0.132149 0.788328 0.840097 0.239869
H77   H     H_    0.553521 0.669725 0.431939 0.171730
H78   H     H_    0.127243 0.835413 0.929090 0.234758
H79   H     H_    0.357915 0.211407 0.481543 0.226340
H80   H     H_    0.296017 0.157945 0.371039 0.220888
H81   H     H_    0.335825 0.110341 0.419459 0.263659
H82   H     H_    0.642798 0.789697 0.520086 0.226761
H83   H     H_    0.664307 0.890694 0.582131 0.263741
H84   H     H_    0.704031 0.843136 0.630658 0.220321
H85   H     H_    0.331090 0.088471 0.278908 0.242775
H86   H     H_    0.423600 0.104170 0.305282 0.235088
H87   H     H_    0.391276 0.049354 0.330654 0.234272
H88   H     H_    0.616595 0.223568 0.547729 0.162318
H89   H     H_    0.668005 0.912521 0.721843 0.244974
H90   H     H_    0.606961 0.950718 0.669497 0.235305
H91   H     H_    0.575300 0.895329 0.694745 0.233925
H92   H     H_    0.427289 0.229755 0.360232 0.176491
H93   H     H_    0.572079 0.770200 0.639841 0.176534
H94   H     H_    0.753170 0.521339 0.404124 0.189997
H95   H     H_    0.246897 0.478859 0.596024 0.189986
H96   H     H_    0.373479 0.261703 0.402473 0.154169
H97   H     H_    0.626461 0.738762 0.598267 0.154271
H98   H     H_    0.544438 0.097152 0.390651 0.267079
H99   H     H_    0.383241 0.776006 0.451405 0.162068
H100  H     H_    0.539254 0.164516 0.364377 0.233899
H101  H     H_    0.628315 0.167690 0.437869 0.234114
H102  H     H_    0.454647 0.902329 0.608603 0.266734
H103  H     H_    0.370567 0.831562 0.560567 0.234210
H104  H     H_    0.459363 0.834761 0.634510 0.234025
H105  H     H_    0.618571 0.334197 0.562870 0.158757
H106  H     H_    0.381394 0.665360 0.436220 0.158893
H107  H     H_    0.723885 0.654632 0.660504 0.256078
H108  H     H_    0.782927 0.601458 0.686443 0.240031
H109  H     H_    0.820592 0.684673 0.700582 0.215842
H110  H     H_    0.570108 0.289400 0.452725 0.174891
H111  H     H_    0.276250 0.345283 0.339709 0.256057
H112  H     H_    0.179541 0.315179 0.299611 0.216154
H113  H     H_    0.217120 0.398329 0.313587 0.239973
H114  H     H_    0.638942 0.503626 0.388260 0.194067
H115  H     H_    0.361117 0.496582 0.611874 0.194120
H116  H     H_    0.785320 0.385776 0.470401 0.168354
H117  H     H_    0.214559 0.614154 0.529381 0.168367
H118  H     H_    0.846580 0.457014 0.580531 0.184785
H119  H     H_    0.153321 0.542802 0.419283 0.184686
H120  H     H_    0.848700 0.625576 0.570429 0.182890
O1    O     O_R   0.447710 0.092600 0.500010 -0.628661
O2    O     O_R   0.447720 0.907400 0.500040 -0.628983
O3    O     O_R   0.509140 0.061430 0.622880 -0.617697
O4    O     O_R   0.490860 0.938570 0.377120 -0.617249
O5    O     O_R   0.613710 0.061430 0.622840 -0.617465
O6    O     O_R   0.386290 0.938570 0.377160 -0.617663
O7    O     O_R   0.907580 0.552300 0.500030 -0.631263
O8    O     O_R   0.092420 0.447700 0.499970 -0.631267
O9    O     O_R   0.907560 0.447760 0.500050 -0.632669
O10   O     O_R   0.092440 0.552240 0.499950 -0.632681
O11   O     O_R   0.938770 0.490850 0.377130 -0.616394
O12   O     O_R   0.552290 0.907400 0.499990 -0.628490
O13   O     O_R   0.061230 0.509150 0.622870 -0.616189
O14   O     O_R   0.938740 0.386300 0.377150 -0.619541
O15   O     O_R   0.061260 0.613700 0.622850 -0.620193
O16   O     O_R   0.372700 0.465280 0.430600 -0.622478
O17   O     O_R   0.627300 0.534720 0.569400 -0.622514
O18   O     O_R   0.441990 0.534630 0.569310 -0.636808
O19   O     O_R   0.558010 0.465370 0.430690 -0.636867
O20   O     O_R   0.465370 0.372730 0.430660 -0.635169
O21   O     O_R   0.534630 0.627270 0.569340 -0.635166
O22   O     O_R   0.534650 0.442080 0.569370 -0.631276
O23   O     O_R   0.465350 0.557920 0.430630 -0.631205
O24   O     O_R   0.552280 0.092600 0.499960 -0.629098
Zn1   Zn    Zn3+2 0.430180 0.000000 0.500030 0.927976
Zn2   Zn    Zn3+2 0.569820 0.000000 0.499970 0.928130
Zn3   Zn    Zn3+2 0.000200 0.569810 0.499990 0.929602
Zn4   Zn    Zn3+2 0.999800 0.430190 0.500010 0.930074
Zn5   Zn    Zn3+2 0.453740 0.453690 0.407380 0.910537
Zn6   Zn    Zn3+2 0.546260 0.546310 0.592620 0.910712

loop_
_geom_bond_atom_site_label_1
_geom_bond_atom_site_label_2
_ccdc_geom_bond_type
C75   H68   S    
C23   C58   S    
C88   H4    S    
C33   H116  S    
C70   H48   S    
C56   C76   S    
C73   H58   S    
C31   C66   S    
C69   H45   S    
C87   H112  S    
C3    C23   S    
C12   O2    A    
C5    C67   S    
C20   H88   S    
C36   C88   S    
C27   H66   S    
C15   H93   S    
C83   H89   S    
C37   C90   S    
C51   O22   A    
O18   Zn6   S    
C47   O14   A    
C81   H83   S    
C79   H78   S    
C36   H10   S    
C68   H41   S    
C35   C37   S    
C9    C16   S    
C80   H81   S    
C38   C42   S    
O1    Zn1   S    
C11   C14   S    
C72   H54   S    
C85   H102  S    
C21   H99   S    
C40   H94   S    
C1    O24   A    
C41   H29   S    
C72   H53   S    
C13   C81   S    
O10   Zn3   S    
C67   C89   S    
C33   C36   S    
C56   C78   S    
C74   H62   S    
C50   O17   A    
C60   C62   S    
C12   C24   S    
C32   C39   S    
O7    Zn3   S    
C49   O18   A    
C90   H8    S    
C56   C59   S    
C35   H119  S    
C12   O12   A    
C2    C79   S    
C41   H95   S    
C55   H120  S    
C76   H70   S    
C44   C53   S    
C6    C65   T    
C87   H113  S    
O16   Zn5   S    
C63   C92   S    
C45   C67   S    
C84   H98   S    
C60   H17   S    
C48   C65   S    
C17   O4    A    
C88   H5    S    
C2    C74   S    
C86   H107  S    
C32   C68   S    
C66   H37   S    
C75   H65   S    
C77   H72   S    
C40   C42   S    
C15   H97   S    
O15   Zn3   S    
C1    C22   S    
C69   H43   S    
C31   C86   S    
C73   H59   S    
C35   C54   S    
C25   C29   S    
C41   C43   S    
C74   H60   S    
C76   H69   S    
C44   O7    A    
C32   C57   S    
C61   H18   S    
C87   H111  S    
C52   O21   A    
C4    C34   S    
C20   C29   S    
C53   C55   S    
C11   C82   S    
C33   C53   S    
C23   C60   S    
C37   C39   S    
C21   C85   S    
C45   C58   S    
C46   O8    A    
C38   C50   S    
O9    Zn4   S    
C43   H115  S    
O20   Zn5   S    
C81   H84   S    
C50   O19   A    
O2    Zn1   S    
O14   Zn4   S    
C58   H63   S    
C47   C64   S    
C37   H11   S    
C48   O15   A    
C85   H103  S    
C15   C26   S    
C39   C43   S    
O19   Zn5   S    
C77   H74   S    
C72   H56   S    
C32   C87   S    
C34   C61   S    
C19   H55   S    
C91   H21   S    
C83   H90   S    
C55   H15   S    
C59   H34   S    
C43   H14   S    
C68   H40   S    
C91   H20   S    
C82   H87   S    
C16   O3    A    
C3    C71   S    
C92   H25   S    
C25   C51   S    
C90   H9    S    
C2    C78   S    
C26   C52   S    
C14   H96   S    
C33   H118  S    
O21   Zn6   S    
C63   C70   S    
C84   H101  S    
C77   H73   S    
C77   C89   S    
C62   C91   S    
C82   H86   S    
C61   C63   S    
C56   H31   S    
C83   H91   S    
C16   O5    A    
C3    H1    S    
C8    C34   S    
C49   O16   A    
C18   H44   S    
C19   C28   S    
C86   H109  S    
C45   C75   S    
O22   Zn6   S    
C71   H50   S    
O3    Zn1   S    
C4    H33   S    
C30   H106  S    
C46   C54   S    
C20   C22   S    
C26   C30   S    
C29   H105  S    
C20   C84   S    
C13   C15   S    
C1    O1    A    
C34   C59   S    
C79   H76   S    
C80   H80   S    
C40   H28   S    
C79   H75   S    
C90   H7    S    
C4    C72   S    
C13   C24   S    
C71   H51   S    
C66   H39   S    
C27   H26   S    
C75   H67   S    
C69   H46   S    
C7    C9    T    
C47   O11   A    
C70   H49   S    
C29   H110  S    
C73   H57   S    
C51   O20   A    
C18   C22   S    
C58   H32   S    
C60   H35   S    
C18   C27   S    
C28   H27   S    
C42   H12   S    
C14   H92   S    
C59   H64   S    
C39   C49   S    
C85   H104  S    
C74   H61   S    
C45   H30   S    
C25   C27   S    
C21   C30   S    
C13   C83   S    
C11   C22   S    
C26   C28   S    
C46   O10   A    
C31   C38   S    
C3    C89   S    
C5    C64   T    
O4    Zn2   S    
C81   H82   S    
C68   H42   S    
C19   C24   S    
C35   H117  S    
C18   H13   S    
C73   C89   S    
C30   H2    S    
O23   Zn5   S    
O17   Zn6   S    
C62   C67   S    
C48   O13   A    
O12   Zn2   S    
C19   H24   S    
C7    C23   S    
C2    C4    S    
C82   H85   S    
C36   C38   S    
O24   Zn2   S    
C84   H100  S    
C61   H36   S    
C14   C25   S    
C92   H23   S    
C88   H6    S    
C41   C54   S    
C80   H79   S    
C6    C78   S    
C11   C80   S    
C91   H19   S    
C28   H77   S    
C70   H47   S    
C57   H16   S    
C62   C69   S    
C8    C10   T    
C40   C53   S    
C57   H3    S    
C21   C24   S    
O13   Zn4   S    
O8    Zn4   S    
C76   H71   S    
O11   Zn3   S    
C44   O9    A    
C10   C17   S    
O6    Zn1   S    
C31   C55   S    
C92   H22   S    
O5    Zn2   S    
C54   C57   S    
C42   H114  S    
C17   O6    A    
C52   O23   A    
C86   H108  S    
C71   H52   S    
C66   H38   S    
C63   C78   S    
