data_mof_unit_59809.cif
_audit_creation_date              2012-12-11T17:25:05-0500
_audit_creation_method            fapswitch 2.2
_symmetry_space_group_name_H-M    P1
_symmetry_Int_Tables_number       1
_space_group_crystal_system       triclinic
_cell_length_a                    6.951815
_cell_length_b                    20.570343
_cell_length_c                    24.451115
_cell_angle_alpha                 90.070254
_cell_angle_beta                  90.415608
_cell_angle_gamma                 89.490107
_cell_volume                      3496.30645028

loop_
_atom_site_label
_atom_site_type_symbol
_atom_type_description
_atom_site_fract_x
_atom_site_fract_y
_atom_site_fract_z
_atom_type_partial_charge
O1    O     O_R   0.507280 0.423750 0.460310 -0.536065
O2    O     O_R   0.171030 0.555650 0.437630 -0.538183
O3    O     O_R   0.004080 0.576250 0.539690 -0.536650
C1    C     C_R   0.339070 0.575954 0.422000 0.718002
O4    O     O_R   0.177330 0.422980 0.453960 -0.543450
O5    O     O_R   0.010420 0.442640 0.556140 -0.533313
C2    C     C_R   0.346405 0.398800 0.443692 0.753837
O6    O     O_R   0.500930 0.557360 0.443860 -0.536231
O7    O     O_3   0.340310 0.506600 0.533500 -0.364938
V1    V     V_3+5 0.064140 0.498780 0.493780 1.422664
O8    O     O_R   0.680890 0.444350 0.562370 -0.533332
C3    C     C_R   0.850497 0.424294 0.578068 0.723351
O9    O     O_R   0.674590 0.577020 0.546040 -0.539733
C4    C     C_R   0.842875 0.600867 0.556630 0.718566
V2    V     V_3+5 0.564550 0.501220 0.506220 1.435255
O10   O     O_3   0.838250 0.493400 0.466500 -0.370683
C5    C     C_R   0.973587 0.839137 0.910254 -0.042994
C6    C     C_R   0.849549 0.661718 0.588252 -0.092439
C7    C     C_R   0.007496 0.722320 0.906032 -0.159171
C8    C     C_R   0.008792 0.779767 0.936066 -0.166150
C9    C     C_R   0.937925 0.840870 0.853526 -0.213723
C10   C     C_R   0.938485 0.782806 0.821576 0.086184
C11   C     C_R   0.973244 0.723262 0.849390 0.138070
C12   C     C_R   0.907408 0.781533 0.763318 0.062367
C13   C     C_R   0.909739 0.720748 0.734361 0.083039
C14   C     C_R   0.944145 0.663298 0.764604 -0.185445
C15   C     C_R   0.975111 0.664755 0.820686 -0.205253
C16   C     C_R   0.875564 0.838936 0.733013 -0.208725
C17   C     C_R   0.847455 0.837551 0.676727 -0.165776
C18   C     C_R   0.848587 0.778960 0.647592 0.054884
C19   C     C_R   0.878950 0.719401 0.676103 0.033853
C20   C     C_R   0.817539 0.779554 0.590240 0.416517
C21   C     C_R   0.823440 0.720577 0.561163 -0.265268
C22   C     C_R   0.876918 0.660882 0.645031 -0.223513
H1    H     H_    0.001700 0.619244 0.841886 0.124602
H2    H     H_    0.894863 0.613653 0.663371 0.104084
H3    H     H_    0.807150 0.720231 0.517127 0.112238
H4    H     H_    0.823710 0.883457 0.655967 0.165989
H5    H     H_    0.034730 0.676844 0.927183 0.114879
H6    H     H_    0.037357 0.777934 0.979665 0.112036
H7    H     H_    0.912407 0.888125 0.835837 0.093458
H8    H     H_    0.949772 0.615800 0.746219 0.123610
H9    H     H_    0.872095 0.886387 0.751597 0.125126
H10   H     H_    0.620040 0.211908 0.797551 0.112062
C23   C     C_R   0.730390 0.272482 0.733424 -0.153998
H11   H     H_    0.588823 0.290061 0.721538 0.112859
C24   C     C_R   0.894169 0.294157 0.705807 0.135893
C25   C     C_R   0.075941 0.270502 0.722035 -0.158663
H12   H     H_    0.204080 0.286535 0.701217 0.113544
C26   C     C_R   0.093757 0.225948 0.765357 -0.154947
H13   H     H_    0.235339 0.208414 0.777273 0.111659
C27   C     C_R   0.929993 0.204353 0.793041 0.137026
C28   C     C_R   0.748197 0.227916 0.776731 -0.156614
C29   C     C_1   0.876139 0.340416 0.660974 -0.063970
C30   C     C_1   0.948060 0.158502 0.838189 -0.060600
C31   C     C_1   0.961254 0.120466 0.876101 -0.191641
C32   C     C_1   0.862906 0.378867 0.623378 -0.186543
H14   H     H_    0.692189 0.689708 0.286181 0.131015
C33   C     C_R   0.591328 0.762062 0.228968 -0.238037
H15   H     H_    0.731555 0.767279 0.210562 0.182436
C34   C     C_R   0.434471 0.799134 0.209618 0.027604
C35   C     C_R   0.253300 0.791540 0.234706 0.432542
C36   C     C_R   0.230575 0.745291 0.276697 -0.229221
H16   H     H_    0.089701 0.738354 0.294337 0.123534
C37   C     C_R   0.387891 0.708424 0.295916 0.080645
C38   C     C_R   0.568647 0.717548 0.271973 -0.163005
C39   C     C_1   0.458876 0.843707 0.163623 -0.001722
C40   C     C_1   0.364474 0.661333 0.340002 -0.036482
C41   C     C_1   0.349051 0.622183 0.377049 -0.197602
C42   C     C_1   0.474736 0.880698 0.125033 -0.186665
C43   C     C_R   0.468995 0.161111 0.089414 -0.039306
C44   C     C_R   0.355654 0.337482 0.412311 -0.079486
C45   C     C_R   0.476315 0.278419 0.092745 -0.159855
C46   C     C_R   0.484627 0.220816 0.062937 -0.168374
C47   C     C_R   0.445978 0.159222 0.146500 -0.215063
C48   C     C_R   0.438881 0.217462 0.178141 0.086566
C49   C     C_R   0.453508 0.277343 0.149743 0.138929
C50   C     C_R   0.418156 0.218572 0.236617 0.055681
C51   C     C_R   0.409716 0.279589 0.265276 0.070526
C52   C     C_R   0.423856 0.337364 0.234541 -0.186422
C53   C     C_R   0.445686 0.336044 0.178181 -0.202993
C54   C     C_R   0.406872 0.160786 0.267432 -0.188275
C55   C     C_R   0.387974 0.162133 0.323894 -0.184093
C56   C     C_R   0.378525 0.220891 0.352283 0.103135
C57   C     C_R   0.388339 0.280718 0.323737 0.093516
C58   C     C_R   0.359277 0.219802 0.409367 -0.230017
C59   C     C_R   0.346402 0.277503 0.439479 0.277234
C60   C     C_R   0.376540 0.338980 0.355149 -0.285853
H17   H     H_    0.456661 0.381814 0.156519 0.124576
H18   H     H_    0.382637 0.386434 0.336723 0.107663
H19   H     H_    0.380458 0.116335 0.345663 0.121015
H20   H     H_    0.488047 0.324147 0.071094 0.113879
H21   H     H_    0.502698 0.222798 0.018993 0.106676
H22   H     H_    0.434318 0.111729 0.164615 0.089073
H23   H     H_    0.419706 0.384963 0.252814 0.124883
H24   H     H_    0.413357 0.113182 0.249190 0.118595
H25   H     H_    0.352566 0.173764 0.430808 0.118233
O11   O     O_R   0.323320 0.942780 0.056240 -0.532928
O12   O     O_R   0.647300 0.077050 0.046060 -0.538779
O13   O     O_R   0.813840 0.057330 0.943840 -0.534925
C61   C     C_R   0.478185 0.100808 0.056947 0.691795
O14   O     O_R   0.653250 0.944380 0.062400 -0.535749
O15   O     O_R   0.819830 0.923720 0.960300 -0.535448
C62   C     C_R   0.485067 0.924780 0.078549 0.719213
O16   O     O_R   0.317330 0.076390 0.039790 -0.536574
O17   O     O_3   0.483830 0.993470 0.966560 -0.366646
V3    V     V_3+5 0.760140 0.001210 0.006210 1.428145
O18   O     O_R   0.149290 0.922840 0.953850 -0.537899
C63   C     C_R   0.980786 0.899354 0.942846 0.697078
O19   O     O_R   0.143340 0.055500 0.937510 -0.538190
C64   C     C_R   0.973715 0.075471 0.921744 0.724738
V4    V     V_3+5 0.259690 0.998600 0.993650 1.429153
O20   O     O_3   0.986130 0.006520 0.033440 -0.366851
O21   O     O_3   0.799631 0.838835 0.563091 -0.581787
C65   C     C_3   0.642428 0.840043 0.525733 0.075728
H26   H     H_    0.552118 0.883278 0.535546 0.140380
H27   H     H_    0.544981 0.797365 0.528732 0.110776
C66   C     C_3   0.716675 0.847540 0.467200 -0.301114
H28   H     H_    0.791577 0.894829 0.463432 0.198524
H29   H     H_    0.822076 0.808296 0.457831 0.191586
C67   C     C_3   0.552872 0.844975 0.425324 -0.843952
H30   H     H_    0.479103 0.797353 0.427380 0.235208
H31   H     H_    0.611484 0.850991 0.383516 0.235489
H32   H     H_    0.447028 0.884637 0.433074 0.232129
O22   O     O_3   0.093791 0.825563 0.215769 -0.580368
C68   C     C_3   0.085525 0.887549 0.240956 0.073674
H33   H     H_    0.017714 0.921667 0.211196 0.148579
H34   H     H_    0.230089 0.907889 0.250961 0.100865
C69   C     C_3   0.960655 0.885530 0.292360 -0.327777
H35   H     H_    0.817480 0.865228 0.281864 0.207205
H36   H     H_    0.029828 0.853727 0.323609 0.189731
C70   C     C_3   0.933074 0.953247 0.316776 -0.837467
H37   H     H_    0.074409 0.974313 0.328190 0.231110
H38   H     H_    0.843498 0.950047 0.354080 0.233848
H39   H     H_    0.859152 0.985777 0.286926 0.230859
N1    N     N_2   0.328543 0.274968 0.497370 -0.534209
H40   H     H_    0.411114 0.238687 0.515131 0.253381
C71   C     C_3   0.131904 0.273644 0.516255 -0.537534
H41   H     H_    0.061293 0.227963 0.502902 0.187255
H42   H     H_    0.049005 0.315898 0.500116 0.210122
H43   H     H_    0.130453 0.275979 0.561624 0.198499

loop_
_geom_bond_atom_site_label_1
_geom_bond_atom_site_label_2
_ccdc_geom_bond_type
C13   C19   A    
C43   C47   A    
C30   C31   T    
C36   C37   A    
C68   H33   S    
C45   C46   A    
C4    C6    S    
C7    C11   A    
C7    C8    A    
C1    O6    A    
O21   C65   S    
O17   V4    S    
C23   H11   S    
C14   C15   A    
C35   C36   A    
C16   C17   A    
C48   C50   A    
C33   C38   A    
O5    C3    A    
C18   C19   A    
C8    H6    S    
C42   C62   S    
O17   V3    S    
C65   H26   S    
C5    C8    A    
O18   C63   A    
C58   H25   S    
C34   C39   S    
C66   H28   S    
V4    O20   S    
C67   H32   S    
O19   C64   A    
O8    V2    S    
H10   C28   S    
H14   C38   S    
V3    O20   S    
C24   C25   A    
C40   C41   T    
C65   H27   S    
C17   H4    S    
C26   C27   A    
O1    V2    S    
C11   C15   A    
O7    V1    S    
C31   C64   S    
C27   C30   S    
C69   C70   S    
C53   H17   S    
C37   C40   S    
C25   C26   A    
C43   C61   S    
C23   C28   A    
C33   H15   S    
O1    C2    A    
O9    C4    A    
C46   H21   S    
C1    C41   S    
C44   C60   A    
O19   V4    S    
C48   C49   A    
C23   C24   A    
C61   O16   A    
C33   C34   A    
O11   V4    S    
C54   H24   S    
C12   C13   A    
N1    C71   S    
C2    C44   S    
O4    C2    A    
C50   C51   A    
C70   H37   S    
C68   C69   S    
C15   H1    S    
C13   C14   A    
C5    C9    A    
O18   V4    S    
C66   C67   S    
O2    C1    A    
C47   C48   A    
C17   C18   A    
C43   C46   A    
C50   C54   A    
C55   C56   A    
C49   C53   A    
C65   C66   S    
C26   H13   S    
C19   C22   A    
O14   V3    S    
C56   C57   A    
C52   H23   S    
O14   C62   A    
C6    C22   A    
C67   H30   S    
O3    C4    A    
C7    H5    S    
C24   C29   S    
C9    H7    S    
C3    C32   S    
C25   H12   S    
O12   C61   A    
O16   V4    S    
C60   H18   S    
C54   C55   A    
O6    V2    S    
O9    V2    S    
O22   C68   S    
C10   C12   A    
C51   C52   A    
O2    V1    S    
C51   C57   A    
C44   C59   A    
O12   V3    S    
C27   C28   A    
C14   H8    S    
C21   H3    S    
C69   H35   S    
C57   C60   A    
O13   V3    S    
C68   H34   S    
C58   C59   A    
C59   N1    S    
C12   C16   A    
C45   H20   S    
C56   C58   A    
C52   C53   A    
C71   H43   S    
C5    C63   S    
O5    V1    S    
C35   O22   S    
O8    C3    A    
C71   H42   S    
C55   H19   S    
C16   H9    S    
O15   C63   A    
C39   C42   T    
C20   C21   A    
O7    V2    S    
O4    V1    S    
O3    V1    S    
V1    O10   S    
C18   C20   A    
C70   H39   S    
O11   C62   A    
C22   H2    S    
C34   C35   A    
C6    C21   A    
C66   H29   S    
C67   H31   S    
C71   H41   S    
C36   H16   S    
O13   C64   A    
C70   H38   S    
C37   C38   A    
C45   C49   A    
C10   C11   A    
N1    H40   S    
O15   V3    S    
C20   O21   S    
C9    C10   A    
V2    O10   S    
C47   H22   S    
C69   H36   S    
C29   C32   T    
