data_mof_unit_16618.cif
_audit_creation_date              2012-12-10T17:30:24-0500
_audit_creation_method            fapswitch 2.2
_symmetry_space_group_name_H-M    P1
_symmetry_Int_Tables_number       1
_space_group_crystal_system       triclinic
_cell_length_a                    12.145675
_cell_length_b                    12.767183
_cell_length_c                    14.925506
_cell_angle_alpha                 91.223396
_cell_angle_beta                  87.348548
_cell_angle_gamma                 96.00108
_cell_volume                      2298.97414858

loop_
_atom_site_label
_atom_site_type_symbol
_atom_type_description
_atom_site_fract_x
_atom_site_fract_y
_atom_site_fract_z
_atom_type_partial_charge
C1    C     C_R   0.523874 0.700217 0.496206 0.952827
C2    C     C_R   0.476125 0.299781 0.503776 0.952844
C3    C     C_R   0.528242 0.692582 0.953859 0.171348
C4    C     C_R   0.471771 0.307421 0.046142 0.171393
C5    C     C_R   0.458925 0.187189 0.507358 -0.113745
C6    C     C_R   0.541078 0.812805 0.492520 -0.113755
C7    C     C_R   0.636582 0.974484 0.545935 0.219382
C8    C     C_R   0.363507 0.025561 0.453728 0.219293
C9    C     C_R   0.628795 0.866050 0.536355 -0.273995
C10   C     C_R   0.371268 0.133989 0.463421 -0.273993
C11   C     C_R   0.463146 0.866566 0.451753 0.249023
C12   C     C_R   0.536867 0.133393 0.548058 0.248979
C13   C     C_R   0.455849 0.972486 0.475477 0.014059
C14   C     C_R   0.544208 0.027520 0.524225 0.014075
C15   C     C_R   0.949447 0.409285 0.408180 0.049477
C16   C     C_R   0.050552 0.590716 0.591819 0.049457
C17   C     C_R   0.833898 0.410452 0.423057 0.391327
C18   C     C_R   0.166102 0.589547 0.576943 0.391373
C19   C     C_R   0.864479 0.553166 0.525802 0.239036
C20   C     C_R   0.135522 0.446835 0.474195 0.239040
C21   C     C_R   0.978309 0.536498 0.530258 -0.037965
C22   C     C_R   0.021691 0.463502 0.469740 -0.037956
C23   C     C_R   0.501002 0.499481 0.672624 0.967564
C24   C     C_R   0.498998 0.500521 0.327375 0.967568
C25   C     C_R   0.447607 0.413088 0.185555 0.101183
C26   C     C_R   0.552391 0.586922 0.814442 0.101167
C27   C     C_R   0.496686 0.501494 0.231529 -0.112779
C28   C     C_R   0.503318 0.498511 0.768470 -0.112814
C29   C     C_R   0.544887 0.590319 0.185519 0.188674
C30   C     C_R   0.455136 0.409681 0.814481 0.188616
C31   C     C_R   0.525566 0.596681 0.093914 0.021691
C32   C     C_R   0.474462 0.403323 0.906085 0.021680
C33   C     C_R   0.499130 0.500529 0.046585 -0.076158
C34   C     C_R   0.500892 0.499476 0.953414 -0.076139
C35   C     C_R   0.471257 0.405317 0.093017 0.092355
C36   C     C_R   0.528754 0.594689 0.906982 0.092359
C37   C     C_R   0.528372 0.693802 0.048662 0.173977
C38   C     C_R   0.471661 0.306202 0.951337 0.173926
H1    H     H_    0.308028 0.176855 0.437038 0.169598
H2    H     H_    0.692068 0.823224 0.562736 0.169667
N1    N     N_R   0.207800 0.519350 0.516680 -0.133703
N2    N     N_R   0.792200 0.480650 0.483320 -0.133707
O1    O     O_R   0.421700 0.658830 0.504450 -0.554512
O2    O     O_R   0.578300 0.341170 0.495550 -0.554562
O3    O     O_R   0.609310 0.646410 0.493750 -0.638105
O4    O     O_R   0.390690 0.353590 0.506250 -0.638094
O5    O     O_R   0.406180 0.506230 0.637500 -0.556744
O6    O     O_R   0.593820 0.493770 0.362500 -0.556746
O7    O     O_R   0.593800 0.493820 0.626800 -0.614363
O8    O     O_R   0.406200 0.506180 0.373200 -0.614327
Zn1   Zn    Zn3+2 0.374730 0.508290 0.507150 1.019574
Zn2   Zn    Zn3+2 0.625270 0.491710 0.492850 1.019542
C39   C     C_3   0.361162 0.337081 0.232897 -0.903466
H3    H     H_    0.293946 0.382177 0.260677 0.249407
H4    H     H_    0.320518 0.277551 0.186639 0.260222
H5    H     H_    0.397933 0.296882 0.287791 0.232776
C40   C     C_3   0.638816 0.662942 0.767091 -0.903424
H6    H     H_    0.706035 0.617857 0.739301 0.249388
H7    H     H_    0.602026 0.703135 0.712202 0.232804
H8    H     H_    0.679459 0.722475 0.813346 0.260225
C41   C     C_3   0.992317 0.363679 0.320274 -0.813662
H9    H     H_    0.081708 0.387631 0.306279 0.240608
H10   H     H_    0.976676 0.276422 0.319901 0.256874
H11   H     H_    0.949544 0.394374 0.263715 0.269572
C42   C     C_3   0.007681 0.636330 0.679720 -0.813656
H12   H     H_    0.918289 0.612382 0.693713 0.240603
H13   H     H_    0.050449 0.605637 0.736283 0.269561
H14   H     H_    0.023326 0.723586 0.680089 0.256895
Br1   Br    Br    0.649371 0.691225 0.244922 -0.485099
Br2   Br    Br    0.350670 0.308758 0.755078 -0.485031
C43   C     C_3   0.517433 0.796603 0.099986 -0.759046
H15   H     H_    0.489871 0.784028 0.170772 0.289973
H16   H     H_    0.597274 0.847580 0.095720 0.258426
H17   H     H_    0.451416 0.839628 0.074136 0.224140
C44   C     C_3   0.482629 0.203407 0.900013 -0.758964
H18   H     H_    0.510200 0.215989 0.829229 0.289970
H19   H     H_    0.548655 0.160397 0.925871 0.224140
H20   H     H_    0.402797 0.152415 0.904272 0.258434
C45   C     C_3   0.511592 0.792927 0.905092 -0.857863
H21   H     H_    0.434745 0.824979 0.930932 0.244639
H22   H     H_    0.583653 0.852745 0.913781 0.244031
H23   H     H_    0.497781 0.780425 0.832797 0.268670
C46   C     C_3   0.488390 0.207070 0.094913 -0.857910
H24   H     H_    0.565238 0.175006 0.069090 0.244641
H25   H     H_    0.502182 0.219568 0.167212 0.268655
H26   H     H_    0.416324 0.147261 0.086213 0.244017
Br3   Br    Br    0.614209 0.203626 0.647265 -0.530311
Br4   Br    Br    0.385735 0.796154 0.352659 -0.530447
C47   C     C_3   0.747403 0.028399 0.571899 -0.778793
H27   H     H_    0.815484 0.980269 0.550576 0.220345
H28   H     H_    0.766243 0.104698 0.537260 0.270700
H29   H     H_    0.749130 0.038853 0.645824 0.265731
C48   C     C_3   0.252745 0.971702 0.427565 -0.778768
H30   H     H_    0.184653 0.019967 0.448554 0.220248
H31   H     H_    0.251304 0.961043 0.353645 0.265803
H32   H     H_    0.233667 0.895521 0.462350 0.270676
C49   C     C_3   0.170989 0.339257 0.454909 -0.822598
H33   H     H_    0.237873 0.343060 0.402228 0.244295
H34   H     H_    0.102960 0.279993 0.435441 0.224836
H35   H     H_    0.198014 0.308378 0.518202 0.267411
C50   C     C_3   0.829017 0.660749 0.545076 -0.822601
H36   H     H_    0.762134 0.656961 0.597758 0.244308
H37   H     H_    0.801992 0.691616 0.481779 0.267385
H38   H     H_    0.897050 0.720013 0.564536 0.224852
Br5   Br    Br    0.262423 0.680516 0.650953 -0.490713
Br6   Br    Br    0.737577 0.319481 0.349049 -0.490826

loop_
_geom_bond_atom_site_label_1
_geom_bond_atom_site_label_2
_ccdc_geom_bond_type
C16   C21   A    
C27   C29   A    
C11   C13   A    
C24   C27   S    
C3    C45   S    
C6    C9    A    
C49   H33   S    
C15   C22   A    
C39   H3    S    
C2    O4    A    
C48   H30   S    
C19   C21   A    
C25   C39   S    
C40   H7    S    
C7    C47   S    
C15   C17   A    
C41   H10   S    
C17   N2    A    
C13   C14   A    
C49   H34   S    
C1    O1    A    
C7    C14   A    
C20   C49   S    
C2    O2    A    
C42   H13   S    
C31   C33   A    
C32   C38   A    
C47   H28   S    
C19   N2    A    
O2    Zn2   S    
C4    C35   A    
C48   H31   S    
C21   C22   A    
C30   Br2   S    
C20   N1    A    
C29   Br1   S    
C38   C44   S    
C39   H4    S    
C24   O8    A    
C23   O5    A    
C1    C6    S    
C24   O6    A    
C50   H36   S    
C5    C12   A    
C18   N1    A    
C6    C11   A    
C45   H22   S    
C40   H8    S    
O5    Zn1   S    
O3    Zn2   S    
O8    Zn1   S    
O4    Zn1   S    
C9    H2    S    
C31   C37   A    
C10   H1    S    
C32   C34   A    
C26   C40   S    
C41   H11   S    
C44   H18   S    
C43   H17   S    
C46   H24   S    
C11   Br4   S    
C42   H14   S    
C33   C34   A    
C15   C41   S    
C23   C28   S    
C47   H29   S    
C44   H19   S    
C25   C35   A    
C26   C36   A    
C46   H25   S    
C20   C22   A    
C48   H32   S    
C37   C43   S    
C2    C5    S    
C49   H35   S    
C43   H16   S    
C50   H37   S    
C39   H5    S    
C7    C9    A    
C12   Br3   S    
C8    C10   A    
C8    C48   S    
O7    Zn2   S    
C12   C14   A    
C45   H23   S    
C16   C42   S    
C25   C27   A    
C26   C28   A    
C28   C30   A    
C18   Br5   S    
C5    C10   A    
C29   C31   A    
C17   Br6   S    
C30   C32   A    
C19   C50   S    
C1    O3    A    
C40   H6    S    
C4    C46   S    
C3    C36   A    
O1    Zn1   S    
C33   C35   A    
C34   C36   A    
C41   H9    S    
C44   H20   S    
C23   O7    A    
C45   H21   S    
C8    C13   A    
O6    Zn2   S    
C46   H26   S    
C43   H15   S    
C3    C37   A    
C16   C18   A    
C42   H12   S    
C50   H38   S    
C47   H27   S    
C4    C38   A    
N1    Zn1   S    
N2    Zn2   S    
