data_mof_unit_27014.cif
_audit_creation_date              2012-12-11T16:17:41-0500
_audit_creation_method            fapswitch 2.2
_symmetry_space_group_name_H-M    P1
_symmetry_Int_Tables_number       1
_space_group_crystal_system       triclinic
_cell_length_a                    6.934032
_cell_length_b                    28.781458
_cell_length_c                    32.047139
_cell_angle_alpha                 101.135303
_cell_angle_beta                  89.508415
_cell_angle_gamma                 90.483347
_cell_volume                      6274.91015302

loop_
_atom_site_label
_atom_site_type_symbol
_atom_type_description
_atom_site_fract_x
_atom_site_fract_y
_atom_site_fract_z
_atom_type_partial_charge
O1    O     O_R   0.494350 0.453160 0.452490 -0.538700
O2    O     O_R   0.820990 0.455850 0.538220 -0.545629
O3    O     O_R   0.994300 0.546840 0.547510 -0.547656
C1    C     C_R   0.651324 0.445648 0.551729 0.723978
O4    O     O_R   0.823860 0.447580 0.452250 -0.499110
O5    O     O_R   0.997190 0.538510 0.460920 -0.541805
C2    C     C_R   0.655172 0.434487 0.436457 0.775285
O6    O     O_R   0.491450 0.461490 0.539080 -0.545395
O7    O     O_3   0.661790 0.529840 0.502950 -0.370462
V1    V     V_3+5 0.935470 0.494460 0.499450 1.513680
O8    O     O_R   0.327090 0.544150 0.461780 -0.501550
C3    C     C_R   0.159256 0.554221 0.448166 0.770428
O9    O     O_R   0.324210 0.552420 0.547750 -0.548905
C4    C     C_R   0.155039 0.565433 0.563551 0.667293
V2    V     V_3+5 0.435840 0.505540 0.500550 1.505266
O10   O     O_3   0.159650 0.470160 0.497050 -0.359916
C5    C     C_R   0.963966 0.619606 0.619906 -0.145967
H1    H     H_    0.831267 0.603804 0.606062 0.118860
C6    C     C_R   0.952364 0.655528 0.656193 -0.121361
H2    H     H_    0.811228 0.666234 0.669068 0.134263
C7    C     C_R   0.120213 0.677164 0.675610 0.018609
C8    C     C_R   0.300163 0.661891 0.657547 -0.118166
H3    H     H_    0.432633 0.677662 0.671527 0.139981
C9    C     C_R   0.311815 0.625919 0.621202 -0.147583
H4    H     H_    0.452837 0.615059 0.608342 0.117916
C10   C     C_R   0.143808 0.604201 0.601879 -0.043820
N1    N     N_R   0.269030 0.736134 0.733436 -0.269364
N2    N     N_R   0.257288 0.770088 0.768169 -0.274865
C11   C     C_R   0.083320 0.784746 0.785566 0.520882
N3    N     N_R   0.921601 0.763846 0.766571 -0.269685
N4    N     N_R   0.933342 0.729892 0.731837 -0.274335
C12   C     C_R   0.107310 0.715234 0.714441 0.522487
C13   C     C_R   0.890467 0.838019 0.842508 -0.120368
H5    H     H_    0.758013 0.822201 0.828561 0.139805
C14   C     C_R   0.878800 0.873979 0.878861 -0.150719
H6    H     H_    0.737782 0.884785 0.891758 0.118425
C15   C     C_R   0.046785 0.895753 0.898146 -0.048351
C16   C     C_R   0.226621 0.880421 0.880068 -0.150942
H7    H     H_    0.359300 0.896277 0.893876 0.119842
C17   C     C_R   0.238238 0.844508 0.843775 -0.123815
H8    H     H_    0.379367 0.833858 0.830861 0.134063
C18   C     C_R   0.070410 0.822812 0.824400 0.019098
C19   C     C_R   0.163625 0.658524 0.283544 0.666162
N5    N     N_R   0.119645 0.676602 0.325326 -0.572180
C20   C     C_R   0.065993 0.722990 0.338055 0.657868
C21   C     C_R   0.054149 0.753267 0.308332 -0.144396
C22   C     C_R   0.100201 0.735150 0.265292 -0.169720
C23   C     C_R   0.155920 0.687405 0.252617 -0.146940
C24   C     C_R   0.998457 0.801103 0.320360 0.678795
C25   C     C_R   0.989204 0.830136 0.290164 -0.203726
C26   C     C_R   0.034862 0.812497 0.247297 -0.107990
C27   C     C_R   0.090496 0.764886 0.234815 -0.017618
C28   C     C_R   0.136428 0.746992 0.191877 -0.104915
C29   C     C_R   0.191844 0.699477 0.179631 -0.204276
C30   C     C_R   0.201672 0.669969 0.209429 0.680190
C31   C     C_R   0.026687 0.841443 0.216538 0.632244
N6    N     N_R   0.071029 0.823485 0.174728 -0.545708
C32   C     C_R   0.125077 0.777088 0.162106 0.623218
O11   O     O_2   0.212807 0.612570 0.271946 -0.444516
O12   O     O_2   0.026276 0.739839 0.379460 -0.450263
H9    H     H_    0.945869 0.866629 0.300598 0.205490
O13   O     O_2   0.976587 0.887313 0.228472 -0.505531
O14   O     O_2   0.165817 0.759900 0.120795 -0.511429
H10   H     H_    0.228015 0.684832 0.146805 0.204556
C33   C     C_R   0.225669 0.863791 0.121384 -0.057936
H11   H     H_    0.363137 0.848822 0.127358 0.155962
C34   C     C_R   0.215230 0.893347 0.091526 -0.238215
H12   H     H_    0.345411 0.900072 0.074734 0.219793
C35   C     C_R   0.039098 0.913771 0.083277 -0.201531
C36   C     C_R   0.872908 0.903590 0.105784 0.586707
C37   C     C_R   0.883921 0.873806 0.135478 -0.153916
H13   H     H_    0.754784 0.866377 0.152350 0.151393
C38   C     C_R   0.060142 0.853768 0.143642 0.267528
C39   C     C_R   0.964848 0.636135 0.378557 -0.047026
H14   H     H_    0.827285 0.650998 0.372493 0.157595
C40   C     C_R   0.975297 0.606589 0.408421 -0.234809
H15   H     H_    0.845023 0.599763 0.425131 0.218656
C41   C     C_R   0.151549 0.586293 0.416778 -0.201959
C42   C     C_R   0.317873 0.596612 0.394383 0.590410
C43   C     C_R   0.306888 0.626417 0.364707 -0.142285
H16   H     H_    0.436126 0.633957 0.347923 0.153093
C44   C     C_R   0.130526 0.646310 0.356422 0.254412
C45   C     C_R   0.530964 0.223343 0.837749 0.622054
N7    N     N_R   0.576179 0.176281 0.825691 -0.546627
C46   C     C_R   0.628021 0.157664 0.784447 0.568158
C47   C     C_R   0.635389 0.186519 0.753558 -0.032761
C48   C     C_R   0.589646 0.234863 0.765526 -0.011172
C49   C     C_R   0.537180 0.253563 0.807959 -0.045482
C50   C     C_R   0.687621 0.168243 0.711098 -0.134729
C51   C     C_R   0.693959 0.197520 0.680976 -0.125048
C52   C     C_R   0.648684 0.245862 0.692551 -0.036594
C53   C     C_R   0.596524 0.264581 0.734993 -0.015340
C54   C     C_R   0.551503 0.312961 0.746985 -0.055905
C55   C     C_R   0.499362 0.331239 0.789459 -0.123802
C56   C     C_R   0.492030 0.301908 0.819539 -0.124696
C57   C     C_R   0.653938 0.276014 0.662699 0.604961
N8    N     N_R   0.610386 0.323191 0.674790 -0.539899
C58   C     C_R   0.560615 0.341915 0.716169 0.674419
O15   O     O_2   0.479126 0.240858 0.878370 -0.507141
O16   O     O_2   0.673791 0.111432 0.773372 -0.521031
H17   H     H_    0.723647 0.131218 0.700960 0.176911
H18   H     H_    0.734696 0.182118 0.648590 0.179190
O17   O     O_2   0.700810 0.258165 0.621838 -0.507865
O18   O     O_2   0.521918 0.388515 0.727640 -0.493335
H19   H     H_    0.463854 0.368291 0.799625 0.178377
H20   H     H_    0.451085 0.317292 0.851917 0.179551
C59   C     C_R   0.452666 0.375550 0.632318 0.680788
C60   C     C_R   0.462724 0.405078 0.602286 -0.272071
H21   H     H_    0.331717 0.421540 0.594320 0.152838
C61   C     C_R   0.639803 0.413544 0.583084 -0.143568
C62   C     C_R   0.806225 0.391352 0.594541 -0.171972
H22   H     H_    0.945011 0.396858 0.580456 0.162958
C63   C     C_R   0.795671 0.361616 0.624332 -0.132441
H23   H     H_    0.925149 0.344840 0.632579 0.219883
C64   C     C_R   0.619370 0.353596 0.643668 0.243028
C65   C     C_R   0.427821 0.109931 0.853401 -0.193642
H24   H     H_    0.324920 0.105161 0.827683 0.151700
C66   C     C_R   0.416792 0.080638 0.883512 -0.209372
H25   H     H_    0.305485 0.053579 0.880436 0.139407
C67   C     C_R   0.550060 0.085658 0.916855 -0.100683
C68   C     C_R   0.693376 0.120922 0.919832 -0.277409
H26   H     H_    0.795491 0.125760 0.945739 0.144709
C69   C     C_R   0.703030 0.151040 0.890036 0.521105
C70   C     C_R   0.568442 0.145787 0.856699 0.283077
C71   C     C_R   0.468267 0.385187 0.376586 -0.179234
H27   H     H_    0.339774 0.405066 0.387625 0.208843
C72   C     C_R   0.455191 0.349276 0.340324 -0.095678
H28   H     H_    0.316918 0.342474 0.324796 0.168307
C73   C     C_R   0.618285 0.322832 0.324202 -0.080506
C74   C     C_R   0.794569 0.333175 0.345560 -0.188135
H29   H     H_    0.923099 0.313439 0.334191 0.168014
C75   C     C_R   0.807972 0.368939 0.382004 0.620592
C76   C     C_R   0.644451 0.395682 0.398039 -0.192881
N9    N     N_R   0.764791 0.261149 0.268378 -0.265569
N10   N     N_R   0.753186 0.227225 0.233649 -0.273453
C77   C     C_R   0.581161 0.215301 0.214290 0.521504
N11   N     N_R   0.421182 0.238930 0.231300 -0.268277
N12   N     N_R   0.432829 0.272912 0.266017 -0.269542
C78   C     C_R   0.604928 0.284804 0.285383 0.562681
C79   C     C_R   0.389805 0.163225 0.156435 -0.114384
H30   H     H_    0.257741 0.179971 0.169649 0.140557
C80   C     C_R   0.378696 0.127198 0.120134 -0.146639
H31   H     H_    0.238449 0.117300 0.106497 0.119229
C81   C     C_R   0.546254 0.104263 0.101799 -0.053341
C82   C     C_R   0.725070 0.118453 0.120782 -0.138934
H32   H     H_    0.857348 0.101669 0.107727 0.121114
C83   C     C_R   0.736083 0.154350 0.157072 -0.118293
H33   H     H_    0.876439 0.164099 0.170706 0.135599
C84   C     C_R   0.568692 0.177242 0.175478 0.019962
O19   O     O_R   0.699050 0.038480 0.960880 -0.542124
O20   O     O_R   0.366680 0.052470 0.047720 -0.543194
O21   O     O_R   0.193410 0.961530 0.039110 -0.538918
C85   C     C_R   0.535486 0.065492 0.063500 0.717043
O22   O     O_R   0.369510 0.044100 0.961740 -0.542569
O23   O     O_R   0.196260 0.953110 0.952520 -0.543668
C86   C     C_R   0.539079 0.054108 0.948277 0.715916
O24   O     O_R   0.696210 0.046900 0.047470 -0.537064
O25   O     O_3   0.528780 0.970170 0.997070 -0.358717
V3    V     V_3+5 0.255080 0.005530 0.000540 1.435395
O26   O     O_R   0.866350 0.947520 0.952280 -0.545160
C87   C     C_R   0.035529 0.934514 0.936478 0.678133
O27   O     O_R   0.863520 0.955880 0.038260 -0.497981
C88   C     C_R   0.031364 0.945824 0.051876 0.771029
V4    V     V_3+5 0.754720 0.994440 0.999470 1.481653
O28   O     O_3   0.030880 0.029830 0.002930 -0.376718
F1    F     F_    0.256487 0.624390 0.195568 -0.600491
F2    F     F_    0.700228 0.923090 0.099912 -0.695639
F3    F     F_    0.490672 0.577224 0.400346 -0.695752
F4    F     F_    0.280164 0.368124 0.650249 -0.685344
O29   O     O_3   0.836651 0.187498 0.894850 -0.530388
C89   C     C_3   0.015358 0.168796 0.878883 -0.200547
H34   H     H_    0.004916 0.151172 0.844822 0.130492
H35   H     H_    0.120499 0.198349 0.880838 0.208569
H36   H     H_    0.072103 0.143871 0.898283 0.134303
F5    F     F_    0.981111 0.376792 0.401605 -0.697040
F6    F     F_    0.952280 0.820276 0.361283 -0.602168

loop_
_geom_bond_atom_site_label_1
_geom_bond_atom_site_label_2
_ccdc_geom_bond_type
C23   C30   A    
C89   H34   S    
C55   H19   S    
C54   C55   A    
C11   C18   S    
C29   C30   A    
O2    C1    A    
C62   H22   S    
C1    O6    A    
N8    C58   A    
N6    C32   A    
N10   C77   A    
C20   O12   S    
C20   C21   A    
C60   H21   S    
C89   H35   S    
C21   C24   A    
C15   C16   A    
C39   C40   A    
C45   N7    A    
C13   C18   A    
O26   V4    S    
C7    C8    A    
V4    O28   S    
C6    C7    A    
C79   C80   A    
C73   C74   A    
N5    C44   S    
O5    C3    A    
N3    N4    A    
O29   C89   S    
V2    O10   S    
C67   C86   S    
C33   C38   A    
C65   H24   S    
C26   C31   A    
N6    C38   S    
C81   C85   S    
C66   H25   S    
C51   H18   S    
O1    C2    A    
C52   C57   A    
C61   C62   A    
O8    V2    S    
N7    C46   A    
C83   H33   S    
C65   C66   A    
C75   C76   A    
C33   C34   A    
C3    C41   S    
C59   C60   A    
C36   C37   A    
O1    V2    S    
C42   F3    S    
N8    C64   S    
C19   C23   A    
O22   C86   A    
O25   V4    S    
C31   O13   S    
C17   C18   A    
C45   C49   A    
C49   C56   A    
C45   O15   S    
O9    C4    A    
C55   C56   A    
C39   C44   A    
O4    V1    S    
C82   C83   A    
C82   H32   S    
O27   V4    S    
C40   H15   S    
C16   H7    S    
C89   H36   S    
C83   C84   A    
C80   H31   S    
C39   H14   S    
O23   V3    S    
C26   C27   A    
O21   C88   A    
O21   V3    S    
C69   C70   A    
C13   H5    S    
C9    H4    S    
C43   C44   A    
C52   C53   A    
O4    C2    A    
C41   C42   A    
C77   N11   A    
C25   C26   A    
C28   C29   A    
O23   C87   A    
C34   H12   S    
C34   C35   A    
C75   F5    S    
O20   V3    S    
C74   C75   A    
C19   N5    A    
C72   C73   A    
C11   N3    A    
C56   H20   S    
C22   C23   A    
C73   C78   S    
C28   C32   A    
C57   N8    A    
C4    C10   S    
C5    H1    S    
C67   C68   A    
C62   C63   A    
C79   H30   S    
C71   C72   A    
O24   V4    S    
C59   C64   A    
C68   H26   S    
C22   C27   A    
O3    C4    A    
C17   H8    S    
C33   H11   S    
O6    V2    S    
O9    V2    S    
C71   H27   S    
C8    C9    A    
N7    C70   S    
C31   N6    A    
C5    C10   A    
C5    C6    A    
C72   H28   S    
O2    V1    S    
N9    C78   A    
C27   C28   A    
C14   C15   A    
C15   C87   S    
C63   H23   S    
O7    V1    S    
C71   C76   A    
C32   O14   S    
C1    C61   S    
C21   C22   A    
N2    C11   A    
C65   C70   A    
C50   H17   S    
N1    C12   A    
C47   C48   A    
N4    C12   A    
N5    C20   A    
C35   C88   S    
C40   C41   A    
C43   H16   S    
C47   C50   A    
C46   C47   A    
O5    V1    S    
O8    C3    A    
C2    C76   S    
N9    N10   A    
C19   O11   S    
O27   C88   A    
O19   V4    S    
N11   N12   A    
C81   C82   A    
O26   C87   A    
C6    H2    S    
C74   H29   S    
O7    V2    S    
O22   V3    S    
C46   O16   S    
V1    O10   S    
C36   F2    S    
C16   C17   A    
C9    C10   A    
C59   F4    S    
C51   C52   A    
O25   V3    S    
C29   H10   S    
C58   O18   S    
C54   C58   A    
C53   C54   A    
C13   C14   A    
C60   C61   A    
C80   C81   A    
O20   C85   A    
C85   O24   A    
C35   C36   A    
C66   C67   A    
C68   C69   A    
C69   O29   S    
N12   C78   A    
C42   C43   A    
C7    C12   S    
V3    O28   S    
C37   H13   S    
C48   C49   A    
C24   C25   A    
C77   C84   S    
C57   O17   S    
C37   C38   A    
N1    N2    A    
O3    V1    S    
C25   H9    S    
C8    H3    S    
O19   C86   A    
C14   H6    S    
C30   F1    S    
C50   C51   A    
C48   C53   A    
C79   C84   A    
C24   F6    S    
C63   C64   A    
