data_mof_unit_42767.cif
_audit_creation_date              2013-03-05T15:45:55-0500
_audit_creation_method            fapswitch 2.2
_symmetry_space_group_name_H-M    P1
_symmetry_Int_Tables_number       1
_space_group_crystal_system       triclinic
_cell_length_a                    18.366591
_cell_length_b                    18.301448
_cell_length_c                    18.254246
_cell_angle_alpha                 119.855136
_cell_angle_beta                  120.086454
_cell_angle_gamma                 59.791807
_cell_volume                      4333.73477238

loop_
_atom_site_label
_atom_site_type_symbol
_atom_site_description
_atom_site_fract_x
_atom_site_fract_y
_atom_site_fract_z
_atom_type_partial_charge
Zn1   Zn    Zn3+2 0.956630 0.130130 0.543370 1.015042
Zn2   Zn    Zn3+2 0.130140 0.956620 0.543380 1.055635
Zn3   Zn    Zn3+2 0.956630 0.956620 0.369870 1.057381
Zn4   Zn    Zn3+2 0.956610 0.956630 0.543370 1.056677
O1    O     O_3   0.000000 0.000000 0.500000 -0.523304
O2    O     O_R   0.055060 0.884200 0.615800 -0.635763
O3    O     O_R   0.884210 0.176520 0.444920 -0.626915
O4    O     O_R   0.176540 0.055080 0.615800 -0.620349
O5    O     O_R   0.884190 0.884200 0.323480 -0.601693
O6    O     O_R   0.176540 0.884190 0.444930 -0.632853
O7    O     O_R   0.884180 0.055090 0.615790 -0.625059
O8    O     O_R   0.055100 0.884190 0.323490 -0.634865
O9    O     O_R   0.884190 0.176530 0.615790 -0.654227
O10   O     O_R   0.055100 0.176520 0.615800 -0.644660
O11   O     O_R   0.884180 0.884200 0.444920 -0.600501
O12   O     O_R   0.176510 0.884190 0.615800 -0.584189
O13   O     O_R   0.884210 0.055080 0.323480 -0.612659
C1    C     C_R   0.139831 0.858977 0.638779 0.874418
C2    C     C_R   0.861856 0.140167 0.360075 0.796129
C3    C     C_R   0.140690 0.139854 0.644383 0.849065
C4    C     C_R   0.861155 0.858500 0.359574 0.879680
C5    C     C_R   0.140122 0.857655 0.360019 0.782661
C6    C     C_R   0.851913 0.139969 0.631823 0.829650
C7    C     C_R   0.754187 0.069006 0.662316 0.313765
C8    C     C_R   0.756150 0.027028 0.710327 -0.253419
C9    C     C_R   0.755695 0.072899 0.798495 0.302163
C10   C     C_R   0.744656 0.164184 0.835302 -0.149437
C11   C     C_R   0.736840 0.209194 0.786065 -0.004505
C12   C     C_R   0.757530 0.157681 0.706277 -0.032924
C13   C     C_R   0.710532 0.303755 0.815221 -0.132472
C14   C     C_R   0.729207 0.343392 0.779173 0.076385
C15   C     C_R   0.754701 0.290715 0.702145 0.022857
C16   C     C_R   0.781477 0.196431 0.674455 -0.104364
C17   C     C_R   0.726009 0.433586 0.818792 -0.175167
C18   C     C_R   0.731019 0.473909 0.774533 -0.189919
C19   C     C_R   0.740186 0.425464 0.689822 0.336667
C20   C     C_R   0.751808 0.334066 0.654089 -0.165151
H1    H     H_    0.756012 0.958920 0.678104 0.228717
H2    H     H_    0.723655 0.473245 0.885888 0.191917
H3    H     H_    0.756078 0.297537 0.587376 0.207789
H4    H     H_    0.712111 0.131678 0.225191 0.194786
C21   C     C_R   0.919709 0.277058 0.385973 -0.231278
C22   C     C_R   0.948299 0.341314 0.397927 0.322363
C23   C     C_R   0.901106 0.386462 0.335762 -0.212349
C24   C     C_R   0.825033 0.370031 0.263468 0.303681
C25   C     C_R   0.789297 0.312962 0.257673 -0.002430
C26   C     C_R   0.840173 0.262570 0.317174 0.019807
C27   C     C_R   0.811461 0.196675 0.304237 -0.027279
C28   C     C_R   0.733586 0.182456 0.235454 -0.116580
H5    H     H_    0.617752 0.226680 0.131989 0.164573
C29   C     C_R   0.680371 0.236010 0.182108 -0.135889
C30   C     C_R   0.705710 0.302545 0.194212 -0.020489
C31   C     C_R   0.873780 0.723868 0.413331 -0.115830
C32   C     C_R   0.865252 0.679152 0.450329 -0.206481
C33   C     C_R   0.784900 0.665099 0.418517 0.248920
C34   C     C_R   0.714188 0.692800 0.345059 0.264022
C35   C     C_R   0.733743 0.715280 0.293887 -0.016586
C36   C     C_R   0.805234 0.747420 0.337376 0.027156
C37   C     C_R   0.805524 0.801515 0.302859 -0.177355
C38   C     C_R   0.747008 0.805011 0.215661 0.305265
C39   C     C_R   0.694109 0.751082 0.163530 -0.219203
C40   C     C_R   0.686821 0.705822 0.201138 -0.095997
C41   C     C_R   0.206193 0.941711 0.827921 -0.067881
C42   C     C_R   0.239173 0.983614 0.919555 -0.138603
C43   C     C_R   0.293208 0.933429 0.976845 -0.151720
C44   C     C_R   0.314838 0.840427 0.943628 0.327695
C45   C     C_R   0.283151 0.795532 0.849150 -0.027024
C46   C     C_R   0.228090 0.847607 0.791055 0.018523
C47   C     C_R   0.195515 0.804976 0.697175 -0.146742
C48   C     C_R   0.216928 0.711028 0.659768 0.326995
H6    H     H_    0.288507 0.588646 0.689963 0.194846
C49   C     C_R   0.271304 0.660855 0.717328 -0.216745
C50   C     C_R   0.304021 0.701287 0.809669 -0.125022
C51   C     C_R   0.289420 0.695857 0.396904 -0.258206
H7    H     H_    0.245880 0.732210 0.436350 0.207639
C52   C     C_R   0.362723 0.621415 0.417217 0.259277
C53   C     C_R   0.417733 0.567576 0.363437 0.266036
C54   C     C_R   0.396502 0.588185 0.289169 -0.263158
H8    H     H_    0.437382 0.542921 0.246913 0.192777
C55   C     C_R   0.324883 0.665234 0.270301 0.045155
C56   C     C_R   0.270456 0.720016 0.325096 0.048626
C57   C     C_R   0.196427 0.795549 0.304184 -0.031812
C58   C     C_R   0.175202 0.813177 0.228361 -0.182567
C59   C     C_R   0.228677 0.760009 0.175199 -0.143791
C60   C     C_R   0.304392 0.687896 0.196551 -0.044711
H9    H     H_    0.087246 0.319833 0.713992 0.191748
C61   C     C_R   0.343589 0.067666 0.737345 0.339020
C62   C     C_R   0.431096 0.027197 0.735360 -0.227766
C63   C     C_R   0.469632 0.073885 0.732118 -0.218233
C64   C     C_R   0.425609 0.165052 0.741205 0.335422
C65   C     C_R   0.341796 0.208997 0.755187 -0.055503
C66   C     C_R   0.293882 0.156114 0.733028 -0.063700
C67   C     C_R   0.198880 0.194760 0.706746 -0.033376
C68   C     C_R   0.159074 0.288069 0.730425 -0.119046
H10   H     H_    0.180060 0.413583 0.802085 0.185155
C69   C     C_R   0.211740 0.341723 0.777678 -0.145813
C70   C     C_R   0.303812 0.303073 0.792028 -0.025236
Zn5   Zn    Zn3+2 0.543340 0.369890 0.956600 1.070764
Zn6   Zn    Zn3+2 0.543340 0.543410 0.130100 1.128868
Zn7   Zn    Zn3+2 0.369830 0.543410 0.956590 1.053124
Zn8   Zn    Zn3+2 0.543370 0.543400 0.956600 1.077423
O14   O     O_3   0.499970 0.500030 0.999970 -0.526970
O15   O     O_R   0.615800 0.615830 0.055050 -0.639690
O16   O     O_R   0.444880 0.323510 0.884180 -0.631268
O17   O     O_R   0.615760 0.444950 0.176490 -0.607636
O18   O     O_R   0.323460 0.615830 0.884170 -0.605481
O19   O     O_R   0.444880 0.615840 0.176480 -0.605365
O20   O     O_R   0.615800 0.444940 0.884180 -0.657798
O21   O     O_R   0.323440 0.615840 0.055040 -0.625650
O22   O     O_R   0.615780 0.323500 0.884180 -0.595457
O23   O     O_R   0.615760 0.323500 0.055050 -0.624640
O24   O     O_R   0.444910 0.615830 0.884180 -0.610007
O25   O     O_R   0.615780 0.615830 0.176490 -0.591167
O26   O     O_R   0.323430 0.444950 0.884170 -0.653438
C71   C     C_R   0.636940 0.643381 0.141093 0.962982
C72   C     C_R   0.359871 0.359769 0.855540 0.834497
C73   C     C_R   0.641636 0.359902 0.139835 0.857152
C74   C     C_R   0.360121 0.641166 0.861374 0.893265
C75   C     C_R   0.360110 0.637863 0.140181 0.832109
C76   C     C_R   0.646489 0.359879 0.865740 0.869477
N1    N     N_R   0.740471 0.467984 0.641520 0.241594
O27   O     O_R   0.725095 0.553777 0.672740 -0.294667
O28   O     O_R   0.756552 0.421313 0.566112 -0.304301
H11   H     H_    0.960994 0.238352 0.430850 0.191887
N2    N     N_R   0.027464 0.357830 0.470836 0.238465
O29   O     O_R   0.053466 0.418305 0.482478 -0.335987
O30   O     O_R   0.073277 0.313952 0.527426 -0.381234
H12   H     H_    0.926287 0.431614 0.340746 0.213006
N3    N     N_R   0.792731 0.403258 0.192251 0.190264
O31   O     O_R   0.786803 0.347417 0.111093 -0.435295
O32   O     O_R   0.792107 0.482114 0.211265 -0.433162
N4    N     N_R   0.738800 0.863809 0.179467 0.231537
O33   O     O_R   0.736968 0.834089 0.097504 -0.344728
O34   O     O_R   0.714776 0.949794 0.220893 -0.352309
H13   H     H_    0.936098 0.735725 0.442131 0.209618
H14   H     H_    0.920452 0.658209 0.506060 0.217777
N5    N     N_R   0.776849 0.621864 0.460322 0.248127
O35   O     O_R   0.817292 0.634901 0.545917 -0.298279
O36   O     O_R   0.743506 0.557416 0.411021 -0.304224
N6    N     N_R   0.622097 0.720886 0.337180 0.237044
O37   O     O_R   0.560678 0.781831 0.300039 -0.331017
O38   O     O_R   0.600290 0.695983 0.376739 -0.285729
N7    N     N_R   0.737484 0.025532 0.567132 0.240705
O39   O     O_R   0.694545 0.072841 0.513997 -0.359490
O40   O     O_R   0.755192 0.939252 0.531940 -0.359879
H15   H     H_    0.654484 0.748568 0.094531 0.215707
N8    N     N_R   0.186277 0.664811 0.564276 0.221314
O41   O     O_R   0.226627 0.579500 0.531521 -0.291812
O42   O     O_R   0.115150 0.704938 0.509903 -0.447230
H16   H     H_    0.163378 0.984081 0.786323 0.147201
H17   H     H_    0.222126 0.055666 0.946399 0.184846
H18   H     H_    0.317410 0.967319 0.048268 0.192100
N9    N     N_R   0.367020 0.794512 0.007902 0.171473
O43   O     O_R   0.326528 0.776715 0.035403 -0.410844
O44   O     O_R   0.448845 0.793374 0.055583 -0.388414
H19   H     H_    0.118168 0.870145 0.211603 0.174717
N10   N     N_R   0.377607 0.599269 0.490009 0.251178
O45   O     O_R   0.360536 0.662556 0.561839 -0.335056
O46   O     O_R   0.397792 0.516685 0.480657 -0.278800
N11   N     N_R   0.496757 0.493644 0.384750 0.252226
O47   O     O_R   0.547901 0.500769 0.467720 -0.250358
O48   O     O_R   0.524846 0.424368 0.321282 -0.376541
H20   H     H_    0.212120 0.776741 0.118198 0.195165
N12   N     N_R   0.312020 0.024491 0.757823 0.227248
O49   O     O_R   0.345167 0.938091 0.739964 -0.340622
O50   O     O_R   0.258362 0.072347 0.804470 -0.445287
H21   H     H_    0.469741 0.959217 0.736264 0.228912
H22   H     H_    0.534559 0.038982 0.723743 0.227199
N13   N     N_R   0.460359 0.208300 0.724324 0.231169
O51   O     O_R   0.406320 0.272516 0.690012 -0.365714
O52   O     O_R   0.543812 0.175170 0.730323 -0.379539
N14   N     N_R   0.761068 0.028427 0.848537 0.224120
O53   O     O_R   0.771726 0.943506 0.814462 -0.335760
O54   O     O_R   0.755261 0.072387 0.928617 -0.355248
H23   H     H_    0.744550 0.199312 0.903523 0.211239
H24   H     H_    0.726903 0.543394 0.806470 0.203301

loop_
_geom_bond_atom_site_label_1
_geom_bond_atom_site_label_2
_geom_bond_distance
_ccdc_geom_bond_type
C61   C62   1.402408 A    
C24   N3    1.436162 S    
N10   O45   1.301462 A    
Zn5   O22   1.935953 S    
C12   C16   1.419157 A    
N13   O51   1.301692 A    
O20   C76   1.280612 A    
H10   C69   1.083119 S    
C31   H13   1.080073 S    
C3    C67   1.473042 S    
C22   N2    1.441628 S    
C1    C47   1.448351 S    
C56   C57   1.420894 A    
C64   C65   1.423147 A    
C21   H11   1.078099 S    
C35   C40   1.426381 A    
C41   H16   1.081763 S    
C31   C32   1.391305 A    
O6    C5    1.274232 A    
Zn8   O24   1.926292 S    
N5    O36   1.301382 A    
C9    C10   1.400636 A    
C67   C68   1.401130 A    
C51   C52   1.401036 A    
C58   C59   1.380930 A    
Zn1   O1    1.944025 S    
C18   H24   1.082628 S    
C5    C57   1.456267 S    
C11   C12   1.407775 A    
N8    O42   1.300525 A    
N6    O38   1.300363 A    
C4    C37   1.462944 S    
C20   H3    1.080983 S    
C39   H15   1.084038 S    
C13   C14   1.424358 A    
C34   N6    1.449320 S    
C54   C55   1.414254 A    
C7    N7    1.442538 S    
N7    O39   1.301711 A    
O8    C5    1.278391 A    
C29   C30   1.395500 A    
C34   C35   1.427756 A    
O9    C6    1.285644 A    
C17   C18   1.393658 A    
C25   C26   1.419838 A    
H4    C28   1.084303 S    
O7    C6    1.282504 A    
C60   C75   1.455753 S    
C7    C12   1.426778 A    
Zn3   O8    1.936539 S    
H9    C68   1.083244 S    
O16   C72   1.278987 A    
C23   H12   1.082853 S    
N8    O41   1.301881 A    
N4    O33   1.301229 A    
C6    C16   1.486796 S    
C19   C20   1.401073 A    
C7    C8    1.403708 A    
Zn3   O13   1.926504 S    
C45   C50   1.419641 A    
N9    O44   1.300633 A    
Zn2   O12   1.926117 S    
C30   C73   1.447486 S    
Zn8   O20   1.934849 S    
C61   N12   1.439688 S    
C9    N14   1.440696 S    
C37   C38   1.417682 A    
Zn8   O15   1.939652 S    
C61   C66   1.423983 A    
O18   C74   1.276223 A    
N13   O52   1.300612 A    
O17   C73   1.278208 A    
C39   C40   1.394699 A    
O2    C1    1.275894 A    
O19   C75   1.275010 A    
N14   O54   1.301760 A    
C52   C53   1.408918 A    
Zn6   O17   1.926503 S    
C52   N10   1.437035 S    
C51   H7    1.079628 S    
C42   H17   1.082605 S    
C45   C46   1.420123 A    
Zn8   O14   1.946070 S    
O10   C3    1.287810 A    
Zn7   O26   1.940358 S    
N6    O37   1.302384 A    
Zn4   O2    1.926347 S    
O22   C76   1.290758 A    
C65   C66   1.408941 A    
C54   H8    1.078682 S    
Zn5   O23   1.925037 S    
C58   H19   1.084033 S    
C28   C29   1.377034 A    
C8    C9    1.398706 A    
C53   C54   1.401189 A    
C65   C70   1.418522 A    
C17   H2    1.079444 S    
C38   C39   1.387982 A    
Zn4   O7    1.934851 S    
C18   C19   1.396926 A    
N11   O48   1.301724 A    
N10   O46   1.301417 A    
O15   C71   1.291912 A    
C22   C23   1.395851 A    
C63   H22   1.082821 S    
C55   C60   1.420194 A    
Zn3   O5    1.941999 S    
C8    H1    1.082317 S    
C26   C27   1.421178 A    
O11   C4    1.279552 A    
C62   H21   1.082596 S    
C32   H14   1.082970 S    
C69   C70   1.401885 A    
C33   C34   1.417762 A    
Zn7   O14   1.946588 S    
H5    C29   1.084446 S    
C14   C17   1.416926 A    
O4    C3    1.274121 A    
C15   C20   1.416216 A    
C59   C60   1.396216 A    
C70   C72   1.470182 S    
C68   C69   1.385600 A    
N1    O27   1.301588 A    
C59   H20   1.084061 S    
N4    O34   1.301515 A    
C27   C28   1.392354 A    
C43   C44   1.398602 A    
O3    C2    1.273320 A    
N2    O29   1.301607 A    
C50   C74   1.442646 S    
C55   C56   1.414363 A    
Zn2   O1    1.946588 S    
Zn1   O9    1.935907 S    
C21   C22   1.399034 A    
C51   C56   1.413978 A    
C10   H23   1.080852 S    
N14   O53   1.301600 A    
Zn2   O6    1.933925 S    
C23   C24   1.401129 A    
O21   C75   1.277329 A    
N3    O31   1.301500 A    
N7    O40   1.301767 A    
C32   C33   1.398335 A    
N12   O49   1.301649 A    
C38   N4    1.435944 S    
Zn1   O3    1.925039 S    
C46   C47   1.419164 A    
C14   C15   1.407822 A    
Zn2   O4    1.940359 S    
C49   C50   1.392842 A    
Zn3   O1    1.941418 S    
Zn6   O25   1.941998 S    
C44   N9    1.430033 S    
O26   C72   1.281005 A    
C31   C36   1.411377 A    
Zn1   O10   1.941614 S    
Zn6   O19   1.936394 S    
N5    O35   1.301357 A    
C41   C46   1.414628 A    
Zn7   O18   1.925971 S    
C33   N5    1.436096 S    
O23   C73   1.272641 A    
C15   C16   1.414826 A    
C43   H18   1.083233 S    
N12   O50   1.301416 A    
C19   N1    1.440433 S    
C36   C37   1.416640 A    
C40   C71   1.465014 S    
Zn5   O14   1.944173 S    
C42   C43   1.385873 A    
C25   C30   1.423636 A    
O24   C74   1.276333 A    
O5    C4    1.273802 A    
C35   C36   1.402674 A    
C13   C76   1.489209 S    
Zn4   O11   1.939651 S    
Zn5   O16   1.941365 S    
Zn4   O1    1.945919 S    
C64   N13   1.441232 S    
C11   C13   1.418118 A    
C66   C67   1.425348 A    
O13   C2    1.278931 A    
C44   C45   1.432542 A    
C21   C26   1.414325 A    
C47   C48   1.413186 A    
N11   O47   1.301321 A    
N1    O28   1.301844 A    
C53   N11   1.438917 S    
C41   C42   1.388313 A    
C24   C25   1.429371 A    
Zn7   O21   1.933819 S    
Zn6   O14   1.941416 S    
H6    C49   1.084719 S    
C62   C63   1.391205 A    
O12   C1    1.277316 A    
C57   C58   1.395992 A    
C10   C11   1.412695 A    
N2    O30   1.301703 A    
C48   C49   1.389330 A    
C48   N8    1.448521 S    
O25   C71   1.263378 A    
N9    O43   1.300778 A    
C63   C64   1.402315 A    
C2    C27   1.451055 S    
N3    O32   1.300769 A    
