data_mof_unit_6763.cif
_audit_creation_date              2012-12-10T17:35:34-0500
_audit_creation_method            fapswitch 2.2
_symmetry_space_group_name_H-M    P1
_symmetry_Int_Tables_number       1
_space_group_crystal_system       triclinic
_cell_length_a                    10.714071
_cell_length_b                    12.421801
_cell_length_c                    13.418963
_cell_angle_alpha                 117.496305
_cell_angle_beta                  75.002629
_cell_angle_gamma                 100.610185
_cell_volume                      1525.84635108

loop_
_atom_site_label
_atom_site_type_symbol
_atom_type_description
_atom_site_fract_x
_atom_site_fract_y
_atom_site_fract_z
_atom_type_partial_charge
C1    C     C_R   0.514079 0.854937 0.286696 0.757294
C2    C     C_3   0.122786 0.000266 0.498241 0.130086
C3    C     C_3   0.040861 0.037244 0.621256 -0.382953
C4    C     C_3   0.071537 0.871994 0.417745 -0.346631
C5    C     C_R   0.607151 0.283245 0.989658 -0.219486
C6    C     C_R   0.501773 0.225990 0.831201 -0.100750
C7    C     C_R   0.443887 0.811433 0.106033 -0.030388
C8    C     C_R   0.411692 0.727407 0.001689 -0.166310
C9    C     C_R   0.433345 0.605425 0.957231 -0.186099
C10   C     C_R   0.494572 0.564082 0.013354 0.083930
C11   C     C_R   0.538898 0.651689 0.113983 0.077773
C12   C     C_R   0.739794 0.999438 0.499106 0.730787
C13   C     C_R   0.515614 0.439045 0.972044 0.082323
C14   C     C_R   0.586730 0.405555 0.027457 0.136213
C15   C     C_R   0.641016 0.494684 0.117817 -0.207413
C16   C     C_R   0.619305 0.616068 0.159582 -0.181521
C17   C     C_R   0.470534 0.346187 0.876153 -0.236764
C18   C     C_R   0.565518 0.193031 0.891630 -0.034779
C19   C     C_R   0.504654 0.773727 0.165561 -0.145320
C20   C     C_R   0.726819 0.348239 0.341546 -0.302531
C21   C     C_R   0.303172 0.747971 0.619933 0.092664
C22   C     C_R   0.241351 0.636021 0.609858 -0.251962
C23   C     C_R   0.487494 0.144679 0.712666 0.809833
C24   C     C_R   0.310694 0.532768 0.548399 -0.143418
C25   C     C_R   0.445834 0.542241 0.509795 0.011024
C26   C     C_R   0.498248 0.653248 0.504524 0.290405
C27   C     C_R   0.526687 0.442665 0.464363 -0.068637
C28   C     C_R   0.650832 0.448861 0.395614 0.100798
C29   C     C_R   0.697124 0.555718 0.382508 -0.073608
C30   C     C_R   0.619738 0.653497 0.433337 -0.245329
C31   C     C_R   0.495271 0.341512 0.491634 0.301595
C32   C     C_R   0.685059 0.246687 0.361829 0.054618
C33   C     C_R   0.260651 0.999909 0.499212 0.770118
C34   C     C_3   0.962751 0.090419 0.453488 -0.373162
C35   C     C_3   0.105495 0.091677 0.454605 -0.358371
C36   C     C_3   0.896896 0.038684 0.621772 -0.369301
C37   C     C_3   0.926676 0.871484 0.420532 -0.372566
C38   C     C_3   0.878420 0.000030 0.498703 0.143806
Cu1   Cu    Cu3+1 0.529690 0.098270 0.475420 0.968970
Cu2   Cu    Cu3+1 0.470310 0.901730 0.524580 0.942362
H1    H     H_    0.930515 0.184153 0.507900 0.185032
H2    H     H_    0.084086 0.802912 0.444683 0.189048
H3    H     H_    0.837339 0.975372 0.656172 0.190722
H4    H     H_    0.050107 0.972053 0.653998 0.166747
H5    H     H_    0.702296 0.469233 0.154351 0.160963
H6    H     H_    0.659828 0.258636 0.034312 0.143126
H7    H     H_    0.413225 0.365045 0.832571 0.172430
H8    H     H_    0.403099 0.546628 0.877434 0.167593
H9    H     H_    0.365317 0.755708 0.955635 0.156629
H10   H     H_    0.952126 0.063813 0.364498 0.164198
H11   H     H_    0.669203 0.682714 0.225666 0.134873
H12   H     H_    0.744004 0.169813 0.320714 0.128621
H13   H     H_    0.819127 0.347575 0.284343 0.159028
H14   H     H_    0.247764 0.827263 0.662931 0.124690
H15   H     H_    0.256327 0.445568 0.527281 0.168480
H16   H     H_    0.138695 0.628326 0.644368 0.151173
H17   H     H_    0.654193 0.724862 0.408762 0.189613
H18   H     H_    0.164065 0.067870 0.366622 0.189278
H19   H     H_    0.139366 0.185411 0.510960 0.200882
H20   H     H_    0.863802 0.131508 0.679604 0.161196
H21   H     H_    0.077029 0.129037 0.680211 0.175039
H22   H     H_    0.870874 0.807110 0.454931 0.187792
H23   H     H_    0.910810 0.839402 0.332088 0.157673
H24   H     H_    0.127534 0.845361 0.328474 0.164163
N1    N     N_R   0.574690 0.246280 0.438200 -0.182612
N2    N     N_R   0.426100 0.754320 0.561190 -0.200329
O1    O     O_R   0.537340 0.972510 0.318130 -0.568172
O2    O     O_R   0.487200 0.806530 0.359650 -0.580116
O3    O     O_R   0.707380 0.082980 0.479220 -0.591771
O4    O     O_R   0.657240 0.917000 0.520740 -0.601854
O5    O     O_R   0.512800 0.193470 0.640350 -0.543506
O6    O     O_R   0.462660 0.027490 0.681870 -0.573425
O7    O     O_R   0.342760 0.083000 0.479260 -0.553158
O8    O     O_R   0.292620 0.917020 0.520780 -0.601611
C39   C     C_1   0.595343 0.069376 0.852537 0.251378
N3    N     N_1   0.618842 0.970265 0.821617 -0.287207
C40   C     C_1   0.408690 0.934629 0.151039 0.255678
N4    N     N_1   0.380753 0.033274 0.186678 -0.289638
C41   C     C_1   0.826218 0.568556 0.318819 0.164506
N5    N     N_1   0.929239 0.577869 0.267441 -0.299557
I1    I     I_    0.345851 0.351522 0.637112 -0.474896

loop_
_geom_bond_atom_site_label_1
_geom_bond_atom_site_label_2
_ccdc_geom_bond_type
C2    C35   S    
C12   O3    A    
C18   C39   S    
C21   N2    A    
C16   H11   S    
C37   H22   S    
C7    C8    A    
C40   N4    T    
C24   H15   S    
C11   C19   A    
C37   C38   S    
Cu2   O4    S    
C35   H18   S    
C28   C29   A    
C21   H14   S    
C15   C16   A    
C30   H17   S    
C1    O2    A    
C35   H19   S    
C34   C35   S    
C32   H12   S    
C8    C9    A    
C9    C10   A    
C7    C40   S    
Cu2   N2    S    
C13   C14   A    
Cu1   N1    S    
C34   H1    S    
C37   H23   S    
C3    H21   S    
C6    C18   A    
C3    H4    S    
C34   H10   S    
C1    C19   S    
C27   C31   A    
C26   N2    A    
C23   O5    A    
C24   C25   A    
Cu1   Cu2   S    
C22   H16   S    
C5    C18   A    
C20   C28   A    
C25   C26   A    
C2    C4    S    
C39   N3    T    
C29   C30   A    
C11   C16   A    
C29   C41   S    
Cu1   O3    S    
C5    C14   A    
C2    C33   S    
C33   O7    A    
C26   C30   A    
C7    C19   A    
C22   C24   A    
C15   H5    S    
C20   C32   A    
C31   N1    A    
C6    C17   A    
C12   O4    A    
Cu2   O6    S    
C34   C38   S    
Cu1   O1    S    
C23   O6    A    
C17   H7    S    
C20   H13   S    
C36   H20   S    
C10   C13   A    
C25   C27   A    
C5    H6    S    
C4    H24   S    
C31   I1    S    
C13   C17   A    
C36   C38   S    
C2    C3    S    
C4    H2    S    
C3    C36   S    
C6    C23   S    
C1    O1    A    
Cu2   O8    S    
Cu1   O7    S    
C12   C38   S    
C10   C11   A    
C41   N5    T    
C33   O8    A    
C4    C37   S    
C9    H8    S    
Cu2   O2    S    
C27   C28   A    
Cu1   O5    S    
C14   C15   A    
C36   H3    S    
C21   C22   A    
C8    H9    S    
C32   N1    A    
