data_mof_unit_40795.cif
_audit_creation_date              2013-03-05T15:46:45-0500
_audit_creation_method            fapswitch 2.2
_symmetry_space_group_name_H-M    P1
_symmetry_Int_Tables_number       1
_space_group_crystal_system       triclinic
_cell_length_a                    10.245961
_cell_length_b                    10.518973
_cell_length_c                    12.393493
_cell_angle_alpha                 91.21171
_cell_angle_beta                  109.821943
_cell_angle_gamma                 94.32535
_cell_volume                      1251.45838802

loop_
_atom_site_label
_atom_site_type_symbol
_atom_site_description
_atom_site_fract_x
_atom_site_fract_y
_atom_site_fract_z
_atom_type_partial_charge
O1    O     O_R   0.936910 0.692950 0.509080 -0.586413
O2    O     O_R   0.138320 0.658600 0.480130 -0.575326
C1    C     C_R   0.046875 0.733583 0.487853 0.863942
O3    O     O_R   0.002900 0.525670 0.675280 -0.544896
O4    O     O_R   0.204310 0.491320 0.646330 -0.616883
C2    C     C_R   0.134268 0.509492 0.714134 0.932296
Zn1   Zn    Zn3+2 0.865520 0.522940 0.519330 1.093278
Zn2   Zn    Zn3+2 0.134480 0.477060 0.480670 0.995732
O5    O     O_R   0.861680 0.341400 0.519870 -0.589065
O6    O     O_R   0.063090 0.307050 0.490920 -0.633637
O7    O     O_R   0.795690 0.508680 0.353670 -0.602655
O8    O     O_R   0.997100 0.474330 0.324720 -0.621710
C3    C     C_R   0.947424 0.265395 0.502621 0.919518
C4    C     C_R   0.865414 0.487602 0.286064 0.824786
C5    C     C_R   0.733822 0.323764 0.993964 -0.086872
H1    H     H_    0.929250 0.334664 0.132670 0.159231
H2    H     H_    0.767384 0.253652 0.946321 0.197598
C6    C     C_R   0.787755 0.460805 0.164901 -0.056297
C7    C     C_R   0.163937 0.588948 0.913388 0.252853
C8    C     C_R   0.236037 0.591073 0.030948 -0.258692
C9    C     C_R   0.360121 0.533032 0.073676 0.272061
C10   C     C_R   0.415509 0.474723 0.995908 -0.014130
C11   C     C_R   0.327037 0.444980 0.882759 -0.039329
C12   C     C_R   0.555546 0.445753 0.026017 0.090872
C13   C     C_R   0.596384 0.360164 0.955528 0.038664
C14   C     C_R   0.497438 0.310655 0.851025 0.279159
C15   C     C_R   0.363527 0.351559 0.816831 -0.193499
C16   C     C_R   0.657547 0.505915 0.122171 -0.112027
C17   C     C_R   0.827984 0.371527 0.099756 -0.183766
C18   C     C_R   0.206670 0.511930 0.838346 -0.212723
H3    H     H_    0.634819 0.584190 0.169041 0.167323
H4    H     H_    0.196528 0.640360 0.089469 0.217322
H5    H     H_    0.289034 0.310063 0.737161 0.197159
H6    H     H_    0.009252 0.117263 0.359511 0.169116
C19   C     C_2   0.064648 0.868919 0.470111 0.094232
C20   C     C_2   0.952999 0.927671 0.404123 -0.023969
C21   C     C_2   0.910846 0.128524 0.484777 -0.098302
C22   C     C_2   0.956261 0.065782 0.410132 -0.082797
H7    H     H_    0.572377 0.399709 0.446138 0.191982
H8    H     H_    0.429372 0.592184 0.563867 0.173362
N1    N     N_2   0.313640 0.446500 0.454900 -0.093889
C23   C     C_2   0.432089 0.511111 0.509549 0.118305
N2    N     N_2   0.686360 0.553430 0.545150 -0.024290
C24   C     C_2   0.570035 0.481948 0.499189 0.065391
N3    N     N_3   0.826055 0.858880 0.330521 -0.423545
H9    H     H_    0.771350 0.817152 0.379991 0.238096
H10   H     H_    0.850061 0.787902 0.281687 0.178897
N4    N     N_3   0.834052 0.065180 0.548903 -0.376493
H11   H     H_    0.894666 0.997597 0.598306 0.253805
H12   H     H_    0.743544 0.017292 0.490881 0.244456
N5    N     N_R   0.197978 0.937397 0.530346 0.230036
O9    O     O_R   0.282864 0.890885 0.621533 -0.299657
O10   O     O_R   0.243820 0.033778 0.485261 -0.372013
N6    N     N_R   0.690011 0.650102 0.624861 0.296432
O11   O     O_R   0.753480 0.761015 0.622024 -0.316441
O12   O     O_R   0.662868 0.621934 0.717322 -0.335994
N7    N     N_3   0.316367 0.339882 0.388083 -0.333300
H13   H     H_    0.241568 0.348248 0.307274 0.225299
H14   H     H_    0.281541 0.261096 0.423721 0.250720
N8    N     N_R   0.532732 0.225918 0.774865 0.201031
O13   O     O_R   0.446091 0.128952 0.723021 -0.281514
O14   O     O_R   0.635954 0.259310 0.739763 -0.372304
N9    N     N_R   0.049871 0.667136 0.872154 0.244901
O15   O     O_R   0.959977 0.671603 0.924987 -0.328407
O16   O     O_R   0.051758 0.752164 0.797803 -0.321570
N10   N     N_R   0.418230 0.519521 0.195120 0.181526
O17   O     O_R   0.467187 0.412592 0.233845 -0.428201
O18   O     O_R   0.408254 0.607486 0.266635 -0.418780

loop_
_geom_bond_atom_site_label_1
_geom_bond_atom_site_label_2
_geom_bond_distance
_ccdc_geom_bond_type
O4    Zn2   1.929819 S    
N10   O18   1.301239 A    
N2    C24   1.302555 D    
N9    O16   1.301449 A    
N6    O12   1.302433 A    
C5    H2    1.080906 S    
C21   C22   1.349208 D    
Zn1   N2    2.014394 S    
C9    N10   1.433216 S    
N1    C23   1.300837 D    
C4    C6    1.451008 S    
N2    N6    1.392160 S    
C3    C21   1.452979 S    
C7    C8    1.391116 A    
C1    C19   1.452384 S    
Zn2   O8    1.965759 S    
C8    C9    1.394155 A    
H8    C23   1.083164 S    
N10   O17   1.300678 A    
N7    H13   1.044737 S    
N1    N7    1.387604 S    
C20   N3    1.439755 S    
C6    C17   1.398461 A    
O1    Zn1   1.903840 S    
C9    C10   1.423259 A    
C15   H5    1.080941 S    
C21   N4    1.436007 S    
Zn1   O7    1.929819 S    
C6    C16   1.382904 A    
C14   C15   1.396306 A    
H7    C24   1.082112 S    
C23   C24   1.514955 S    
O3    Zn1   1.965759 S    
N4    H12   1.045354 S    
N4    H11   1.045506 S    
C2    C18   1.463479 S    
O8    C4    1.289314 A    
C5    C17   1.394071 A    
C11   C15   1.414823 A    
N3    H10   1.045837 S    
C19   N5    1.442073 S    
O4    C2    1.296375 A    
Zn2   O6    1.903841 S    
O7    C4    1.297510 A    
C10   C12   1.413666 A    
N7    H14   1.042588 S    
C5    C13   1.410893 A    
N5    O10   1.300303 A    
N5    O9    1.301531 A    
C11   C18   1.416662 A    
C12   C16   1.391594 A    
C20   C22   1.450404 S    
C12   C13   1.421364 A    
H1    C17   1.083348 S    
O3    C2    1.292665 A    
C8    H4    1.083318 S    
O2    Zn2   1.907250 S    
Zn1   O5    1.907252 S    
O5    C3    1.297226 A    
N6    O11   1.299271 A    
O2    C1    1.295466 A    
Zn2   N1    2.014271 S    
C13   C14   1.406337 A    
H6    C22   1.087506 S    
C7    C18   1.418025 A    
C14   N8    1.435523 S    
O6    C3    1.287798 A    
C16   H3    1.081674 S    
N8    O14   1.301398 A    
C10   C11   1.400937 A    
N9    O15   1.301346 A    
C7    N9    1.435691 S    
N8    O13   1.300046 A    
O1    C1    1.286267 A    
C19   C20   1.361217 D    
N3    H9    1.044063 S    
