data_mof_unit_9061.cif
_audit_creation_date              2013-03-05T15:55:00-0500
_audit_creation_method            fapswitch 2.2
_symmetry_space_group_name_H-M    P1
_symmetry_Int_Tables_number       1
_space_group_crystal_system       triclinic
_cell_length_a                    23.410293
_cell_length_b                    10.633285
_cell_length_c                    9.988537
_cell_angle_alpha                 87.095167
_cell_angle_beta                  91.982761
_cell_angle_gamma                 93.969665
_cell_volume                      2476.07074004

loop_
_atom_site_label
_atom_site_type_symbol
_atom_site_description
_atom_site_fract_x
_atom_site_fract_y
_atom_site_fract_z
_atom_type_partial_charge
O1    O     O_R   0.500000 0.316780 0.614690 -0.681581
O2    O     O_R   0.500000 0.316750 0.385360 -0.565039
C1    C     C_R   0.507437 0.261794 0.504418 0.962707
O3    O     O_R   0.416160 0.499970 0.614690 -0.629249
O4    O     O_R   0.416150 0.499950 0.385360 -0.571735
C2    C     C_R   0.389675 0.500038 0.498353 0.947708
Zn1   Zn    Zn3+2 0.500000 0.500020 0.653130 1.026701
Zn2   Zn    Zn3+2 0.500000 0.499980 0.346870 1.066304
O5    O     O_R   0.500000 0.683250 0.614640 -0.592071
O6    O     O_R   0.500000 0.683220 0.385310 -0.615675
O7    O     O_R   0.583850 0.500050 0.614640 -0.591950
O8    O     O_R   0.583840 0.500030 0.385310 -0.609581
C3    C     C_R   0.496719 0.739827 0.496704 0.921180
C4    C     C_R   0.610572 0.500067 0.501982 0.949486
C5    C     C_R   0.884786 0.602453 0.533112 0.637451
N1    N     N_R   0.852832 0.491694 0.515877 -0.330544
C6    C     C_R   0.877267 0.380829 0.498890 0.663677
C7    C     C_R   0.936825 0.378581 0.497582 -0.081882
C8    C     C_R   0.970637 0.491735 0.513397 -0.004127
C9    C     C_R   0.944453 0.604958 0.531804 -0.027428
C10   C     C_R   0.962953 0.265953 0.482257 -0.170026
C11   C     C_R   0.022527 0.263869 0.481923 0.335079
C12   C     C_R   0.057049 0.378569 0.491514 -0.142346
C13   C     C_R   0.030640 0.492085 0.509914 -0.040156
C14   C     C_R   0.064027 0.606641 0.524161 -0.023691
C15   C     C_R   0.037527 0.718511 0.543410 -0.081189
C16   C     C_R   0.978243 0.717673 0.547213 -0.093029
C17   C     C_R   0.116927 0.385668 0.480233 0.557921
N2    N     N_R   0.148255 0.497349 0.497312 -0.366079
C18   C     C_R   0.123409 0.606436 0.519290 0.539142
O9    O     O_2   0.858669 0.709572 0.549942 -0.497589
O10   O     O_2   0.843838 0.273581 0.483486 -0.489667
O11   O     O_2   0.143986 0.283561 0.449235 -0.451848
O12   O     O_2   0.156309 0.714089 0.536847 -0.488526
H1    H     H_    0.062470 0.807195 0.554936 0.236216
C19   C     C_R   0.238894 0.561178 0.390853 -0.063022
C20   C     C_R   0.298259 0.561857 0.390867 -0.045001
C21   C     C_R   0.327657 0.499496 0.496253 0.014353
C22   C     C_R   0.297575 0.438454 0.602586 -0.140706
H2    H     H_    0.319776 0.390302 0.684950 0.162172
C23   C     C_R   0.238392 0.438012 0.602492 -0.060129
C24   C     C_R   0.209064 0.498898 0.496554 0.258327
C25   C     C_R   0.761671 0.494287 0.388131 0.306382
C26   C     C_R   0.702241 0.496387 0.386492 -0.183913
H3    H     H_    0.678950 0.499001 0.290891 0.223048
C27   C     C_R   0.672929 0.497072 0.506180 -0.144205
C28   C     C_R   0.703284 0.493491 0.629271 -0.203591
C29   C     C_R   0.762791 0.491422 0.634353 0.309527
C30   C     C_R   0.792009 0.492338 0.512872 0.062912
C31   C     C_R   0.505191 0.090139 0.759157 -0.228172
C32   C     C_R   0.481432 0.013310 0.864312 0.249556
C33   C     C_R   0.442629 0.910441 0.832426 0.166611
C34   C     C_R   0.437558 0.872803 0.698293 0.204560
C35   C     C_R   0.474903 0.933923 0.602495 -0.007798
C36   C     C_R   0.498436 0.054306 0.625931 -0.043699
C37   C     C_R   0.519532 0.129371 0.515982 -0.172280
C38   C     C_R   0.541480 0.071381 0.406825 0.310505
H4    H     H_    0.548139 0.893583 0.318946 0.216514
C39   C     C_R   0.528742 0.942645 0.396333 -0.174629
C40   C     C_R   0.494766 0.874772 0.491331 -0.078848
C41   C     C_R   0.426830 0.308831 0.132039 0.364195
C42   C     C_R   0.401623 0.212063 0.055333 -0.046941
C43   C     C_R   0.400931 0.222905 0.918284 -0.281358
C44   C     C_R   0.431270 0.322541 0.855504 -0.138842
H5    H     H_    0.426797 0.326335 0.749672 0.216793
C45   C     C_R   0.465891 0.410678 0.927169 0.122799
C46   C     C_R   0.464630 0.408761 0.071725 0.069151
N3    N     N_R   0.499460 0.498800 0.142780 -0.138869
C47   C     C_R   0.532256 0.586168 0.070230 -0.058938
C48   C     C_R   0.532551 0.586636 0.927855 0.370375
N4    N     N_R   0.499440 0.498720 0.857170 -0.171706
H6    H     H_    0.937164 0.177871 0.474035 0.227213
H7    H     H_    0.680690 0.490053 0.722128 0.240708
N5    N     N_R   0.792761 0.488872 0.762867 0.242992
O13   O     O_R   0.840186 0.432468 0.781110 -0.335126
O14   O     O_R   0.770415 0.535298 0.865560 -0.259882
N6    N     N_R   0.582609 0.137130 0.319145 0.244514
O15   O     O_R   0.603662 0.078621 0.222704 -0.268419
O16   O     O_R   0.608709 0.243272 0.352976 -0.387981
H8    H     H_    0.532930 0.172160 0.782682 0.229557
N7    N     N_R   0.496763 0.041772 0.000994 0.241722
O17   O     O_R   0.526622 0.146023 0.026814 -0.368697
O18   O     O_R   0.485297 0.960324 0.099532 -0.333059
N8    N     N_R   0.408393 0.846768 0.934415 0.277053
O19   O     O_R   0.368662 0.904949 0.988735 -0.348677
O20   O     O_R   0.420678 0.735572 0.982572 -0.331750
N9    N     N_R   0.392169 0.783648 0.654922 0.214882
O21   O     O_R   0.371756 0.792855 0.532212 -0.400545
O22   O     O_R   0.366647 0.702776 0.738935 -0.315147
H9    H     H_    0.558827 0.656309 0.122783 0.174222
N10   N     N_R   0.046613 0.143630 0.478731 0.245299
O23   O     O_R   0.078388 0.104399 0.579735 -0.315105
O24   O     O_R   0.026659 0.063024 0.392112 -0.349186
N11   N     N_R   0.394059 0.322480 0.246051 0.210350
O25   O     O_R   0.347157 0.380215 0.223624 -0.394762
O26   O     O_R   0.393583 0.233629 0.340746 -0.399775
H10   H     H_    0.374079 0.137345 0.101847 0.226514
H11   H     H_    0.375799 0.154611 0.859935 0.198779
N12   N     N_R   0.568204 0.681443 0.859029 0.220315
O27   O     O_R   0.615724 0.650620 0.810305 -0.354970
O28   O     O_R   0.562751 0.799436 0.880889 -0.370748
H12   H     H_    0.959029 0.805627 0.561517 0.216647
H13   H     H_    0.216031 0.608720 0.309210 0.169491
H14   H     H_    0.321213 0.611416 0.309549 0.201106
H15   H     H_    0.215167 0.390477 0.684506 0.165462
N13   N     N_R   0.790427 0.493840 0.262909 0.241509
O29   O     O_R   0.841177 0.549893 0.248508 -0.335695
O30   O     O_R   0.763933 0.445701 0.158791 -0.262505

loop_
_geom_bond_atom_site_label_1
_geom_bond_atom_site_label_2
_geom_bond_distance
_ccdc_geom_bond_type
C36   C37   1.407552 A    
N2    C24   1.422788 S    
C7    C10   1.399387 A    
C23   C24   1.397172 A    
C19   C24   1.398949 A    
C8    C9    1.411168 A    
C4    C27   1.461456 S    
N9    O21   1.301562 A    
N7    O17   1.301222 A    
C22   C23   1.385158 A    
C3    C40   1.437022 S    
C35   C40   1.411297 A    
N6    O15   1.301518 A    
C48   N12   1.427764 S    
Zn1   O7    2.013235 S    
C15   C16   1.389103 A    
C20   C21   1.401336 A    
N5    O14   1.301448 A    
C19   H13   1.082840 S    
O4    C2    1.306343 A    
C19   C20   1.389266 A    
N8    O20   1.300760 A    
C43   H11   1.083131 S    
Zn1   N4    2.037897 S    
C21   C22   1.401392 A    
O7    C4    1.306249 A    
C38   C39   1.389105 A    
N13   O29   1.300979 A    
C5    N1    1.365989 A    
C37   C38   1.408467 A    
C7    C8    1.406385 A    
C33   N8    1.431790 S    
O5    C3    1.297629 A    
C35   C36   1.385884 A    
N8    O19   1.300330 A    
C45   N4    1.360870 A    
N3    C47   1.359846 A    
C11   N10   1.434852 S    
C2    C21   1.450907 S    
C48   N4    1.379113 A    
N2    C18   1.363838 A    
C32   N7    1.441268 S    
C41   C42   1.399489 A    
C20   H14   1.083430 S    
C45   C46   1.444313 A    
C39   C40   1.399012 A    
C10   C11   1.396481 A    
N11   O25   1.301930 A    
O3    Zn1   1.986812 S    
N7    O18   1.300220 A    
C26   C27   1.399456 A    
C6    C7    1.396664 A    
N6    O16   1.300082 A    
C5    C9    1.395749 A    
N5    O13   1.301009 A    
C18   O12   1.350269 S    
C10   H6    1.083759 S    
C32   C33   1.414495 A    
C29   N5    1.441372 S    
C13   C14   1.411731 A    
C28   H7    1.081283 S    
O3    C2    1.298024 A    
C22   H2    1.083368 S    
C41   N11   1.413915 S    
C25   C30   1.412618 A    
H4    C39   1.083438 S    
C34   C35   1.420748 A    
C46   N3    1.416314 A    
O1    C1    1.295381 A    
C25   N13   1.441163 S    
C44   C45   1.403677 A    
C25   C26   1.392531 A    
C42   C43   1.367556 A    
C38   N6    1.444294 S    
N10   O24   1.301218 A    
C42   H10   1.084096 S    
C1    C37   1.453506 S    
C41   C46   1.454954 A    
C28   C29   1.393910 A    
Zn2   O8    1.986809 S    
C31   C32   1.403756 A    
C34   N9    1.444207 S    
C12   C17   1.406693 A    
N1    C30   1.423645 S    
N11   O26   1.302343 A    
C23   H15   1.083043 S    
C29   C30   1.412680 A    
N12   O28   1.300001 A    
O8    C4    1.303578 A    
C17   O11   1.348633 S    
Zn2   N3    2.038831 S    
N9    O22   1.300409 A    
C47   H9    1.082399 S    
N10   O23   1.301373 A    
C26   H3    1.083188 S    
C14   C18   1.392853 A    
Zn1   O5    1.966700 S    
C27   C28   1.398798 A    
C17   N2    1.366925 A    
O1    Zn1   2.004913 S    
O2    Zn2   1.966699 S    
O6    C3    1.298622 A    
C31   H8    1.081369 S    
O4    Zn2   2.013237 S    
C5    O9    1.349958 S    
C9    C16   1.401745 A    
C16   H12   1.083342 S    
C31   C36   1.403394 A    
N12   O27   1.298447 A    
C44   H5    1.057671 S    
O2    C1    1.309717 A    
C14   C15   1.403725 A    
N1    C6    1.366032 A    
N13   O30   1.301400 A    
C8    C13   1.406071 A    
C47   C48   1.422124 A    
C12   C13   1.416555 A    
C43   C44   1.370923 A    
C15   H1    1.083322 S    
Zn2   O6    2.004915 S    
C6    O10   1.349991 S    
C11   C12   1.421214 A    
C33   C34   1.416364 A    
