data_mof_unit_27474.cif
_audit_creation_date              2012-12-11T15:18:36-0500
_audit_creation_method            fapswitch 2.2
_symmetry_space_group_name_H-M    P1
_symmetry_Int_Tables_number       1
_space_group_crystal_system       triclinic
_cell_length_a                    6.94164
_cell_length_b                    19.973036
_cell_length_c                    23.7087
_cell_angle_alpha                 93.331542
_cell_angle_beta                  90.810173
_cell_angle_gamma                 88.627712
_cell_volume                      3280.34343482

loop_
_atom_site_label
_atom_site_type_symbol
_atom_type_description
_atom_site_fract_x
_atom_site_fract_y
_atom_site_fract_z
_atom_type_partial_charge
O1    O     O_R   0.620100 0.812200 0.810870 -0.528750
O2    O     O_R   0.379900 0.187800 0.189130 -0.528748
O3    O     O_R   0.296960 0.671650 0.794750 -0.540224
O4    O     O_R   0.703040 0.328350 0.205250 -0.540226
O5    O     O_R   0.120160 0.687800 0.689130 -0.540005
O6    O     O_R   0.879840 0.312200 0.310870 -0.540010
C1    C     C_R   0.467900 0.647174 0.804738 0.690918
C2    C     C_R   0.532100 0.352826 0.195262 0.690915
O7    O     O_R   0.290810 0.810670 0.817290 -0.543454
O8    O     O_R   0.709190 0.189330 0.182710 -0.543452
O9    O     O_R   0.113980 0.827820 0.711840 -0.539596
O10   O     O_R   0.886020 0.172180 0.288160 -0.539594
C3    C     C_R   0.458345 0.833149 0.833090 0.715643
C4    C     C_R   0.541655 0.166851 0.166910 0.715642
O11   O     O_R   0.626290 0.672180 0.788160 -0.537647
O12   O     O_R   0.373710 0.327820 0.211840 -0.537648
O13   O     O_3   0.451520 0.755460 0.715370 -0.359355
O14   O     O_3   0.548480 0.244540 0.284630 -0.359362
V1    V     V_3+5 0.179200 0.748980 0.756420 1.469544
V2    V     V_3+5 0.820800 0.251020 0.243580 1.469543
O15   O     O_R   0.783880 0.828350 0.705250 -0.535163
O16   O     O_R   0.216120 0.171650 0.294750 -0.535164
C5    C     C_R   0.950378 0.852300 0.694327 0.713825
C6    C     C_R   0.049622 0.147700 0.305673 0.713833
O17   O     O_R   0.790030 0.689320 0.682700 -0.536658
O18   O     O_R   0.209970 0.310680 0.317300 -0.536658
C7    C     C_R   0.960065 0.669993 0.664672 0.701541
C8    C     C_R   0.039935 0.330010 0.335325 0.701542
V3    V     V_3+5 0.678400 0.751010 0.743570 1.490687
V4    V     V_3+5 0.321600 0.248990 0.256430 1.490684
O19   O     O_3   0.955950 0.744540 0.784620 -0.364974
O20   O     O_3   0.044050 0.255460 0.215380 -0.364974
C9    C     C_R   0.167672 0.425345 0.394544 -0.180820
C10   C     C_R   0.832290 0.574680 0.605435 -0.180848
C11   C     C_R   0.026417 0.377186 0.386151 -0.111748
C12   C     C_R   0.973578 0.622824 0.613841 -0.111777
C13   C     C_R   0.872725 0.375716 0.424984 -0.099871
C14   C     C_R   0.127275 0.624296 0.575008 -0.099887
C15   C     C_R   0.856773 0.425707 0.470742 0.011151
C16   C     C_R   0.143202 0.574318 0.529238 0.011152
C17   C     C_R   0.003251 0.474793 0.477515 0.056371
C18   C     C_R   0.996719 0.525233 0.522464 0.056356
C19   C     C_R   0.157477 0.473553 0.439440 0.102514
C20   C     C_R   0.842482 0.526475 0.560537 0.102475
C21   C     C_R   0.702038 0.429558 0.510127 -0.062356
C22   C     C_R   0.297907 0.570479 0.489842 -0.062362
C23   C     C_R   0.698205 0.479249 0.553933 -0.217736
C24   C     C_R   0.301737 0.520788 0.446037 -0.217746
H1    H     H_    0.285622 0.426043 0.365038 0.118707
H2    H     H_    0.714324 0.573987 0.634936 0.118733
H3    H     H_    0.579286 0.481418 0.583350 0.127087
H4    H     H_    0.420639 0.518627 0.416614 0.127083
C25   C     C_R   0.949250 0.915208 0.664086 -0.104458
C26   C     C_R   0.050749 0.084789 0.335911 -0.104458
C27   C     C_R   0.855662 0.033151 0.660690 -0.064835
C28   C     C_R   0.144331 0.966845 0.339300 -0.064833
C29   C     C_R   0.888521 0.975927 0.691827 -0.078858
C30   C     C_R   0.111473 0.024072 0.308166 -0.078860
C31   C     C_R   0.992763 0.913557 0.606318 -0.219642
C32   C     C_R   0.007234 0.086435 0.393678 -0.219647
C33   C     C_R   0.979260 0.972090 0.575001 0.081739
C34   C     C_R   0.020734 0.027900 0.424990 0.081737
C35   C     C_R   0.890680 0.030034 0.601670 0.040363
C36   C     C_R   0.109310 0.969957 0.398320 0.040361
C37   C     C_R   0.035916 0.973356 0.516786 0.018688
C38   C     C_R   0.964074 0.026631 0.483205 0.018691
C39   C     C_R   0.837059 0.075904 0.509350 0.129045
C40   C     C_R   0.162921 0.924080 0.490639 0.129049
C41   C     C_R   0.822187 0.081204 0.568121 -0.181017
C42   C     C_R   0.177795 0.918784 0.431868 -0.181010
H5    H     H_    0.736223 0.122486 0.586855 0.151144
H6    H     H_    0.263752 0.877501 0.413130 0.151147
H7    H     H_    0.974549 0.134849 0.414328 0.136076
H8    H     H_    0.025446 0.865142 0.585671 0.136069
C43   C     C_R   0.483203 0.585572 0.835694 -0.044387
C44   C     C_R   0.516797 0.414428 0.164306 -0.044386
C45   C     C_R   0.505699 0.464901 0.834241 -0.136532
C46   C     C_R   0.494302 0.535098 0.165759 -0.136532
C47   C     C_R   0.505974 0.523892 0.805815 -0.170154
C48   C     C_R   0.494025 0.476108 0.194184 -0.170157
C49   C     C_R   0.474768 0.588114 0.894823 -0.179606
C50   C     C_R   0.525234 0.411886 0.105177 -0.179606
C51   C     C_R   0.497671 0.529118 0.925328 0.081573
C52   C     C_R   0.502332 0.470881 0.074671 0.081572
C53   C     C_R   0.492451 0.466548 0.893793 0.075634
C54   C     C_R   0.507552 0.533452 0.106207 0.075635
C55   C     C_R   0.514638 0.530287 0.985918 -0.003681
C56   C     C_R   0.485366 0.469712 0.014081 -0.003682
C57   C     C_R   0.435275 0.410817 0.980622 -0.090008
C58   C     C_R   0.564731 0.589183 0.019378 -0.090008
C59   C     C_R   0.459558 0.407637 0.921702 -0.102425
C60   C     C_R   0.540447 0.592362 0.078297 -0.102425
H9    H     H_    0.557666 0.363693 0.084067 0.112741
H10   H     H_    0.442337 0.636306 0.915933 0.112741
H11   H     H_    0.485526 0.478746 0.239872 0.106259
H12   H     H_    0.514472 0.521254 0.760127 0.106263
H13   H     H_    0.511264 0.418012 0.808964 0.138579
H14   H     H_    0.488737 0.581988 0.191035 0.138579
C61   C     C_R   0.576136 0.046318 0.126071 0.138216
C62   C     C_R   0.423857 0.953681 0.873930 0.138208
C63   C     C_R   0.534001 0.115425 0.119125 -0.059643
C64   C     C_R   0.465999 0.884574 0.880876 -0.059648
C65   C     C_R   0.483998 0.136825 0.065863 -0.229309
C66   C     C_R   0.516005 0.863175 0.934137 -0.229309
C67   C     C_R   0.478232 0.091631 0.018592 0.071505
C68   C     C_R   0.521769 0.908368 0.981408 0.071506
C69   C     C_R   0.506350 0.022372 0.024517 -0.010931
C70   C     C_R   0.493648 0.977626 0.975484 -0.010930
C71   C     C_R   0.545858 0.998062 0.079259 0.094783
C72   C     C_R   0.454138 0.001937 0.920741 0.094784
C73   C     C_R   0.449901 0.116020 0.965129 -0.151671
C74   C     C_R   0.550097 0.883978 0.034872 -0.151671
C75   C     C_R   0.446937 0.073222 0.916092 0.128771
C76   C     C_R   0.553057 0.926776 0.083909 0.128771
H15   H     H_    0.456796 0.189912 0.060935 0.135389
H16   H     H_    0.543210 0.810087 0.939065 0.135390
H17   H     H_    0.437526 0.169869 0.961402 0.151487
H18   H     H_    0.562472 0.830129 0.038598 0.151486
C77   C     C_1   0.432185 0.344339 0.889462 0.315631
N1    N     N_1   0.409994 0.294030 0.863743 -0.347668
C78   C     C_1   0.567818 0.655660 0.110538 0.315632
N2    N     N_1   0.590008 0.705970 0.136257 -0.347668
C79   C     C_1   0.332346 0.356650 0.004231 0.302236
N3    N     N_1   0.249484 0.313486 0.022697 -0.369242
C80   C     C_1   0.667661 0.643349 0.995768 0.302236
N4    N     N_1   0.750524 0.686512 0.977302 -0.369241
C81   C     C_3   0.672585 0.026803 0.180750 -0.746067
H19   H     H_    0.733420 0.069806 0.205884 0.202443
H20   H     H_    0.569773 0.003650 0.208580 0.217387
H21   H     H_    0.798317 0.993121 0.171142 0.227918
C82   C     C_3   0.327395 0.973196 0.819252 -0.746073
H22   H     H_    0.266537 0.930193 0.794123 0.202451
H23   H     H_    0.201674 0.006882 0.828863 0.227922
H24   H     H_    0.430203 0.996343 0.791418 0.217385
C83   C     C_3   0.460872 0.107092 0.860926 -0.689691
H25   H     H_    0.502845 0.160237 0.867853 0.229268
H26   H     H_    0.576578 0.082947 0.834647 0.233642
H27   H     H_    0.320576 0.107933 0.838168 0.216267
C84   C     C_3   0.539116 0.892907 0.139074 -0.689685
H28   H     H_    0.497167 0.839759 0.132147 0.229268
H29   H     H_    0.679405 0.892072 0.161837 0.216266
H30   H     H_    0.423393 0.917047 0.165349 0.233640
C85   C     C_1   0.740972 0.320475 0.418362 0.303270
N5    N     N_1   0.636882 0.276099 0.412506 -0.336118
C86   C     C_1   0.259072 0.679520 0.581649 0.303233
N6    N     N_1   0.363196 0.723883 0.587520 -0.336067
C87   C     C_1   0.539687 0.385415 0.507879 0.322781
N7    N     N_1   0.408493 0.350624 0.506756 -0.328144
C88   C     C_1   0.460179 0.614654 0.492061 0.322780
N8    N     N_1   0.591300 0.649481 0.493157 -0.328125
C89   C     C_1   0.146960 0.021583 0.247911 0.268067
N9    N     N_1   0.174364 0.020027 0.199824 -0.372949
C90   C     C_1   0.853032 0.978421 0.752081 0.268070
N10   N     N_1   0.825627 0.979982 0.800170 -0.372954
C91   C     C_1   0.781520 0.094365 0.689512 0.293415
N11   N     N_1   0.722404 0.143084 0.712578 -0.326325
C92   C     C_1   0.218477 0.905634 0.310474 0.293412
N12   N     N_1   0.277598 0.856918 0.287404 -0.326324
C93   C     C_3   0.691720 0.117347 0.477433 -0.738206
H31   H     H_    0.739036 0.169993 0.477285 0.225023
H32   H     H_    0.664867 0.096072 0.433869 0.217498
H33   H     H_    0.549488 0.117565 0.498435 0.215147
C94   C     C_3   0.308248 0.882628 0.522554 -0.738192
H34   H     H_    0.335116 0.903901 0.566117 0.217493
H35   H     H_    0.260916 0.829984 0.522701 0.225007
H36   H     H_    0.450476 0.882405 0.501549 0.215153

loop_
_geom_bond_atom_site_label_1
_geom_bond_atom_site_label_2
_ccdc_geom_bond_type
C83   H27   S    
C51   C55   A    
C55   C56   A    
C62   C72   A    
C92   N12   T    
C69   C71   A    
C17   C18   A    
C87   N7    T    
O4    C2    A    
C82   H24   S    
V1    O19   S    
C74   C76   A    
C86   N6    T    
C25   C31   A    
C62   C82   S    
C83   H25   S    
C15   C17   A    
C26   C32   A    
C59   C77   S    
C16   C22   A    
C67   C69   A    
O9    V1    S    
C43   C47   A    
C68   C70   A    
C14   C16   A    
C52   C54   A    
O3    C1    A    
V2    O20   S    
C84   H30   S    
C46   C48   A    
C6    C26   S    
C85   N5    T    
C61   C71   A    
C32   H7    S    
C2    C44   S    
O13   V3    S    
C32   C34   A    
C41   H5    S    
O7    C3    A    
C34   C36   A    
C9    C11   A    
C66   H16   S    
O7    V1    S    
O6    C8    A    
C35   C41   A    
C8    C11   S    
O8    V2    S    
C27   C35   A    
C46   H14   S    
C69   C70   A    
C93   H32   S    
O3    V1    S    
O14   V4    S    
C36   C42   A    
C28   C30   A    
C57   C59   A    
C13   C85   S    
C19   C24   A    
O14   V2    S    
C20   C23   A    
C15   C21   A    
C46   C54   A    
C21   C23   A    
C38   C39   A    
C67   C73   A    
C45   C53   A    
C2    O12   A    
C50   H9    S    
O5    C7    A    
V3    O19   S    
C17   C19   A    
C18   C20   A    
O1    V3    S    
C49   C51   A    
O11   V3    S    
C45   C47   A    
O17   V3    S    
C84   H28   S    
C22   C24   A    
C10   H2    S    
C31   C33   A    
C34   C38   A    
C9    C19   A    
C44   C48   A    
C79   N3    T    
C94   H36   S    
C10   C20   A    
C73   C75   A    
O8    C4    A    
C44   C50   A    
C25   C29   A    
C43   C49   A    
C4    C63   S    
C68   C74   A    
C1    O11   A    
C57   C79   S    
C29   C90   S    
C42   H6    S    
C39   C41   A    
C65   H15   S    
C81   H20   S    
C14   C86   S    
C28   C92   S    
C23   H3    S    
C74   H18   S    
C58   C60   A    
C93   H31   S    
C31   H8    S    
C89   N9    T    
C37   C40   A    
O10   V2    S    
C62   C64   A    
C61   C63   A    
C93   H33   S    
C65   C67   A    
C76   C84   S    
C48   H11   S    
C64   C66   A    
C72   C75   A    
C78   N2    T    
C71   C76   A    
C61   C81   S    
C40   C42   A    
C51   C53   A    
O18   V4    S    
C50   C52   A    
C27   C29   A    
C80   N4    T    
O16   C6    A    
C55   C58   A    
O1    C3    A    
C82   H22   S    
C53   C59   A    
C30   C89   S    
C26   C30   A    
C40   C94   S    
C83   H26   S    
O16   V4    S    
C11   C13   A    
C21   C87   S    
C33   C35   A    
C52   C56   A    
C16   C18   A    
C82   H23   S    
C1    C43   S    
C77   N1    T    
C66   C68   A    
O5    V1    S    
C7    C12   S    
O17   C7    A    
O6    V2    S    
O10   C6    A    
O18   C8    A    
O2    V4    S    
C73   H17   S    
O15   C5    A    
C90   N10   T    
C81   H21   S    
C47   H12   S    
C13   C15   A    
C54   C60   A    
C60   C78   S    
C12   C14   A    
V4    O20   S    
C49   H10   S    
C84   H29   S    
C28   C36   A    
O15   V3    S    
C5    C25   S    
O9    C5    A    
O13   V1    S    
C58   C80   S    
C70   C72   A    
C10   C12   A    
O2    C4    A    
C94   H34   S    
O4    V2    S    
C33   C37   A    
C24   H4    S    
C22   C88   S    
C56   C57   A    
C63   C65   A    
C37   C38   A    
C75   C83   S    
C9    H1    S    
C91   N11   T    
C94   H35   S    
C39   C93   S    
C45   H13   S    
C3    C64   S    
C88   N8    T    
O12   V4    S    
C27   C91   S    
C81   H19   S    
