data_mof_unit_58779.cif
_audit_creation_date              2012-12-10T18:22:34-0500
_audit_creation_method            fapswitch 2.2
_symmetry_space_group_name_H-M    P1
_symmetry_Int_Tables_number       1
_space_group_crystal_system       triclinic
_cell_length_a                    23.448681
_cell_length_b                    10.59562
_cell_length_c                    9.448208
_cell_angle_alpha                 89.132649
_cell_angle_beta                  88.974229
_cell_angle_gamma                 88.679067
_cell_volume                      2346.18405938

loop_
_atom_site_label
_atom_site_type_symbol
_atom_type_description
_atom_site_fract_x
_atom_site_fract_y
_atom_site_fract_z
_atom_type_partial_charge
C1    C     C_R   0.500407 0.259662 0.500872 0.790321
C2    C     C_R   0.699502 0.563358 0.602365 -0.302342
C3    C     C_R   0.241081 0.410427 0.419092 0.495189
C4    C     C_R   0.758950 0.556715 0.609801 0.500320
C5    C     C_R   0.209427 0.493535 0.506600 0.281744
C6    C     C_R   0.790316 0.483620 0.511682 0.277895
C7    C     C_3   0.498233 0.038133 0.635693 -0.179563
C8    C     C_3   0.503369 0.961643 0.363963 -0.172367
C9    C     C_3   0.545941 0.954882 0.568604 0.210140
C10   C     C_3   0.455647 0.044851 0.430871 0.218529
C11   C     C_3   0.500758 0.877015 0.497505 -0.059741
C12   C     C_R   0.500212 0.740290 0.499062 0.790163
C13   C     C_3   0.500697 0.122855 0.502180 -0.061968
C14   C     C_3   0.452568 0.958632 0.563552 -0.219341
C15   C     C_3   0.548958 0.041311 0.435988 -0.213807
C16   C     C_R   0.391180 0.500938 0.501012 0.809245
C17   C     C_R   0.608815 0.498499 0.499230 0.809646
C18   C     C_3   0.499237 0.614437 0.049053 -0.076791
C19   C     C_3   0.500766 0.385588 0.950928 -0.074694
C20   C     C_3   0.455358 0.557126 0.952420 0.282938
C21   C     C_3   0.544631 0.442959 0.047474 0.287507
C22   C     C_3   0.544214 0.556891 0.945991 -0.085349
C23   C     C_R   0.237621 0.576792 0.593839 -0.176454
C24   C     C_3   0.455757 0.443183 0.053974 -0.086920
C25   C     C_R   0.878875 0.571396 0.429993 0.592934
C26   C     C_R   0.120622 0.411684 0.597835 0.567397
C27   C     C_R   0.880472 0.399021 0.595648 0.541395
C28   C     C_R   0.119053 0.577400 0.423579 0.581268
C29   C     C_R   0.940474 0.402977 0.603444 -0.115603
C30   C     C_R   0.058821 0.582029 0.426723 -0.122117
C31   C     C_R   0.969553 0.490954 0.515922 -0.073116
C32   C     C_R   0.029799 0.494010 0.514511 -0.082358
C33   C     C_R   0.938461 0.575583 0.428918 -0.065098
C34   C     C_R   0.762068 0.414094 0.410650 -0.188250
C35   C     C_R   0.060909 0.408744 0.600855 -0.051209
C36   C     C_R   0.972339 0.322748 0.695599 0.462358
C37   C     C_R   0.026564 0.670783 0.345258 0.477773
C38   C     C_R   0.031911 0.323744 0.689899 -0.256931
C39   C     C_R   0.967240 0.663325 0.343498 -0.261912
C40   C     C_3   0.930414 0.302850 0.915545 0.121313
C41   C     C_3   0.977511 0.289240 0.025604 -0.391355
C42   C     C_3   0.958631 0.347194 0.166193 -0.891300
C43   C     C_3   0.060906 0.871594 0.338787 0.096136
C44   C     C_3   0.007399 0.957874 0.345038 -0.407248
C45   C     C_R   0.297063 0.578479 0.593506 -0.234157
C46   C     C_3   0.020465 0.085632 0.408282 -0.858672
C47   C     C_3   0.401361 0.623046 0.897635 -0.403012
C48   C     C_3   0.368271 0.689992 0.016145 -0.865162
C49   C     C_3   0.598909 0.378194 0.101724 -0.402677
C50   C     C_3   0.632381 0.312753 0.982769 -0.895816
C51   C     C_3   0.221730 0.202979 0.390169 0.044600
C52   C     C_3   0.202025 0.107148 0.283478 -0.340347
C53   C     C_3   0.208908 0.972441 0.341725 -0.898689
C54   C     C_3   0.787395 0.560272 0.840140 0.057325
C55   C     C_3   0.749427 0.629940 0.948233 -0.361991
C56   C     C_R   0.702658 0.419374 0.405177 -0.247693
C57   C     C_3   0.751315 0.564157 0.092679 -0.865553
C58   C     C_3   0.597407 0.897892 0.645744 -0.420436
C59   C     C_3   0.634982 0.000289 0.702750 -0.803480
C60   C     C_3   0.404163 0.100717 0.353054 -0.420780
C61   C     C_3   0.371922 0.998624 0.278402 -0.848215
C62   C     C_R   0.328826 0.499366 0.502824 -0.082270
C63   C     C_R   0.671184 0.495173 0.500037 -0.087114
C64   C     C_R   0.300733 0.417981 0.413289 -0.322871
Cu1   Cu    Cu3+1 0.500010 0.499990 0.643150 0.919041
Cu2   Cu    Cu3+1 0.499990 0.500010 0.356850 0.919288
H1    H     H_    0.498635 0.710633 0.094010 0.121469
H2    H     H_    0.681423 0.362652 0.328899 0.152354
H3    H     H_    0.325131 0.357733 0.341707 0.150295
H4    H     H_    0.675442 0.622524 0.675548 0.147394
H5    H     H_    0.496556 0.071656 0.746488 0.137009
H6    H     H_    0.505328 0.927931 0.253260 0.136308
H7    H     H_    0.413079 0.921876 0.614181 0.133056
H8    H     H_    0.588335 0.078264 0.385006 0.135920
H9    H     H_    0.891429 0.257731 0.959149 0.184235
H10   H     H_    0.918791 0.404673 0.898143 0.111991
H11   H     H_    0.988508 0.187642 0.043002 0.236356
H12   H     H_    0.501439 0.289383 0.905989 0.121853
H13   H     H_    0.016285 0.337920 0.986551 0.227706
H14   H     H_    0.994302 0.340646 0.241841 0.269273
H15   H     H_    0.921658 0.296238 0.212323 0.251269
H16   H     H_    0.946494 0.448269 0.150330 0.264045
H17   H     H_    0.094936 0.924367 0.282698 0.192004
H18   H     H_    0.076559 0.850089 0.447590 0.131286
H19   H     H_    0.990689 0.973031 0.236595 0.237179
H20   H     H_    0.973899 0.913062 0.411929 0.230879
H21   H     H_    0.037954 0.072718 0.516165 0.265360
H22   H     H_    0.980666 0.144181 0.415888 0.269858
H23   H     H_    0.581567 0.603927 0.896415 0.115312
H24   H     H_    0.051787 0.136446 0.340263 0.248455
H25   H     H_    0.356535 0.621750 0.101645 0.273981
H26   H     H_    0.394329 0.765251 0.060831 0.244037
H27   H     H_    0.328600 0.733906 0.973388 0.254159
H28   H     H_    0.412878 0.693045 0.813919 0.217861
H29   H     H_    0.373450 0.551013 0.853264 0.224040
H30   H     H_    0.606585 0.237682 0.936704 0.250848
H31   H     H_    0.644239 0.382020 0.898403 0.268178
H32   H     H_    0.672033 0.268782 0.025549 0.248417
H33   H     H_    0.626290 0.451167 0.146053 0.219478
H34   H     H_    0.418432 0.396092 0.103581 0.125406
H35   H     H_    0.587815 0.307624 0.185196 0.219907
H36   H     H_    0.196227 0.191752 0.489712 0.190943
H37   H     H_    0.267412 0.180931 0.412731 0.133217
H38   H     H_    0.156495 0.126362 0.258464 0.224512
H39   H     H_    0.227765 0.116602 0.184107 0.231061
H40   H     H_    0.253534 0.952645 0.373640 0.259773
H41   H     H_    0.197927 0.904257 0.258991 0.287488
H42   H     H_    0.180312 0.958483 0.435374 0.253566
H43   H     H_    0.831981 0.558427 0.878115 0.164894
H44   H     H_    0.774374 0.459523 0.834867 0.148805
H45   H     H_    0.055345 0.258057 0.757320 0.194894
H46   H     H_    0.764118 0.728338 0.958336 0.245739
H47   H     H_    0.704610 0.633396 0.912188 0.203080
H48   H     H_    0.734873 0.467064 0.085701 0.245255
H49   H     H_    0.724384 0.617869 0.169801 0.273047
H50   H     H_    0.795762 0.558774 0.131141 0.286105
H51   H     H_    0.610284 0.059689 0.778879 0.239463
H52   H     H_    0.671812 0.955820 0.758268 0.252552
H53   H     H_    0.651377 0.060813 0.614779 0.256833
H54   H     H_    0.582240 0.837421 0.735161 0.204332
H55   H     H_    0.622855 0.838041 0.571279 0.200691
H56   H     H_    0.943740 0.728219 0.275268 0.197351
H57   H     H_    0.399678 0.954304 0.195915 0.245873
H58   H     H_    0.357895 0.925008 0.355511 0.254028
H59   H     H_    0.333967 0.041487 0.226279 0.250351
H60   H     H_    0.375314 0.149077 0.430476 0.186034
H61   H     H_    0.418800 0.171278 0.273065 0.211942
H62   H     H_    0.213314 0.640041 0.662124 0.155033
H63   H     H_    0.786248 0.356734 0.335881 0.151990
H64   H     H_    0.318149 0.643818 0.661034 0.147430
N1    N     N_R   0.851363 0.483697 0.511640 -0.448845
N2    N     N_R   0.148263 0.493333 0.508377 -0.449362
N3    N     N_3   0.500040 0.499970 0.858290 -0.184483
N4    N     N_3   0.499960 0.500030 0.141710 -0.186064
O1    O     O_R   0.500030 0.316850 0.620870 -0.578716
O2    O     O_2   0.150937 0.334211 0.684371 -0.571812
O3    O     O_2   0.851273 0.311302 0.669973 -0.531279
O4    O     O_2   0.148425 0.655161 0.336292 -0.512113
O5    O     O_3   0.946277 0.239415 0.789199 -0.570060
O6    O     O_3   0.052024 0.761316 0.259746 -0.570988
O7    O     O_3   0.213529 0.326615 0.334278 -0.599682
O8    O     O_3   0.786794 0.626379 0.708679 -0.604097
O9    O     O_R   0.499970 0.683150 0.379130 -0.578973
O10   O     O_R   0.500000 0.316860 0.379090 -0.597451
O11   O     O_R   0.500000 0.683140 0.620910 -0.596150
O12   O     O_R   0.417890 0.499960 0.620920 -0.592163
O13   O     O_R   0.582110 0.500040 0.379080 -0.593124
O14   O     O_R   0.417870 0.499970 0.379140 -0.573727
O15   O     O_R   0.582130 0.500030 0.620860 -0.577473
O16   O     O_2   0.848466 0.654805 0.350646 -0.556598

loop_
_geom_bond_atom_site_label_1
_geom_bond_atom_site_label_2
_ccdc_geom_bond_type
C42   H14   S    
C23   C45   A    
C55   H46   S    
C27   C29   A    
C27   N1    A    
C41   C42   S    
C10   C60   S    
C42   H16   S    
C21   C49   S    
C57   H49   S    
C3    C64   A    
C2    C63   A    
C51   H36   S    
C34   C56   A    
C29   C36   A    
C33   C39   A    
C39   H56   S    
C61   H58   S    
C17   O13   A    
C4    O8    S    
C41   H11   S    
Cu2   O10   S    
C51   H37   S    
C40   O5    S    
C45   C62   A    
C43   H17   S    
C54   H44   S    
C16   O12   A    
C9    C58   S    
C38   H45   S    
C62   C64   A    
Cu2   N4    S    
C53   H40   S    
C47   H28   S    
C7    C14   S    
C47   C48   S    
C34   H63   S    
C50   H31   S    
C37   O6    S    
C3    O7    S    
C31   C33   A    
C7    H5    S    
C20   N3    S    
Cu2   O14   S    
C45   H64   S    
C59   H51   S    
C18   C22   S    
C21   C22   S    
C43   H18   S    
C42   H15   S    
C16   C62   S    
C44   H20   S    
C44   C46   S    
C57   H50   S    
C46   H22   S    
C51   O7    S    
C8    H6    S    
C50   H32   S    
C48   H27   S    
C22   N3    S    
C51   C52   S    
C14   H7    S    
C20   C24   S    
C35   C38   A    
C28   O4    S    
C4    C6    A    
C10   C14   S    
Cu2   O9    S    
C55   H47   S    
C18   H1    S    
C56   H2    S    
C48   H25   S    
C6    C34   A    
C30   C37   A    
C25   O16   S    
C28   N2    A    
C12   O11   A    
C19   H12   S    
C2    C4    A    
C43   C44   S    
C32   C35   A    
C49   H33   S    
C53   H41   S    
C31   C32   A    
C5    C23   A    
C5    N2    S    
C58   H54   S    
C56   C63   A    
C43   O6    S    
C27   O3    S    
C64   H3    S    
C9    C11   S    
Cu2   O13   S    
Cu1   O1    S    
C8    C10   S    
C40   C41   S    
C54   O8    S    
C52   H39   S    
C49   C50   S    
C59   H52   S    
C13   C15   S    
C58   C59   S    
C1    C13   S    
Cu1   O11   S    
C44   H19   S    
C25   N1    A    
C21   N4    S    
C26   N2    A    
C52   C53   S    
C46   H21   S    
C24   N4    S    
C7    C9    S    
C54   C55   S    
C52   H38   S    
C58   H55   S    
C59   H53   S    
C19   C21   S    
C24   H34   S    
C60   H61   S    
C17   O15   A    
C6    N1    S    
C3    C5    A    
C10   C13   S    
C41   H13   S    
C11   C12   S    
C12   O9    A    
C57   H48   S    
C46   H24   S    
C19   N3    S    
C40   H9    S    
C16   O14   A    
C61   H57   S    
C55   C57   S    
C19   C24   S    
C9    C15   S    
C28   C30   A    
C29   C31   A    
C1    O10   A    
C2    H4    S    
C17   C63   S    
C36   C38   A    
C30   C32   A    
C53   H42   S    
C50   H30   S    
C8    C11   S    
C60   H60   S    
C11   C14   S    
C22   H23   S    
C18   N4    S    
C18   C20   S    
C8    C15   S    
Cu1   O15   S    
C36   O5    S    
C20   C47   S    
C26   O2    S    
C40   H10   S    
C26   C35   A    
C7    C13   S    
C15   H8    S    
C54   H43   S    
C37   C39   A    
Cu1   Cu2   S    
C48   H26   S    
C47   H29   S    
C60   C61   S    
C61   H59   S    
Cu1   O12   S    
C1    O1    A    
Cu1   N3    S    
C49   H35   S    
C25   C33   A    
C23   H62   S    
