data_mof_unit_15150.cif
_audit_creation_date              2012-12-10T17:20:52-0500
_audit_creation_method            fapswitch 2.2
_symmetry_space_group_name_H-M    P1
_symmetry_Int_Tables_number       1
_space_group_crystal_system       triclinic
_cell_length_a                    14.332858
_cell_length_b                    10.773931
_cell_length_c                    9.633778
_cell_angle_alpha                 89.475667
_cell_angle_beta                  90.259077
_cell_angle_gamma                 93.183899
_cell_volume                      1485.28924997

loop_
_atom_site_label
_atom_site_type_symbol
_atom_type_description
_atom_site_fract_x
_atom_site_fract_y
_atom_site_fract_z
_atom_type_partial_charge
C1    C     C_R   0.498289 0.262675 0.500528 0.837436
C2    C     C_1   0.771096 0.500080 0.500795 -0.083442
C3    C     C_R   0.342836 0.119864 0.374424 -0.228689
C4    C     C_R   0.269326 0.050701 0.311851 -0.159045
C5    C     C_R   0.269208 0.921507 0.310130 0.442505
C6    C     C_R   0.342778 0.860974 0.371047 -0.198888
C7    C     C_R   0.418543 0.929363 0.433718 0.033980
C8    C     C_R   0.418787 0.060503 0.435395 0.053755
C9    C     C_R   0.493775 0.128308 0.501415 -0.171085
C10   C     C_R   0.565555 0.066896 0.568148 0.366296
C11   C     C_R   0.564237 0.938610 0.567032 -0.166673
C12   C     C_R   0.331250 0.499496 0.499756 0.759404
C13   C     C_R   0.492782 0.870251 0.498865 -0.119049
C14   C     C_R   0.656727 0.624735 0.133869 0.327617
C15   C     C_R   0.736329 0.650187 0.053228 -0.219804
C16   C     C_R   0.726948 0.663735 0.911909 0.342299
C17   C     C_R   0.641167 0.635192 0.851238 -0.187812
C18   C     C_R   0.570322 0.566169 0.923725 0.116909
C19   C     C_R   0.573293 0.564572 0.073170 0.129558
C20   C     C_R   0.432030 0.438079 0.074026 -0.023051
C21   C     C_R   0.432571 0.437173 0.926563 -0.004539
C22   C     C_R   0.497386 0.736900 0.499578 0.845064
C23   C     C_R   0.668717 0.499711 0.500309 0.874122
C24   C     C_1   0.228894 0.500004 0.499223 -0.158466
C25   C     C_1   0.143446 0.500413 0.499240 0.047309
C26   C     C_1   0.042746 0.500695 0.499657 0.067787
C27   C     C_1   0.957276 0.500700 0.500144 0.074528
C28   C     C_1   0.856563 0.500437 0.500646 0.079597
Cu1   Cu    Cu3+1 0.499990 0.499990 0.640660 0.985834
Cu2   Cu    Cu3+1 0.500010 0.500010 0.359340 0.998561
H1    H     H_    0.633238 0.668365 0.747636 0.213548
H2    H     H_    0.377401 0.384928 0.872077 0.135313
H3    H     H_    0.338496 0.219698 0.376199 0.147638
H4    H     H_    0.211844 0.097869 0.265868 0.177695
H5    H     H_    0.339003 0.760520 0.370402 0.160909
H6    H     H_    0.620526 0.891721 0.617173 0.193543
H7    H     H_    0.376448 0.386677 0.128894 0.133014
H8    H     H_    0.801123 0.685534 0.100782 0.229690
N1    N     N_R   0.500820 0.501210 0.147910 -0.177158
N2    N     N_R   0.500850 0.501290 0.852040 -0.170775
O1    O     O_R   0.499990 0.319640 0.618810 -0.539456
O2    O     O_R   0.500000 0.319660 0.381240 -0.576947
O3    O     O_R   0.376050 0.499990 0.618810 -0.562233
O4    O     O_R   0.376060 0.500010 0.381240 -0.575282
O5    O     O_R   0.500000 0.680340 0.618760 -0.602939
O6    O     O_R   0.500010 0.680360 0.381190 -0.512051
O7    O     O_R   0.623940 0.499990 0.618760 -0.564451
O8    O     O_R   0.623950 0.500010 0.381190 -0.538260
Cl1   Cl    Cl    0.661000 0.147873 0.649351 -0.551465
Cl2   Cl    Cl    0.819377 0.731063 0.812827 -0.534903
Cl3   Cl    Cl    0.175693 0.834648 0.233639 -0.566704
Cl4   Cl    Cl    0.663483 0.732430 0.269742 -0.580747

loop_
_geom_bond_atom_site_label_1
_geom_bond_atom_site_label_2
_ccdc_geom_bond_type
C13   C22   S    
C24   C25   T    
C15   H8    S    
C6    C7    A    
C14   Cl4   S    
C9    C10   A    
C12   C24   S    
C17   C18   A    
C7    C8    A    
C12   O4    A    
Cu1   O3    S    
C20   H7    S    
C11   C13   A    
Cu2   O4    S    
C26   C27   T    
Cu1   Cu2   S    
C21   N2    A    
C19   N1    A    
Cu1   O7    S    
C4    C5    A    
Cu1   N2    S    
Cu2   O8    S    
C11   H6    S    
C22   O6    A    
C16   Cl2   S    
Cu2   N1    S    
C3    C8    A    
C12   O3    A    
C5    C6    A    
C17   H1    S    
C21   H2    S    
C4    H4    S    
C23   O7    A    
C10   C11   A    
C3    H3    S    
C15   C16   A    
C1    O2    A    
C7    C13   A    
C22   O5    A    
C1    C9    S    
C20   C21   A    
C18   C19   A    
C6    H5    S    
C1    O1    A    
C2    C23   S    
C20   N1    A    
C18   N2    A    
C14   C15   A    
Cu2   O2    S    
C2    C28   T    
C23   O8    A    
Cu1   O1    S    
C25   C26   S    
C10   Cl1   S    
C14   C19   A    
Cu2   O6    S    
C5    Cl3   S    
C3    C4    A    
C16   C17   A    
Cu1   O5    S    
C8    C9    A    
C27   C28   S    
