data_mof_unit_17744.cif
_audit_creation_date              2012-12-10T22:11:17-0500
_audit_creation_method            fapswitch 2.2
_symmetry_space_group_name_H-M    P1
_symmetry_Int_Tables_number       1
_space_group_crystal_system       triclinic
_cell_length_a                    12.105362
_cell_length_b                    12.354386
_cell_length_c                    23.04741
_cell_angle_alpha                 90.905356
_cell_angle_beta                  90.368661
_cell_angle_gamma                 91.119965
_cell_volume                      3445.67252198

loop_
_atom_site_label
_atom_site_type_symbol
_atom_type_description
_atom_site_fract_x
_atom_site_fract_y
_atom_site_fract_z
_atom_type_partial_charge
C1    C     C_R   0.655242 0.998414 0.580167 0.887837
C2    C     C_R   0.345250 0.001645 0.419713 0.892328
C3    C     C_R   0.908527 0.746611 0.160040 -0.195515
C4    C     C_R   0.094822 0.249346 0.841981 -0.186852
C5    C     C_R   0.079571 0.900831 0.163549 -0.186623
C6    C     C_R   0.920563 0.098553 0.835489 -0.166226
C7    C     C_R   0.077944 0.821779 0.120832 -0.184674
C8    C     C_R   0.921183 0.178000 0.878222 -0.193559
C9    C     C_R   0.896631 0.128458 0.176059 0.024407
C10   C     C_R   0.100358 0.884853 0.832892 0.048951
C11   C     C_R   0.892964 0.225402 0.145388 0.237534
C12   C     C_R   0.088588 0.814311 0.879685 0.235787
C13   C     C_R   0.173742 0.919876 0.289693 -0.170900
C14   C     C_R   0.829880 0.080383 0.709436 -0.175130
C15   C     C_R   0.264101 0.925496 0.327438 0.085713
C16   C     C_R   0.739152 0.075523 0.671832 0.081096
C17   C     C_R   0.839159 0.095598 0.302871 -0.179055
C18   C     C_R   0.161096 0.903393 0.696922 -0.166303
C19   C     C_R   0.758644 0.095030 0.344968 -0.167970
C20   C     C_R   0.241325 0.903879 0.654683 -0.182389
C21   C     C_3   0.996771 0.002763 0.247740 -0.051528
C22   C     C_3   0.005758 0.996071 0.752184 -0.055686
C23   C     C_R   0.655089 0.001746 0.421098 0.867397
C24   C     C_R   0.345265 0.998183 0.579015 0.866916
C25   C     C_R   0.095924 0.003058 0.288916 0.085104
C26   C     C_R   0.906828 0.996441 0.710476 0.088867
C27   C     C_R   0.263272 0.003007 0.373543 -0.125088
C28   C     C_R   0.738477 0.997354 0.625960 -0.125469
C29   C     C_R   0.900406 0.001707 0.290810 0.079384
C30   C     C_R   0.101761 0.997824 0.709586 0.088977
C31   C     C_R   0.740149 0.002341 0.377507 -0.029475
C32   C     C_R   0.260881 0.997367 0.622814 -0.027513
C33   C     C_R   0.996033 0.102628 0.207551 -0.034705
C34   C     C_R   0.007894 0.897006 0.793065 -0.044538
C35   C     C_R   0.992688 0.276925 0.129409 -0.183923
C36   C     C_R   0.003862 0.736051 0.878624 -0.176189
C37   C     C_R   0.995780 0.905200 0.205738 0.127535
C38   C     C_R   0.006277 0.093420 0.794366 0.126546
C39   C     C_R   0.991635 0.745752 0.118634 -0.019391
C40   C     C_R   0.008789 0.252803 0.881714 -0.004771
C41   C     C_R   0.992879 0.661559 0.075136 0.877217
C42   C     C_R   0.007129 0.337900 0.925018 0.853851
C43   C     C_R   0.997532 0.355838 0.082895 0.914373
C44   C     C_R   0.001453 0.649943 0.920489 0.931601
C45   C     C_R   0.104620 0.086467 0.331020 -0.110093
C46   C     C_R   0.898763 0.914511 0.667399 -0.106401
C47   C     C_R   0.181952 0.083169 0.375007 0.257478
C48   C     C_R   0.820365 0.917790 0.623844 0.261263
C49   C     C_R   0.886084 0.911940 0.327284 -0.175488
C50   C     C_R   0.117217 0.088663 0.674062 -0.181151
C51   C     C_R   0.804777 0.911087 0.369083 -0.165484
C52   C     C_R   0.197985 0.089466 0.632131 -0.168559
C53   C     C_R   0.094648 0.164747 0.194757 0.250684
C54   C     C_R   0.912925 0.826735 0.800915 0.258301
C55   C     C_R   0.090989 0.247191 0.155043 -0.236528
C56   C     C_R   0.918405 0.741673 0.838854 -0.256090
C57   C     C_R   0.910876 0.824765 0.203620 -0.192983
C58   C     C_R   0.093420 0.171231 0.798401 -0.209377
H1    H     H_    0.938473 0.842177 0.323159 0.151646
H2    H     H_    0.065979 0.159105 0.678951 0.151274
H3    H     H_    0.841844 0.823485 0.232836 0.143728
H4    H     H_    0.164020 0.171191 0.770206 0.142616
H5    H     H_    0.146971 0.959034 0.163408 0.191246
H6    H     H_    0.852663 0.040371 0.834456 0.180742
H7    H     H_    0.168531 0.852035 0.259715 0.154266
H8    H     H_    0.836813 0.149017 0.738753 0.150556
H9    H     H_    0.854880 0.171455 0.281566 0.161983
H10   H     H_    0.143740 0.827856 0.718334 0.142577
H11   H     H_    0.794121 0.840022 0.395572 0.184265
H12   H     H_    0.209523 0.161195 0.606244 0.183244
H13   H     H_    0.167408 0.288419 0.143480 0.218986
H14   H     H_    0.849623 0.684317 0.841018 0.210323
H15   H     H_    0.842005 0.686600 0.158835 0.165010
H16   H     H_    0.162708 0.307797 0.844251 0.155756
H17   H     H_    0.143612 0.820836 0.089112 0.200625
H18   H     H_    0.853884 0.180141 0.908973 0.163269
H19   H     H_    0.711466 0.167554 0.352289 0.171524
H20   H     H_    0.287447 0.830897 0.646793 0.166636
H21   H     H_    0.046605 0.151969 0.331414 0.170774
H22   H     H_    0.956709 0.849008 0.666526 0.170543
O1    O     O_R   0.621380 0.090460 0.561410 -0.639713
O2    O     O_R   0.378620 0.909540 0.438590 -0.639532
O3    O     O_R   0.617150 0.909540 0.438590 -0.623167
O4    O     O_R   0.382850 0.090460 0.561410 -0.623930
O5    O     O_R   0.619720 0.093230 0.440890 -0.620374
O6    O     O_R   0.380280 0.906770 0.559110 -0.621480
O7    O     O_R   0.618800 0.906770 0.559110 -0.567711
O8    O     O_R   0.381200 0.093230 0.440890 -0.567541
O9    O     O_R   0.087590 0.627480 0.058790 -0.609760
O10   O     O_R   0.912410 0.372520 0.941210 -0.625206
O11   O     O_R   0.905660 0.383870 0.059980 -0.569751
O12   O     O_R   0.094340 0.616130 0.940020 -0.586073
O13   O     O_R   0.092570 0.390420 0.063230 -0.628605
O14   O     O_R   0.907430 0.609580 0.936770 -0.628870
O15   O     O_R   0.900680 0.620930 0.055550 -0.621999
O16   O     O_R   0.099320 0.379070 0.944450 -0.624393
Zn1   Zn    Zn3+2 0.501730 0.123520 0.501540 1.014846
Zn2   Zn    Zn3+2 0.498270 0.876480 0.498460 1.013727
Zn3   Zn    Zn3+2 0.125690 0.504390 0.002180 1.015701
Zn4   Zn    Zn3+2 0.874310 0.495610 0.997820 1.022587
Br1   Br    Br    0.165040 0.187529 0.437227 -0.479520
Br2   Br    Br    0.836181 0.813872 0.561334 -0.482284
Br3   Br    Br    0.245965 0.139841 0.218159 -0.570029
Br4   Br    Br    0.762224 0.843243 0.774303 -0.593947
C59   C     C_3   0.794206 0.054080 0.170545 -0.368921
C60   C     C_3   0.784579 0.005155 0.108899 -0.312068
C61   C     C_3   0.686192 0.926574 0.103207 -0.838930
H23   H     H_    0.696944 0.857129 0.132539 0.253816
H24   H     H_    0.608347 0.968241 0.114104 0.276563
H25   H     H_    0.680174 0.895031 0.057896 0.262098
H26   H     H_    0.774649 0.070184 0.076672 0.252032
H27   H     H_    0.861225 0.961260 0.098140 0.240894
H28   H     H_    0.791801 0.987825 0.201092 0.206612
H29   H     H_    0.718329 0.098497 0.181686 0.240349
C62   C     C_3   0.211661 0.945677 0.829619 -0.369451
C63   C     C_3   0.307950 0.867601 0.819473 -0.330781
C64   C     C_3   0.413243 0.928351 0.802247 -0.850646
H30   H     H_    0.400550 0.969012 0.760155 0.262422
H31   H     H_    0.436740 0.989684 0.836098 0.272103
H32   H     H_    0.481705 0.870475 0.797295 0.283974
H33   H     H_    0.325768 0.821579 0.859214 0.267730
H34   H     H_    0.286524 0.807632 0.784668 0.217761
H35   H     H_    0.215900 0.005476 0.795545 0.211050
H36   H     H_    0.226549 0.993964 0.870049 0.238987
Br5   Br    Br    0.749099 0.287421 0.129585 -0.515320
Br6   Br    Br    0.177130 0.836759 0.949830 -0.559128
C65   C     C_3   0.360201 0.851090 0.314596 -0.418340
C66   C     C_3   0.410739 0.874686 0.254970 -0.323488
C67   C     C_3   0.513382 0.807520 0.244309 -0.874649
H37   H     H_    0.579066 0.829553 0.276529 0.260862
H38   H     H_    0.492765 0.719793 0.247337 0.275185
H39   H     H_    0.545340 0.823604 0.200226 0.255580
H40   H     H_    0.349662 0.855810 0.219875 0.236556
H41   H     H_    0.434421 0.961941 0.252702 0.260989
H42   H     H_    0.428360 0.860441 0.346407 0.229884
H43   H     H_    0.330237 0.765515 0.315752 0.210508
C68   C     C_3   0.644725 0.152589 0.683766 -0.401572
C69   C     C_3   0.602057 0.142888 0.746250 -0.350113
C70   C     C_3   0.494430 0.203589 0.754638 -0.886229
H44   H     H_    0.507025 0.290694 0.744873 0.273948
H45   H     H_    0.428491 0.168760 0.725791 0.259250
H46   H     H_    0.467004 0.196386 0.800320 0.257027
H47   H     H_    0.587641 0.056212 0.756345 0.259600
H48   H     H_    0.664237 0.176750 0.777572 0.228898
H49   H     H_    0.673881 0.237067 0.676313 0.209378
H50   H     H_    0.572832 0.135749 0.655029 0.227488

loop_
_geom_bond_atom_site_label_1
_geom_bond_atom_site_label_2
_ccdc_geom_bond_type
C16   C28   A    
C41   O9    A    
C52   H12   S    
C58   H4    S    
C47   Br1   S    
C5    C37   A    
C17   C29   A    
C59   C60   S    
C16   C68   S    
C19   C31   A    
C66   C67   S    
C6    C8    A    
C39   C41   S    
C29   C49   A    
C63   H34   S    
O9    Zn3   S    
C42   O16   A    
O4    Zn1   S    
C59   H28   S    
C11   Br5   S    
C65   H42   S    
C69   H47   S    
C64   H31   S    
C70   H46   S    
C12   Br6   S    
C60   C61   S    
C18   H10   S    
C62   C63   S    
C22   C38   S    
O16   Zn3   S    
C8    H18   S    
C63   C64   S    
C5    H5    S    
C23   O3    A    
C6    H6    S    
C1    O7    A    
C19   H19   S    
C32   C52   A    
C17   C19   A    
C38   C58   A    
C4    C40   A    
C49   C51   A    
O3    Zn2   S    
C1    C28   S    
C50   C52   A    
C61   H23   S    
C6    C38   A    
C2    O8    A    
C2    C27   S    
C18   C30   A    
C21   C33   S    
O11   Zn4   S    
C12   C36   A    
C35   C43   S    
O13   Zn3   S    
C4    H16   S    
O8    Zn1   S    
C44   O12   A    
C36   C44   S    
O7    Zn2   S    
C45   C47   A    
C30   C50   A    
C3    C39   A    
C15   C65   S    
C9    C33   A    
O2    Zn2   S    
C13   C25   A    
O6    Zn2   S    
O10   Zn4   S    
C61   H24   S    
C54   C56   A    
C60   H26   S    
C53   C55   A    
C33   C53   A    
C22   C34   S    
C46   C48   A    
C17   H9    S    
C62   H35   S    
C63   H33   S    
C9    C59   S    
C35   C55   A    
C68   H50   S    
C44   O14   A    
C65   H43   S    
C45   H21   S    
C64   H32   S    
C5    C7    A    
O15   Zn4   S    
C60   H27   S    
C56   H14   S    
C21   C29   S    
C43   O11   A    
C42   O10   A    
C23   C31   S    
C24   C32   S    
C36   C56   A    
C66   H41   S    
C59   H29   S    
C15   C27   A    
O14   Zn4   S    
C48   Br2   S    
C14   H8    S    
C1    O1    A    
C10   C34   A    
C14   C26   A    
C9    C11   A    
C10   C12   A    
C3    C57   A    
C27   C47   A    
C34   C54   A    
C13   C15   A    
C23   O5    A    
C61   H25   S    
C14   C16   A    
C2    O2    A    
C65   C66   S    
C25   C45   A    
C67   H37   S    
C20   C32   A    
C54   Br4   S    
C21   C25   S    
C28   C48   A    
C62   H36   S    
C22   C30   S    
C31   C51   A    
C7    H17   S    
C70   H44   S    
C57   H3    S    
C51   H11   S    
C68   C69   S    
C49   H1    S    
C20   H20   S    
C50   H2    S    
C67   H39   S    
C11   C35   A    
C24   O4    A    
C68   H49   S    
C69   H48   S    
C66   H40   S    
C46   H22   S    
C70   H45   S    
C41   O15   A    
O1    Zn1   S    
C53   Br3   S    
C40   C42   S    
C43   O13   A    
C18   C20   A    
C13   H7    S    
C3    H15   S    
C55   H13   S    
O5    Zn1   S    
C69   C70   S    
C26   C46   A    
C21   C37   S    
C22   C26   S    
C4    C58   A    
C7    C39   A    
C8    C40   A    
C64   H30   S    
C24   O6    A    
C37   C57   A    
C10   C62   S    
O12   Zn3   S    
C67   H38   S    
