data_mof_unit_62430.cif
_audit_creation_date              2012-12-10T18:18:10-0500
_audit_creation_method            fapswitch 2.2
_symmetry_space_group_name_H-M    P1
_symmetry_Int_Tables_number       1
_space_group_crystal_system       triclinic
_cell_length_a                    19.380312
_cell_length_b                    14.677011
_cell_length_c                    15.916592
_cell_angle_alpha                 90.015111
_cell_angle_beta                  89.952485
_cell_angle_gamma                 89.984619
_cell_volume                      4527.39396793

loop_
_atom_site_label
_atom_site_type_symbol
_atom_type_description
_atom_site_fract_x
_atom_site_fract_y
_atom_site_fract_z
_atom_type_partial_charge
C1    C     C_R   0.500078 0.500009 0.339887 0.829242
C2    C     C_R   0.930120 0.499893 0.499601 0.471999
C3    C     C_R   0.182664 0.566002 0.454217 -0.189246
C4    C     C_R   0.182594 0.433683 0.544923 -0.190147
C5    C     C_R   0.254824 0.566548 0.453937 0.099401
C6    C     C_R   0.254748 0.433230 0.545412 0.095482
C7    C     C_R   0.291396 0.499957 0.499775 -0.017922
C8    C     C_R   0.146066 0.499840 0.499547 0.012639
C9    C     C_3   0.431271 0.543777 0.048502 -0.015589
C10   C     C_3   0.510588 0.403599 0.049180 0.007953
C11   C     C_3   0.523384 0.403854 0.951322 0.203571
C12   C     C_3   0.424695 0.527515 0.951256 0.220519
C13   C     C_1   0.499921 0.500120 0.749205 -0.108522
C14   C     C_3   0.500411 0.503251 0.083070 -0.097055
C15   C     C_3   0.500343 0.501749 0.916556 -0.009318
C16   C     C_R   0.632935 0.499990 0.499883 0.811106
C17   C     C_3   0.554906 0.576259 0.950002 0.236239
C18   C     C_3   0.561332 0.566231 0.050298 0.174617
C19   C     C_1   0.500027 0.500593 0.824483 0.053506
C20   C     C_1   0.500073 0.501378 0.175313 0.098442
C21   C     C_1   0.500068 0.500261 0.250627 -0.078073
C22   C     C_3   0.421804 0.053498 0.496048 -0.014397
C23   C     C_3   0.421688 0.946230 0.506477 -0.025983
C24   C     C_3   0.537284 0.054029 0.579073 -0.067899
C25   C     C_3   0.543579 0.946678 0.574034 -0.057689
C26   C     C_3   0.497155 0.092435 0.500759 0.050472
C27   C     C_3   0.497351 0.907561 0.501413 0.049990
C28   C     C_3   0.529904 0.945624 0.417813 -0.098248
C29   C     C_3   0.535635 0.053553 0.421298 -0.103031
C30   C     C_1   0.498004 0.804647 0.501577 0.263735
C31   C     C_1   0.497953 0.195358 0.501322 0.272499
C32   C     C_R   0.499974 0.500012 0.659971 0.826212
C33   C     C_R   0.367306 0.499999 0.499882 0.850268
C34   C     C_R   0.745244 0.582358 0.502017 -0.210759
C35   C     C_R   0.745248 0.417559 0.497563 -0.221038
C36   C     C_R   0.817405 0.582997 0.502103 0.125804
C37   C     C_R   0.817408 0.416875 0.497308 0.126118
C38   C     C_R   0.854091 0.499924 0.499661 0.066602
C39   C     C_R   0.708807 0.499969 0.499831 -0.073125
C40   C     C_R   0.069995 0.499840 0.499529 0.425718
Cu1   Cu    Cu3+1 0.500090 0.589920 0.499910 1.030970
Cu2   Cu    Cu3+1 0.500090 0.410080 0.499910 1.031236
H1    H     H_    0.717882 0.646710 0.504224 0.165633
H2    H     H_    0.717889 0.353224 0.495412 0.163111
H3    H     H_    0.590933 0.081183 0.573888 0.122882
H4    H     H_    0.597970 0.932776 0.554987 0.132027
H5    H     H_    0.591375 0.070413 0.427856 0.124736
H6    H     H_    0.583348 0.918448 0.412218 0.136629
H7    H     H_    0.403888 0.066358 0.430654 0.188990
H8    H     H_    0.393589 0.918497 0.451097 0.162544
H9    H     H_    0.155494 0.617505 0.418441 0.169337
H10   H     H_    0.155370 0.382114 0.580589 0.168907
H11   H     H_    0.556859 0.374702 0.080450 0.167603
H12   H     H_    0.435020 0.618611 0.057801 0.182244
N1    N     N_R   0.965675 0.437433 0.545056 -0.193945
N2    N     N_R   0.965708 0.562325 0.454103 -0.191428
N3    N     N_R   0.034286 0.437395 0.544997 -0.229194
N4    N     N_R   0.034321 0.562312 0.454093 -0.227928
N5    N     N_1   0.498600 0.724970 0.501390 -0.144450
N6    N     N_1   0.498600 0.275030 0.501390 -0.144391
O1    O     O_R   0.500080 0.575970 0.379360 -0.555551
O2    O     O_R   0.500080 0.424030 0.379360 -0.562655
O3    O     O_R   0.599930 0.575960 0.499920 -0.581008
O4    O     O_R   0.599930 0.424040 0.499920 -0.587049
O5    O     O_R   0.500070 0.575900 0.620490 -0.564731
O6    O     O_R   0.500070 0.424100 0.620490 -0.559599
O7    O     O_R   0.400220 0.575910 0.499940 -0.557350
O8    O     O_R   0.400220 0.424090 0.499940 -0.548159
I1    I     I_    0.531104 0.714251 0.905812 -0.227543
I2    I     I_    0.653996 0.575308 0.883358 -0.230609
N7    N     N_3   0.384190 0.912254 0.580402 -0.577681
H13   H     H_    0.389668 0.955437 0.631710 0.226906
H14   H     H_    0.331439 0.910578 0.566604 0.223111
N8    N     N_3   0.371964 0.103219 0.548522 -0.581643
H15   H     H_    0.385041 0.102828 0.611794 0.254224
H16   H     H_    0.323126 0.073892 0.541768 0.225236
N9    N     N_3   0.510055 0.089415 0.658890 -0.554546
H17   H     H_    0.471059 0.048287 0.682745 0.231976
H18   H     H_    0.549647 0.089068 0.703514 0.238653
N10   N     N_3   0.536044 0.897957 0.654234 -0.554482
H19   H     H_    0.486255 0.901007 0.678210 0.258706
H20   H     H_    0.569698 0.926166 0.698462 0.240825
I3    I     I_    0.510356 0.125907 0.306042 -0.243499
I4    I     I_    0.481436 0.887700 0.306609 -0.244858
N11   N     N_3   0.853232 0.668230 0.506975 -0.561582
H21   H     H_    0.837284 0.701662 0.561669 0.231498
H22   H     H_    0.838268 0.708013 0.455636 0.237765
N12   N     N_3   0.853237 0.331618 0.492356 -0.561374
H23   H     H_    0.838287 0.291847 0.543733 0.233272
H24   H     H_    0.837278 0.298192 0.437702 0.232044
N13   N     N_3   0.290804 0.633496 0.405143 -0.554610
H25   H     H_    0.275165 0.626981 0.342568 0.245734
H26   H     H_    0.275783 0.697999 0.426247 0.231433
N14   N     N_3   0.290635 0.366186 0.594162 -0.553657
H27   H     H_    0.275798 0.301718 0.572826 0.242417
H28   H     H_    0.274744 0.372461 0.656696 0.237612
I5    I     I_    0.343193 0.430211 0.919329 -0.232813
I6    I     I_    0.480780 0.285365 0.883735 -0.264355
I7    I     I_    0.338647 0.524412 0.124324 -0.253995
I8    I     I_    0.435950 0.306637 0.098494 -0.147221
N15   N     N_3   0.597629 0.390559 0.937372 -0.556806
H29   H     H_    0.607026 0.385034 0.872842 0.255357
H30   H     H_    0.613115 0.328317 0.963307 0.251308
N16   N     N_3   0.399074 0.611926 0.912709 -0.560335
H31   H     H_    0.389326 0.601361 0.848846 0.246236
H32   H     H_    0.351886 0.629825 0.940128 0.260004
I9    I     I_    0.562649 0.695890 0.118605 -0.187272
I10   I     I_    0.660024 0.512257 0.095022 -0.248940

loop_
_geom_bond_atom_site_label_1
_geom_bond_atom_site_label_2
_ccdc_geom_bond_type
C1    C21   S    
N15   H29   S    
C28   I4    S    
C25   N10   S    
Cu1   Cu2   S    
C14   C18   S    
C37   N12   S    
Cu1   O1    S    
C4    C8    A    
C1    O2    A    
N16   H32   S    
Cu1   O7    S    
N11   H21   S    
C15   C19   S    
N8    H16   S    
C29   H5    S    
C11   I6    S    
C24   H3    S    
C28   C29   S    
C35   C37   A    
C24   C26   S    
C12   N16   S    
C2    N1    A    
C10   H11   S    
C18   I9    S    
C13   C32   S    
C11   C15   S    
C10   I8    S    
C6    N14   S    
C16   O3    A    
C23   C27   S    
Cu2   O2    S    
N11   H22   S    
C26   C31   S    
N15   H30   S    
C27   C30   S    
Cu2   O8    S    
C7    C33   S    
N16   H31   S    
C5    C7    A    
N9    H18   S    
C40   N4    A    
N8    H15   S    
C13   C19   T    
C34   C39   A    
C23   N7    S    
C24   C25   S    
Cu1   N5    S    
C4    C6    A    
C3    C8    A    
C10   C14   S    
Cu2   N6    S    
N13   H25   S    
N7    H14   S    
C3    H9    S    
C23   H8    S    
Cu1   O5    S    
N9    H17   S    
C31   N6    T    
C35   C39   A    
C9    C14   S    
C37   C38   A    
C14   C20   S    
N13   H26   S    
C2    C38   S    
C12   C15   S    
C30   N5    T    
C17   C18   S    
C11   N15   S    
N12   H23   S    
N14   H28   S    
C35   H2    S    
C12   I5    S    
C5    N13   S    
C22   H7    S    
N10   H20   S    
C4    H10   S    
N1    N3    A    
Cu1   O3    S    
Cu2   O4    S    
C33   O7    A    
C32   O6    A    
C15   C17   S    
C17   I1    S    
C28   H6    S    
C40   N3    A    
C34   H1    S    
N12   H24   S    
N10   H19   S    
C3    C5    A    
C1    O1    A    
C29   I3    S    
C6    C7    A    
C36   N11   S    
C25   C27   S    
C16   O4    A    
C36   C38   A    
N7    H13   S    
C2    N2    A    
N2    N4    A    
C34   C36   A    
N14   H27   S    
C9    C12   S    
C18   I10   S    
C10   C11   S    
C16   C39   S    
C24   N9    S    
C17   I2    S    
C20   C21   T    
C26   C29   S    
C9    I7    S    
C22   C26   S    
C27   C28   S    
Cu2   O6    S    
C22   N8    S    
C22   C23   S    
C9    H12   S    
C8    C40   S    
C25   H4    S    
C33   O8    A    
C32   O5    A    
