data_mof_unit_35363.cif
_audit_creation_date              2012-12-10T17:19:21-0500
_audit_creation_method            fapswitch 2.2
_symmetry_space_group_name_H-M    P1
_symmetry_Int_Tables_number       1
_space_group_crystal_system       triclinic
_cell_length_a                    15.126753
_cell_length_b                    10.86697
_cell_length_c                    9.723393
_cell_angle_alpha                 91.9444
_cell_angle_beta                  89.749244
_cell_angle_gamma                 96.242093
_cell_volume                      1587.95923292

loop_
_atom_site_label
_atom_site_type_symbol
_atom_type_description
_atom_site_fract_x
_atom_site_fract_y
_atom_site_fract_z
_atom_type_partial_charge
C1    C     C_R   0.501086 0.262125 0.498632 0.824115
C2    C     C_R   0.919157 0.601937 0.535669 0.023640
C3    C     C_R   0.940093 0.266632 0.469762 -0.162972
C4    C     C_R   0.032291 0.266360 0.464587 0.148205
C5    C     C_R   0.087854 0.377724 0.486705 0.057869
C6    C     C_R   0.049443 0.488663 0.516883 0.047478
C7    C     C_R   0.104555 0.600418 0.543640 0.108467
C8    C     C_R   0.067258 0.709153 0.577291 -0.198061
C9    C     C_R   0.975473 0.711014 0.575297 -0.037019
C10   C     C_R   0.180770 0.382048 0.478768 -0.175511
C11   C     C_R   0.234040 0.493846 0.502905 -0.042439
C12   C     C_R   0.329643 0.496789 0.500396 0.802926
C13   C     C_R   0.196585 0.601940 0.537664 -0.184767
C14   C     C_R   0.562687 0.129169 0.734465 -0.143874
C15   C     C_R   0.553081 0.083619 0.865231 0.174935
C16   C     C_R   0.502380 0.970913 0.884209 -0.195051
C17   C     C_R   0.468862 0.897863 0.770275 -0.040830
C18   C     C_R   0.486580 0.939992 0.634390 0.019201
C19   C     C_R   0.518176 0.065857 0.621395 0.074860
C20   C     C_R   0.499779 0.125959 0.499091 -0.095711
C21   C     C_R   0.464482 0.054839 0.385661 -0.153002
C22   C     C_R   0.450738 0.926269 0.389924 0.165529
C23   C     C_R   0.488081 0.734695 0.502781 0.828499
C24   C     C_R   0.470510 0.866540 0.510910 -0.160238
C25   C     C_R   0.609407 0.678240 0.156995 -0.129289
C26   C     C_R   0.643273 0.787017 0.099927 0.172262
C27   C     C_R   0.647977 0.793489 0.961232 -0.271543
C28   C     C_R   0.613554 0.694171 0.876420 -0.064395
C29   C     C_R   0.556307 0.590468 0.930507 0.143088
C30   C     C_R   0.556036 0.586783 0.079610 0.149079
C31   C     C_R   0.443358 0.419600 0.069765 0.237262
C32   C     C_R   0.444326 0.419106 0.922444 0.011973
C33   C     C_R   0.671519 0.497322 0.499334 0.833018
C34   C     C_R   0.828296 0.603368 0.505969 -0.121170
C35   C     C_R   0.770030 0.493043 0.498978 -0.136099
C36   C     C_R   0.807088 0.379094 0.493244 0.104029
C37   C     C_R   0.900567 0.377147 0.493416 0.038631
C38   C     C_R   0.956213 0.488860 0.517285 0.014734
Cu1   Cu    Cu3+1 0.499990 0.499990 0.640660 0.980097
Cu2   Cu    Cu3+1 0.500010 0.500010 0.359340 1.016318
H1    H     H_    0.602593 0.216980 0.724358 0.191837
H2    H     H_    0.488616 0.941198 0.987662 0.196413
H3    H     H_    0.622751 0.673135 0.263357 0.212380
H4    H     H_    0.681563 0.878000 0.919793 0.196685
H5    H     H_    0.900532 0.178962 0.451302 0.213780
H6    H     H_    0.212827 0.299607 0.455235 0.177371
H7    H     H_    0.239358 0.687333 0.558477 0.142492
H8    H     H_    0.109915 0.793242 0.604656 0.170082
H9    H     H_    0.446194 0.098954 0.293716 0.204772
N1    N     N_R   0.500860 0.501210 0.147910 -0.201996
N2    N     N_R   0.500890 0.501290 0.852040 -0.230116
O1    O     O_R   0.499990 0.319640 0.618810 -0.601678
O2    O     O_R   0.500000 0.319660 0.381240 -0.539834
O3    O     O_R   0.370250 0.499960 0.618800 -0.575488
O4    O     O_R   0.370260 0.499980 0.381230 -0.544792
O5    O     O_R   0.500000 0.680340 0.618760 -0.598996
O6    O     O_R   0.500010 0.680360 0.381190 -0.573957
O7    O     O_R   0.629740 0.500020 0.618770 -0.579698
O8    O     O_R   0.629750 0.500040 0.381200 -0.580787
C39   C     C_1   0.802451 0.713315 0.448368 0.285861
N3    N     N_1   0.785394 0.804235 0.403156 -0.203131
I1    I     I_    0.602269 0.200473 0.031500 -0.302397
C40   C     C_1   0.402060 0.796246 0.797974 0.306859
N4    N     N_1   0.348314 0.715435 0.821113 -0.244052
I2    I     I_    0.382746 0.831714 0.219470 -0.324579
I3    I     I_    0.347266 0.290311 0.164508 -0.291428
I4    I     I_    0.680036 0.948261 0.218119 -0.252015
C41   C     C_1   0.645588 0.718415 0.741934 0.388036
N5    N     N_1   0.672991 0.749695 0.636530 -0.299669
I5    I     I_    0.722460 0.211635 0.473415 -0.306982
C42   C     C_1   0.383183 0.331963 0.845617 0.383707
N6    N     N_1   0.333926 0.261726 0.784493 -0.260840
I6    I     I_    0.081209 0.092630 0.421584 -0.308720
C43   C     C_1   0.941451 0.823871 0.624765 0.306803
N7    N     N_1   0.914396 0.914080 0.664743 -0.220162

loop_
_geom_bond_atom_site_label_1
_geom_bond_atom_site_label_2
_ccdc_geom_bond_type
C8    C9    A    
C31   I3    S    
Cu1   N2    S    
C33   O7    A    
C35   C36   A    
C25   H3    S    
C21   H9    S    
C7    C8    A    
C32   N2    A    
C26   C27   A    
C37   C38   A    
C18   C24   A    
C26   I4    S    
C36   C37   A    
C28   C41   S    
C34   C35   A    
C5    C6    A    
Cu1   O3    S    
C15   C16   A    
C18   C19   A    
C1    O2    A    
C27   H4    S    
C31   C32   A    
C41   N5    T    
C10   H6    S    
C23   C24   S    
C6    C38   A    
C2    C34   A    
Cu1   O1    S    
C30   N1    A    
C33   O8    A    
Cu2   O8    S    
C21   C22   A    
C34   C39   S    
C36   I5    S    
C32   C42   S    
C43   N7    T    
C23   O5    A    
Cu1   Cu2   S    
C13   H7    S    
C16   C17   A    
C25   C26   A    
Cu1   O7    S    
C3    H5    S    
C39   N3    T    
C8    H8    S    
C22   I2    S    
C29   C30   A    
C2    C38   A    
Cu1   O5    S    
Cu2   O4    S    
C17   C18   A    
C4    I6    S    
C14   H1    S    
C22   C24   A    
C9    C43   S    
C31   N1    A    
C3    C4    A    
C16   H2    S    
C29   N2    A    
C25   C30   A    
C23   O6    A    
C28   C29   A    
C1    C20   S    
Cu2   O6    S    
C14   C19   A    
C4    C5    A    
C11   C12   S    
C6    C7    A    
C19   C20   A    
C5    C10   A    
C17   C40   S    
C11   C13   A    
Cu2   N1    S    
C33   C35   S    
C15   I1    S    
C1    O1    A    
C12   O4    A    
C10   C11   A    
C40   N4    T    
C7    C13   A    
C42   N6    T    
C20   C21   A    
C3    C37   A    
Cu2   O2    S    
C27   C28   A    
C14   C15   A    
C2    C9    A    
C12   O3    A    
