data_mof_unit_45770.cif
_audit_creation_date              2013-03-05T15:54:38-0500
_audit_creation_method            fapswitch 2.2
_symmetry_space_group_name_H-M    P1
_symmetry_Int_Tables_number       1
_space_group_crystal_system       triclinic
_cell_length_a                    9.908854
_cell_length_b                    10.692893
_cell_length_c                    16.847004
_cell_angle_alpha                 91.417499
_cell_angle_beta                  85.380486
_cell_angle_gamma                 88.393885
_cell_volume                      1777.86228907

loop_
_atom_site_label
_atom_site_type_symbol
_atom_site_description
_atom_site_fract_x
_atom_site_fract_y
_atom_site_fract_z
_atom_type_partial_charge
O1    O     O_R   0.385310 0.683220 0.500000 -0.654706
O2    O     O_R   0.614640 0.683250 0.500010 -0.630428
C1    C     C_R   0.498045 0.739887 0.493576 0.868787
O3    O     O_R   0.371780 0.500010 0.615800 -0.612575
O4    O     O_R   0.601110 0.500030 0.615800 -0.632443
C2    C     C_R   0.481200 0.507639 0.652802 0.906773
Zn1   Zn    Zn3+2 0.346870 0.499980 0.499990 0.974434
Zn2   Zn    Zn3+2 0.653130 0.500020 0.500010 0.985932
O5    O     O_R   0.385360 0.316750 0.499990 -0.600155
O6    O     O_R   0.614690 0.316780 0.500000 -0.608875
O7    O     O_R   0.398890 0.499970 0.384200 -0.620905
O8    O     O_R   0.628220 0.499990 0.384200 -0.622367
C3    C     C_R   0.500810 0.260597 0.506611 0.921806
C4    C     C_R   0.518600 0.499946 0.347108 0.883683
C5    C     C_R   0.469576 0.545404 0.736769 -0.028431
C6    C     C_R   0.584278 0.589516 0.770762 -0.183999
C7    C     C_R   0.573851 0.637111 0.847913 -0.164337
C8    C     C_R   0.450092 0.634518 0.894005 0.123430
C9    C     C_R   0.333643 0.595459 0.859806 -0.113247
C10   C     C_R   0.343069 0.552002 0.780918 -0.170253
C11   C     C_R   0.420447 0.509345 0.138474 -0.115657
C12   C     C_R   0.415393 0.487900 0.219184 -0.180069
C13   C     C_R   0.649497 0.549253 0.221205 -0.223340
C14   C     C_R   0.654644 0.571564 0.140153 0.306191
C15   C     C_R   0.538138 0.555136 0.099439 0.132805
C16   C     C_2   0.449836 0.644738 0.980387 0.240991
C17   C     C_2   0.542069 0.574052 0.014533 -0.247087
C18   C     C_R   0.529084 0.509844 0.261154 -0.097347
H1    H     H_    0.682786 0.586807 0.738263 0.162941
H2    H     H_    0.322285 0.455309 0.248788 0.171898
H3    H     H_    0.738158 0.566145 0.253111 0.193399
H4    H     H_    0.619873 0.520077 0.978254 0.173602
H5    H     H_    0.237649 0.591879 0.895183 0.182256
H6    H     H_    0.332434 0.490452 0.106374 0.184540
H7    H     H_    0.252554 0.521154 0.755194 0.192526
H8    H     H_    0.664518 0.667888 0.873615 0.168803
H9    H     H_    0.706455 0.881749 0.450657 0.226558
C19   C     C_R   0.239109 0.901282 0.497155 -0.288868
H10   H     H_    0.225153 0.820187 0.459603 0.235467
C20   C     C_R   0.123373 0.967088 0.531622 0.201242
C21   C     C_R   0.141442 0.072147 0.581878 0.197918
C22   C     C_R   0.271574 0.120156 0.585057 0.174310
C23   C     C_R   0.382027 0.065539 0.536585 -0.019879
C24   C     C_R   0.370310 0.944536 0.506414 0.001464
C25   C     C_R   0.491767 0.873834 0.485850 -0.095498
C26   C     C_R   0.614256 0.933514 0.471231 -0.132308
H11   H     H_    0.711244 0.107172 0.463772 0.196063
C27   C     C_R   0.618299 0.060850 0.481876 -0.123447
C28   C     C_R   0.502870 0.127351 0.514498 -0.076491
H12   H     H_    0.891340 0.362601 0.408743 0.140822
C29   C     C_R   0.841782 0.660775 0.606707 -0.126707
H13   H     H_    0.734503 0.669989 0.608811 0.190638
C30   C     C_R   0.902802 0.736163 0.661137 -0.098462
H14   H     H_    0.841248 0.797497 0.702416 0.184301
C31   C     C_R   0.042433 0.735052 0.661371 -0.161078
H15   H     H_    0.089869 0.795757 0.702611 0.182291
C32   C     C_R   0.121721 0.658846 0.606998 -0.177802
H16   H     H_    0.228274 0.667236 0.608205 0.201816
C33   C     C_R   0.063142 0.578318 0.552835 0.212759
C34   C     C_R   0.918578 0.578699 0.552736 0.222857
N1    N     N_R   0.857140 0.501200 0.500750 -0.120529
C35   C     C_R   0.937653 0.424420 0.449746 -0.057597
H17   H     H_    0.142076 0.362780 0.408672 0.140302
C36   C     C_R   0.080797 0.424535 0.449715 -0.061016
N2    N     N_R   0.142740 0.501280 0.500770 -0.119879
Br1   Br    Br    0.820166 0.628956 0.088127 -0.456356
N3    N     N_R   0.990824 0.925323 0.515300 0.213324
O9    O     O_R   0.978211 0.839058 0.460737 -0.435957
O10   O     O_R   0.881439 0.975966 0.551739 -0.375584
N4    N     N_R   0.030007 0.129935 0.630019 0.271074
O11   O     O_R   0.972651 0.070333 0.689478 -0.330094
O12   O     O_R   0.997381 0.247149 0.621032 -0.357028
Br2   Br    Br    0.303055 0.235033 0.670832 -0.418129
Br3   Br    Br    0.311926 0.747250 0.039822 -0.429072

loop_
_geom_bond_atom_site_label_1
_geom_bond_atom_site_label_2
_geom_bond_distance
_ccdc_geom_bond_type
O4    Zn2   1.977119 S    
C19   C20   1.405266 A    
C13   C14   1.389118 A    
O6    C3    1.291399 A    
C19   C24   1.411090 A    
N4    O11   1.301068 A    
C29   C34   1.409842 A    
C7    H8    1.084031 S    
Zn1   N2    2.021334 S    
C21   C22   1.405696 A    
C29   C30   1.391509 A    
C5    C10   1.404205 A    
C9    C10   1.392125 A    
C8    C16   1.456466 S    
C14   Br1   1.919986 S    
Zn2   N1    2.022937 S    
Zn2   O8    1.986221 S    
C4    C18   1.450126 S    
C36   N2    1.366858 A    
C31   H15   1.082768 S    
C30   C31   1.383627 A    
O2    C1    1.302876 A    
C6    H1    1.079322 S    
C1    C25   1.441450 S    
C33   C34   1.432491 A    
C12   C18   1.399657 A    
C13   C18   1.402509 A    
C33   N2    1.373472 A    
Zn1   O7    1.977119 S    
C2    C5    1.456119 S    
C32   H16   1.063903 S    
N1    C35   1.366318 A    
C27   C28   1.396319 A    
O1    Zn1   2.006496 S    
O3    Zn1   1.986220 S    
C3    C28   1.433967 S    
C5    C6    1.401339 A    
Zn2   O6    2.006496 S    
C20   C21   1.414042 A    
C16   Br3   1.926888 S    
O8    C4    1.296021 A    
C7    C8    1.398983 A    
C31   C32   1.389828 A    
C23   C24   1.389720 A    
C16   C17   1.343482 D    
O4    C2    1.296050 A    
H12   C35   1.081755 S    
O7    C4    1.295415 A    
C26   C27   1.371070 A    
C32   C33   1.409075 A    
C15   C17   1.447155 S    
C22   C23   1.415056 A    
C17   H4    1.087525 S    
H17   C36   1.081743 S    
O5    C3    1.291132 A    
N3    O9    1.301720 A    
C25   C26   1.394296 A    
C29   H13   1.062476 S    
C14   C15   1.402502 A    
O3    C2    1.296964 A    
C8    C9    1.400000 A    
C9    H5    1.083185 S    
O2    Zn2   1.985513 S    
Zn1   O5    1.985515 S    
C11   C15   1.398783 A    
C34   N1    1.379361 A    
C22   Br2   1.923697 S    
C35   C36   1.418386 A    
C11   H6    1.083632 S    
C12   H2    1.083455 S    
N3    O10   1.299365 A    
H9    C26   1.082739 S    
C11   C12   1.381684 A    
C10   H7    1.083131 S    
N4    O12   1.301117 A    
C21   N4    1.432313 S    
C23   C28   1.412050 A    
C24   C25   1.417343 A    
H11   C27   1.083673 S    
C30   H14   1.082799 S    
C13   H3    1.083292 S    
C6    C7    1.379038 A    
O1    C1    1.283918 A    
C20   N3    1.443980 S    
C19   H10   1.079346 S    
