data_mof_unit_17726.cif
_audit_creation_date              2012-12-11T15:47:02-0500
_audit_creation_method            fapswitch 2.2
_symmetry_space_group_name_H-M    P1
_symmetry_Int_Tables_number       1
_space_group_crystal_system       triclinic
_cell_length_a                    11.531229
_cell_length_b                    11.504382
_cell_length_c                    19.554796
_cell_angle_alpha                 90.329837
_cell_angle_beta                  89.850279
_cell_angle_gamma                 60.22096
_cell_volume                      2251.4881104

loop_
_atom_site_label
_atom_site_type_symbol
_atom_type_description
_atom_site_fract_x
_atom_site_fract_y
_atom_site_fract_z
_atom_type_partial_charge
C1    C     C_R   0.640326 0.117301 0.599273 0.544458
C2    C     C_1   0.652904 0.149788 0.668612 0.004317
C3    C     C_R   0.666756 0.674407 0.190564 -0.004990
C4    C     C_R   0.612296 0.745840 0.598620 0.543079
C5    C     C_R   0.541537 0.748415 0.220692 0.006251
C6    C     C_R   0.531379 0.759615 0.289909 -0.032890
C7    C     C_R   0.771374 0.640166 0.302855 -0.034277
C8    C     C_R   0.781989 0.631765 0.231396 -0.139531
C9    C     C_3   0.408976 0.753495 0.214759 0.247701
C10   C     C_3   0.401111 0.761769 0.292112 -0.189735
C11   C     C_R   0.642865 0.698597 0.332373 -0.011653
C12   C     C_1   0.640911 0.703509 0.667937 0.004961
C13   C     C_R   0.126611 0.203454 0.195125 -0.000868
C14   C     C_R   0.168241 0.282709 0.227988 0.047195
C15   C     C_R   0.197467 0.265749 0.296002 0.094380
C16   C     C_R   0.238579 0.146263 0.597602 0.546135
C17   C     C_R   0.123045 0.104353 0.304835 -0.187457
C18   C     C_R   0.095842 0.119365 0.234656 -0.169353
C19   C     C_3   0.283694 0.301894 0.211054 -0.268365
C20   C     C_3   0.317013 0.282198 0.286326 -0.230624
C21   C     C_R   0.182971 0.171770 0.334823 0.011091
C22   C     C_R   0.667048 0.188500 0.193024 0.008682
C23   C     C_1   0.064738 0.233909 0.851030 0.001970
C24   C     C_R   0.719742 0.058630 0.218128 0.000532
C25   C     C_R   0.718496 0.037845 0.287050 0.013347
C26   C     C_R   0.595479 0.275141 0.308758 -0.176295
C27   C     C_R   0.597203 0.297325 0.238530 -0.153833
C28   C     C_R   0.645984 0.113032 0.403052 0.537682
C29   C     C_3   0.853477 0.934969 0.209107 -0.254790
C30   C     C_3   0.852994 0.915511 0.285573 -0.242799
C31   C     C_R   0.663990 0.143930 0.333756 0.012239
C32   C     C_R   0.025511 0.262984 0.921627 0.554207
C33   C     C_R   0.684180 0.604521 0.929486 0.533914
C34   C     C_1   0.135238 0.189308 0.721892 -0.028700
C35   C     C_R   0.708733 0.206717 0.930062 0.535985
C36   C     C_R   0.080512 0.236707 0.125846 0.554095
C37   C     C_R   0.682950 0.613401 0.124670 0.557059
C38   C     C_R   0.707843 0.211482 0.126814 0.546218
C39   C     C_R   0.617282 0.737706 0.402916 0.520927
C40   C     C_R   0.243367 0.141428 0.401758 0.538259
C41   C     C_1   0.671181 0.646231 0.860052 0.004519
C42   C     C_1   0.654830 0.683180 0.728341 -0.030508
C43   C     C_1   0.664070 0.666233 0.799589 -0.030939
C44   C     C_2   0.893832 0.580050 0.345273 0.218815
C45   C     C_1   0.095819 0.212471 0.791398 -0.029501
C46   C     C_1   0.176241 0.169942 0.663758 0.000783
C47   C     C_1   0.679192 0.191229 0.860695 0.004705
C48   C     C_1   0.658748 0.167313 0.728975 -0.029933
C49   C     C_1   0.666202 0.180904 0.800273 -0.029645
Cr1   Cr    Cr6+3 0.404720 0.198220 0.499960 1.034835
Cr2   Cr    Cr6+3 0.698290 0.897110 0.500380 1.033991
Cr3   Cr    Cr6+3 0.396970 0.904720 0.499610 1.027553
Cr4   Cr    Cr6+3 0.926290 0.152010 0.028150 1.029072
Cr5   Cr    Cr6+3 0.921440 0.451830 0.027490 1.028730
Cr6   Cr    Cr6+3 0.626370 0.446880 0.028730 1.075946
F1    F     F_    0.415861 0.636566 0.191570 -0.637583
H1    H     H_    0.359755 0.220446 0.178044 0.129190
H2    H     H_    0.880876 0.577549 0.208638 0.186377
H3    H     H_    0.331605 0.845179 0.189017 0.117417
H4    H     H_    0.319920 0.857779 0.312115 0.113245
H5    H     H_    0.409180 0.671061 0.316702 0.169808
H6    H     H_    0.103607 0.036361 0.334295 0.120958
H7    H     H_    0.051909 0.065018 0.211468 0.139760
H8    H     H_    0.251229 0.405293 0.193520 0.183111
H9    H     H_    0.889373 0.557014 0.398598 0.123180
H10   H     H_    0.411132 0.187871 0.296996 0.139759
H11   H     H_    0.305390 0.373613 0.312317 0.183000
H12   H     H_    0.543057 0.359630 0.343312 0.130407
H13   H     H_    0.553532 0.399166 0.220885 0.219308
H14   H     H_    0.934691 0.953853 0.192806 0.160570
H15   H     H_    0.846662 0.856227 0.179080 0.146629
H16   H     H_    0.848640 0.825060 0.299718 0.190376
H17   H     H_    0.929420 0.929659 0.313141 0.142624
O1    O     O_R   0.267750 0.231960 0.575440 -0.502952
O2    O     O_R   0.596230 0.579400 0.952760 -0.502158
O3    O     O_R   0.639160 0.321170 0.958690 -0.495641
O4    O     O_R   0.527290 0.186640 0.570530 -0.494058
O5    O     O_R   0.821370 0.124220 0.104400 -0.526041
O6    O     O_R   0.037020 0.167050 0.097880 -0.504298
O7    O     O_R   0.056310 0.349620 0.102920 -0.505934
O8    O     O_R   0.797790 0.564880 0.097980 -0.526128
O9    O     O_R   0.596000 0.584270 0.104310 -0.427486
O10   O     O_R   0.638950 0.325690 0.099180 -0.481557
O11   O     O_3   0.824700 0.350240 0.028120 -0.283364
O12   O     O_R   0.685950 0.784660 0.430010 -0.509202
O13   O     O_R   0.728110 0.003450 0.576380 -0.503935
O14   O     O_R   0.682980 0.789190 0.570500 -0.495093
O15   O     O_R   0.499300 0.771880 0.575540 -0.504086
O16   O     O_R   0.285350 0.030870 0.569740 -0.492774
O17   O     O_R   0.270960 0.227070 0.423890 -0.508161
O18   O     O_R   0.530270 0.182120 0.430040 -0.509383
O19   O     O_R   0.731320 0.998570 0.424830 -0.510398
O20   O     O_2   0.001087 0.556860 0.321223 -0.537449
O21   O     O_R   0.502510 0.767000 0.423980 -0.517929
O22   O     O_R   0.288320 0.026340 0.429250 -0.507523
O23   O     O_3   0.499990 0.000020 0.499980 -0.253426
O24   O     O_R   0.821590 0.119350 0.952850 -0.510850
O25   O     O_R   0.037230 0.162540 0.957390 -0.486351
O26   O     O_R   0.056530 0.344750 0.951370 -0.496494
O27   O     O_R   0.798000 0.560370 0.957490 -0.512414

loop_
_geom_bond_atom_site_label_1
_geom_bond_atom_site_label_2
_ccdc_geom_bond_type
C25   C31   A    
C23   C45   T    
C38   O10   A    
C1    O4    A    
C20   H11   S    
C19   C20   S    
C35   C47   S    
Cr2   O12   S    
Cr5   O11   S    
Cr3   O16   S    
C7    C8    A    
C47   C49   T    
C4    O14   A    
C19   H1    S    
C7    C11   A    
C26   C27   A    
C13   C18   A    
Cr4   O11   S    
C16   O1    A    
C20   H10   S    
Cr4   O6    S    
Cr1   O1    S    
C5    C6    A    
C17   H6    S    
C18   H7    S    
C22   C38   S    
C25   C30   S    
Cr3   O22   S    
C1    C2    S    
C24   C29   S    
C12   C42   T    
C44   O20   D    
C8    H2    S    
C33   O2    A    
C32   O25   A    
Cr3   O21   S    
C34   C46   T    
C4    C12   S    
C9    C10   S    
C27   H13   S    
Cr2   O23   S    
Cr6   O2    S    
C16   O16   A    
C13   C14   A    
C41   C43   T    
C37   O8    A    
C44   H9    S    
Cr2   O13   S    
Cr1   O17   S    
Cr5   O7    S    
C15   C20   S    
C35   O3    A    
Cr3   O15   S    
C24   C25   A    
C13   C36   S    
C3    C8    A    
C36   O7    A    
C16   C46   S    
C6    C11   A    
C34   C45   S    
C30   H17   S    
C38   O5    A    
C2    C48   T    
C17   C21   A    
C9    H3    S    
C10   H4    S    
C39   O21   A    
C5    C9    S    
C29   C30   S    
Cr2   O19   S    
C19   H8    S    
C17   C18   A    
C28   O19   A    
C9    F1    S    
C7    C44   S    
Cr6   O9    S    
C11   C39   S    
Cr6   O3    S    
C48   C49   S    
C22   C27   A    
C22   C24   A    
Cr5   O26   S    
C10   H5    S    
C42   C43   S    
C39   O12   A    
C40   O22   A    
Cr2   O14   S    
Cr1   O4    S    
C29   H14   S    
C1    O13   A    
C26   C31   A    
C14   C19   S    
C28   C31   S    
C3    C5    A    
C36   O6    A    
C6    C10   S    
C30   H16   S    
C4    O15   A    
Cr4   O25   S    
C32   O26   A    
C33   O27   A    
C26   H12   S    
C23   C32   S    
Cr4   O5    S    
C33   C41   S    
Cr1   O23   S    
C21   C40   S    
Cr5   O27   S    
Cr4   O24   S    
Cr3   O23   S    
C28   O18   A    
C37   O9    A    
Cr1   O18   S    
C15   C21   A    
C3    C37   S    
C14   C15   A    
C40   O17   A    
Cr6   O11   S    
C35   O24   A    
Cr6   O10   S    
Cr5   O8    S    
C29   H15   S    
