data_mof_unit_57786.cif
_audit_creation_date              2012-12-10T17:05:16-0500
_audit_creation_method            fapswitch 2.2
_symmetry_space_group_name_H-M    P1
_symmetry_Int_Tables_number       1
_space_group_crystal_system       triclinic
_cell_length_a                    10.035319
_cell_length_b                    10.642228
_cell_length_c                    15.529596
_cell_angle_alpha                 89.743126
_cell_angle_beta                  67.609002
_cell_angle_gamma                 89.035102
_cell_volume                      1533.26782163

loop_
_atom_site_label
_atom_site_type_symbol
_atom_type_description
_atom_site_fract_x
_atom_site_fract_y
_atom_site_fract_z
_atom_type_partial_charge
C1    C     C_R   0.493542 0.736910 0.509262 0.926998
C2    C     C_R   0.712687 0.401408 0.040340 0.177031
C3    C     C_R   0.573832 0.452415 0.091946 0.099477
C4    C     C_R   0.409757 0.498310 0.675930 0.837971
C5    C     C_R   0.815394 0.390051 0.081253 -0.226359
C6    C     C_R   0.780622 0.428161 0.173230 -0.180168
C7    C     C_R   0.546988 0.500553 0.180376 -0.258153
C8    C     C_2   0.558260 0.070073 0.557440 -0.187701
C9    C     C_2   0.504531 0.129238 0.501275 -0.314552
C10   C     C_2   0.564172 0.933303 0.560911 0.039232
C11   C     C_2   0.475299 0.867936 0.531775 -0.401628
C12   C     C_R   0.406574 0.453774 0.915599 0.095218
C13   C     C_2   0.111686 0.438507 0.439684 -0.188400
C14   C     C_2   0.959439 0.430497 0.444282 0.396027
C15   C     C_R   0.501397 0.262246 0.499695 0.948968
C16   C     C_R   0.590222 0.499143 0.324018 0.885482
C17   C     C_R   0.353302 0.489767 0.777244 -0.052139
C18   C     C_R   0.644722 0.481655 0.223324 -0.067622
C19   C     C_R   0.163980 0.518112 0.928880 -0.215988
C20   C     C_R   0.209236 0.518039 0.832198 -0.200262
C21   C     C_R   0.449208 0.455300 0.819008 -0.278030
C22   C     C_R   0.665627 0.873996 0.598846 0.153726
C23   C     C_R   0.262312 0.489149 0.970871 0.170057
C24   C     C_R   0.812582 0.903785 0.561363 -0.144357
C25   C     C_R   0.907548 0.848806 0.597710 -0.151486
C26   C     C_R   0.856338 0.764930 0.672260 -0.161629
C27   C     C_R   0.710029 0.735931 0.710695 -0.129948
C28   C     C_R   0.614762 0.790511 0.674488 -0.093657
C29   C     C_R   0.506817 0.427670 0.957887 0.066585
C30   C     C_R   0.466536 0.455837 0.053454 0.062022
C31   C     C_R   0.319884 0.484077 0.107806 -0.206646
C32   C     C_R   0.219263 0.498652 0.067004 -0.223548
C33   C     C_R   0.646056 0.375669 0.907950 -0.235869
C34   C     C_R   0.746341 0.361381 0.949198 -0.236754
Cl1   Cl    Cl    0.929178 0.323777 0.368073 -0.632041
H1    H     H_    0.108493 0.522151 0.110566 0.156581
H2    H     H_    0.857476 0.412167 0.205767 0.202423
H3    H     H_    0.851393 0.320505 0.909082 0.152808
H4    H     H_    0.053710 0.545319 0.970612 0.147912
H5    H     H_    0.133400 0.544172 0.800614 0.153505
H6    H     H_    0.559733 0.436585 0.774456 0.156884
H7    H     H_    0.278961 0.492490 0.182665 0.160035
H8    H     H_    0.679175 0.340912 0.837649 0.148918
H9    H     H_    0.853668 0.968596 0.503575 0.159874
H10   H     H_    0.020887 0.871204 0.568066 0.144980
H11   H     H_    0.930038 0.722357 0.700189 0.130953
H12   H     H_    0.920620 0.348210 0.043136 0.152128
H13   H     H_    0.670407 0.671252 0.768597 0.139144
H14   H     H_    0.501474 0.767885 0.705317 0.109158
H15   H     H_    0.602510 0.123295 0.599794 0.164325
H16   H     H_    0.462628 0.082109 0.455445 0.143306
H17   H     H_    0.383335 0.912492 0.522946 0.151007
H18   H     H_    0.195148 0.387589 0.384168 0.197607
H19   H     H_    0.068682 0.540137 0.555113 0.148844
H20   H     H_    0.873748 0.566207 0.538763 0.139252
H21   H     H_    0.448308 0.551599 0.218365 0.155985
N1    N     N_2   0.148330 0.498670 0.499030 -0.210379
N2    N     N_2   0.852680 0.498640 0.499000 -0.211858
O1    O     O_R   0.386950 0.680940 0.500010 -0.615259
O2    O     O_R   0.613110 0.680900 0.499990 -0.593221
O3    O     O_R   0.322330 0.500030 0.632270 -0.617873
O4    O     O_R   0.548480 0.499990 0.632240 -0.623482
O5    O     O_R   0.386890 0.319100 0.500010 -0.609932
O6    O     O_R   0.613050 0.319060 0.499990 -0.555085
O7    O     O_R   0.451520 0.500010 0.367760 -0.616121
O8    O     O_R   0.677670 0.499970 0.367730 -0.566864
Zn1   Zn    Zn3+2 0.349000 0.500030 0.500020 0.937912
Zn2   Zn    Zn3+2 0.651000 0.499970 0.499980 0.994674

loop_
_geom_bond_atom_site_label_1
_geom_bond_atom_site_label_2
_ccdc_geom_bond_type
C27   H13   S    
C3    C30   A    
O8    Zn2   S    
C15   O6    A    
C29   C30   A    
C16   O7    A    
C31   H7    S    
C29   C33   A    
C12   C29   A    
C28   H14   S    
O3    Zn1   S    
C3    C7    A    
C31   C32   A    
C9    H16   S    
O4    Zn2   S    
C7    C18   A    
C23   C32   A    
C2    C34   A    
C33   C34   A    
C9    C15   S    
C6    H2    S    
C4    O3    A    
C22   C28   A    
C13   C14   S    
C10   C22   S    
C5    H12   S    
C12   C23   A    
C26   C27   A    
C30   C31   A    
C19   H4    S    
C7    H21   S    
N1    Zn1   S    
C14   N2    D    
C4    C17   S    
C32   H1    S    
C22   C24   A    
C8    C10   S    
C24   H9    S    
C2    C3    A    
C8    H15   S    
C13   H18   S    
C1    O1    A    
C5    C6    A    
C20   H5    S    
C6    C18   A    
O5    Zn1   S    
C1    O2    A    
C2    C5    A    
C16   O8    A    
C10   C11   D    
C26   H11   S    
C25   H10   S    
C33   H8    S    
O6    Zn2   S    
C4    O4    A    
C27   C28   A    
C17   C20   A    
C13   N1    D    
C24   C25   A    
O2    Zn2   S    
C16   C18   S    
C21   H6    S    
H20   N2    S    
N2    Zn2   S    
C14   Cl1   S    
C15   O5    A    
C19   C23   A    
C11   H17   S    
O1    Zn1   S    
C25   C26   A    
C34   H3    S    
C12   C21   A    
C17   C21   A    
C19   C20   A    
C8    C9    D    
O7    Zn1   S    
H19   N1    S    
C1    C11   S    
