data_mof_unit_39945.cif
_audit_creation_date              2012-12-10T18:08:22-0500
_audit_creation_method            fapswitch 2.2
_symmetry_space_group_name_H-M    P1
_symmetry_Int_Tables_number       1
_space_group_crystal_system       triclinic
_cell_length_a                    12.637131
_cell_length_b                    13.109402
_cell_length_c                    14.158238
_cell_angle_alpha                 90.396673
_cell_angle_beta                  102.246236
_cell_angle_gamma                 83.225876
_cell_volume                      2275.75775518

loop_
_atom_site_label
_atom_site_type_symbol
_atom_type_description
_atom_site_fract_x
_atom_site_fract_y
_atom_site_fract_z
_atom_type_partial_charge
C1    C     C_R   0.440092 0.690185 0.478661 0.864083
C2    C     C_1   0.496591 0.499241 0.227328 -0.202318
C3    C     C_R   0.728861 0.051905 0.493088 -0.268582
C4    C     C_R   0.595257 0.197892 0.502933 -0.153560
C5    C     C_R   0.293132 0.833568 0.422640 -0.245006
C6    C     C_R   0.258668 0.937573 0.399019 0.076299
C7    C     C_R   0.337902 0.005551 0.407676 -0.243074
C8    C     C_R   0.450452 0.968734 0.428745 0.086685
C9    C     C_R   0.480955 0.862254 0.429120 0.085162
C10   C     C_R   0.534435 0.033135 0.451653 0.094407
C11   C     C_R   0.644730 0.991709 0.459468 0.101776
C12   C     C_R   0.501249 0.500342 0.670673 0.898605
C13   C     C_R   0.669195 0.889672 0.435999 -0.261561
C14   C     C_R   0.587541 0.826033 0.418500 -0.188831
C15   C     C_R   0.512200 0.135426 0.474819 -0.325469
C16   C     C_R   0.705237 0.154324 0.516263 0.380731
C17   C     C_R   0.404403 0.796209 0.442246 -0.141167
C18   C     C_R   0.089791 0.344033 0.370437 -0.291865
C19   C     C_R   0.796848 0.634866 0.604862 -0.032551
C20   C     C_R   0.898167 0.672162 0.622445 -0.025641
C21   C     C_R   0.979733 0.621915 0.579674 -0.251018
C22   C     C_R   0.959925 0.536252 0.520063 -0.001662
C23   C     C_R   0.560548 0.308037 0.509799 0.898015
C24   C     C_R   0.853899 0.505961 0.501141 0.234213
C25   C     C_R   0.040402 0.480742 0.477340 -0.003032
C26   C     C_R   0.011718 0.399676 0.413181 0.182948
C27   C     C_R   0.905604 0.374519 0.392665 -0.231931
C28   C     C_R   0.827961 0.426784 0.436479 -0.121288
C29   C     C_R   0.149427 0.500810 0.496908 -0.042140
C30   C     C_R   0.195755 0.368121 0.392344 0.014416
C31   C     C_R   0.498776 0.499646 0.329322 0.861106
C32   C     C_1   0.503502 0.500840 0.772702 -0.200120
C33   C     C_1   0.503153 0.500781 0.857960 -0.006842
C34   C     C_1   0.501171 0.500350 0.957586 0.007577
C35   C     C_1   0.499068 0.499871 0.042486 0.005624
C36   C     C_1   0.497026 0.499381 0.142095 -0.012613
H1    H     H_    0.882828 0.313015 0.343671 0.158249
H2    H     H_    0.069137 0.282702 0.320844 0.146630
H3    H     H_    0.179703 0.558958 0.545944 0.125212
H4    H     H_    0.732082 0.670521 0.637512 0.145572
H5    H     H_    0.056188 0.653524 0.590923 0.132596
H6    H     H_    0.748292 0.402874 0.418945 0.212098
H7    H     H_    0.751946 0.857160 0.436195 0.146277
H8    H     H_    0.813202 0.018607 0.504397 0.179637
H9    H     H_    0.429541 0.167177 0.473951 0.183315
H10   H     H_    0.233556 0.780758 0.422979 0.158090
H11   H     H_    0.309972 0.086185 0.394736 0.125830
H12   H     H_    0.609546 0.748333 0.397507 0.183868
H13   H     H_    0.257496 0.326045 0.359929 0.128204
N1    N     N_R   0.222200 0.444680 0.454480 -0.096742
N2    N     N_R   0.776970 0.554780 0.545050 -0.128158
O1    O     O_R   0.366740 0.627160 0.478260 -0.612769
O2    O     O_R   0.544830 0.662520 0.507340 -0.627461
O3    O     O_R   0.410930 0.482320 0.611740 -0.592005
O4    O     O_R   0.589030 0.517680 0.640820 -0.584656
O5    O     O_R   0.455170 0.337480 0.492660 -0.622802
O6    O     O_R   0.633260 0.372840 0.521740 -0.570649
O7    O     O_R   0.410970 0.482320 0.359180 -0.593592
O8    O     O_R   0.589070 0.517680 0.388260 -0.633319
Zn1   Zn    Zn3+2 0.381090 0.476390 0.480580 0.935638
Zn2   Zn    Zn3+2 0.618910 0.523610 0.519420 0.943153
Cl1   Cl    Cl    0.816422 0.220783 0.566850 -0.635156
C37   C     C_R   0.917657 0.764701 0.682372 0.121042
C38   C     C_R   0.834525 0.847378 0.677807 -0.193000
C39   C     C_R   0.853916 0.935574 0.731650 -0.099694
C40   C     C_R   0.956029 0.942181 0.791286 -0.081470
C41   C     C_R   0.038867 0.860432 0.797431 -0.139696
C42   C     C_R   0.020040 0.772148 0.743469 -0.143654
H14   H     H_    0.754957 0.844716 0.631655 0.142401
H15   H     H_    0.789737 0.999005 0.726806 0.153811
H16   H     H_    0.970899 0.010554 0.832898 0.138111
H17   H     H_    0.117828 0.865418 0.844110 0.135469
H18   H     H_    0.085266 0.709437 0.750363 0.128805
C43   C     C_R   0.140759 0.975208 0.365322 0.133615
C44   C     C_R   0.060569 0.930786 0.401057 -0.145316
C45   C     C_R   0.950083 0.962258 0.364521 -0.111312
C46   C     C_R   0.917686 0.040256 0.294238 -0.084739
C47   C     C_R   0.996129 0.085825 0.258813 -0.153068
C48   C     C_R   0.106949 0.053217 0.293462 -0.161906
H19   H     H_    0.082714 0.871725 0.457137 0.120099
H20   H     H_    0.889682 0.925356 0.390367 0.115535
H21   H     H_    0.831853 0.064770 0.266757 0.128621
H22   H     H_    0.971076 0.145685 0.203613 0.127056
H23   H     H_    0.165833 0.087705 0.262434 0.120855

loop_
_geom_bond_atom_site_label_1
_geom_bond_atom_site_label_2
_ccdc_geom_bond_type
C35   C36   S    
N2    Zn2   S    
C9    C14   A    
C7    C8    A    
O3    Zn1   S    
C46   C47   A    
C26   C27   A    
C31   O7    A    
C41   H17   S    
C10   C15   A    
C5    C6    A    
C5    C17   A    
O7    Zn1   S    
C39   H15   S    
C34   C35   T    
C31   O8    A    
C1    O2    A    
O1    Zn1   S    
O2    Zn2   S    
C47   H22   S    
C19   C20   A    
C8    C9    A    
C22   C25   A    
C18   C26   A    
C18   C30   A    
C44   H19   S    
C24   N2    A    
C40   C41   A    
C30   N1    A    
C21   C22   A    
C12   C32   S    
C16   Cl1   S    
C25   C26   A    
C6    C43   S    
C29   N1    A    
C25   C29   A    
C3    H8    S    
O8    Zn2   S    
C43   C44   A    
C41   C42   A    
C23   O5    A    
C45   C46   A    
C19   H4    S    
C4    C23   S    
C47   C48   A    
C14   H12   S    
C42   H18   S    
O5    Zn1   S    
C2    C31   S    
C7    H11   S    
C4    C16   A    
C44   C45   A    
C40   H16   S    
C29   H3    S    
C33   C34   S    
C38   H14   S    
C21   H5    S    
C9    C17   A    
C30   H13   S    
C43   C48   A    
C4    C15   A    
C22   C24   A    
C15   H9    S    
C13   H7    S    
C2    C36   T    
C23   O6    A    
C37   C42   A    
C24   C28   A    
C45   H20   S    
O6    Zn2   S    
C6    C7    A    
C5    H10   S    
C1    C17   S    
N1    Zn1   S    
C32   C33   T    
C20   C37   S    
C18   H2    S    
C38   C39   A    
C11   C13   A    
C48   H23   S    
C46   H21   S    
C27   H1    S    
O4    Zn2   S    
C28   H6    S    
C1    O1    A    
C12   O4    A    
C3    C11   A    
C10   C11   A    
C37   C38   A    
C19   N2    A    
C20   C21   A    
C8    C10   A    
C39   C40   A    
C27   C28   A    
C13   C14   A    
C12   O3    A    
C3    C16   A    
