data_mof_unit_9322.cif
_audit_creation_date              2013-03-05T15:55:19-0500
_audit_creation_method            fapswitch 2.2
_symmetry_space_group_name_H-M    P1
_symmetry_Int_Tables_number       1
_space_group_crystal_system       triclinic
_cell_length_a                    12.357877
_cell_length_b                    13.097175
_cell_length_c                    13.879143
_cell_angle_alpha                 105.499025
_cell_angle_beta                  74.058486
_cell_angle_gamma                 116.531151
_cell_volume                      1905.05831058

loop_
_atom_site_label
_atom_site_type_symbol
_atom_site_description
_atom_site_fract_x
_atom_site_fract_y
_atom_site_fract_z
_atom_type_partial_charge
O1    O     O_R   0.025040 0.682470 0.528790 -0.577718
O2    O     O_R   0.194310 0.640150 0.490130 -0.602584
C1    C     C_R   0.144533 0.713977 0.507615 0.773215
O3    O     O_R   0.903380 0.524130 0.659910 -0.570690
O4    O     O_R   0.072660 0.481800 0.621240 -0.588588
C2    C     C_R   0.984275 0.504090 0.686330 0.810399
Cu1   Cu    Cu3+1 0.899780 0.525060 0.522890 0.929403
Cu2   Cu    Cu3+1 0.100220 0.474940 0.477110 0.912026
O5    O     O_R   0.805690 0.359850 0.509870 -0.581158
O6    O     O_R   0.974960 0.317530 0.471210 -0.592987
O7    O     O_R   0.927340 0.518200 0.378760 -0.568771
O8    O     O_R   0.096620 0.475870 0.340090 -0.605803
C3    C     C_R   0.855946 0.285847 0.487810 0.792584
C4    C     C_R   0.015701 0.495884 0.313663 0.804579
C5    C     C_1   0.025102 0.494051 0.208548 -0.182114
C6    C     C_2   0.041644 0.491277 0.014666 -0.163925
C7    C     C_2   0.958164 0.508975 0.985406 -0.163764
C8    C     C_1   0.966676 0.507445 0.879998 0.003121
C9    C     C_1   0.033166 0.492639 0.120034 -0.001187
C10   C     C_1   0.974837 0.505926 0.791448 -0.180287
H1    H     H_    0.883114 0.524631 0.040337 0.153664
H2    H     H_    0.116702 0.475685 0.959708 0.154663
C11   C     C_R   0.738827 0.974271 0.367181 -0.206939
H3    H     H_    0.912993 0.115731 0.361694 0.172980
H4    H     H_    0.778475 0.919535 0.311062 0.151705
C12   C     C_R   0.775036 0.162246 0.471499 -0.034109
C13   C     C_R   0.181456 0.922308 0.557603 -0.189933
C14   C     C_R   0.260528 0.038919 0.569291 -0.142417
C15   C     C_R   0.387085 0.071654 0.539808 -0.195796
C16   C     C_R   0.436965 0.987713 0.496722 0.066953
C17   C     C_R   0.355329 0.872661 0.467538 0.066965
C18   C     C_R   0.565718 0.016620 0.474334 -0.003003
C19   C     C_R   0.611380 0.938157 0.401810 0.112528
C20   C     C_R   0.528570 0.827107 0.363762 0.063772
C21   C     C_R   0.402686 0.797103 0.395953 -0.230021
C22   C     C_R   0.651443 0.120960 0.521488 0.105285
C23   C     C_R   0.818020 0.086832 0.397574 -0.262111
C24   C     C_R   0.227579 0.837582 0.508277 -0.097130
H5    H     H_    0.084226 0.898499 0.587384 0.149815
H6    H     H_    0.445201 0.163198 0.549345 0.137920
H7    H     H_    0.223934 0.104133 0.604113 0.143460
H8    H     H_    0.342093 0.715703 0.358930 0.175146
C25   C     C_R   0.640226 0.675253 0.669006 0.066375
H9    H     H_    0.817205 0.689456 0.680875 0.128565
H10   H     H_    0.428310 0.706990 0.702182 0.162760
N1    N     N_R   0.748810 0.563010 0.557590 -0.193813
C26   C     C_R   0.266490 0.360984 0.354378 0.364590
C27   C     C_R   0.379962 0.352812 0.316736 -0.245380
C28   C     C_R   0.472931 0.408068 0.371752 -0.257163
C29   C     C_R   0.457779 0.477467 0.465671 0.012303
C30   C     C_R   0.347123 0.497497 0.497592 0.246855
C31   C     C_R   0.553183 0.532699 0.525123 -0.055322
C32   C     C_R   0.543729 0.617131 0.611684 0.138947
C33   C     C_R   0.438866 0.641853 0.638041 -0.281090
C34   C     C_R   0.343066 0.582831 0.583387 -0.172591
C35   C     C_R   0.657849 0.505750 0.501824 -0.007104
C36   C     C_R   0.742465 0.646474 0.638567 0.027045
N2    N     N_R   0.250540 0.437620 0.443020 -0.224977
H11   H     H_    0.668260 0.437773 0.441300 0.133743
H12   H     H_    0.557492 0.397620 0.336566 0.147639
H13   H     H_    0.397260 0.302036 0.243247 0.153796
H14   H     H_    0.268940 0.609744 0.610160 0.205264
C37   C     C_3   0.637800 0.766430 0.762733 -0.429774
C38   C     C_3   0.555827 0.710982 0.855395 -0.826327
H15   H     H_    0.459115 0.661314 0.844018 0.252316
H16   H     H_    0.589390 0.651574 0.869748 0.250412
H17   H     H_    0.558426 0.779434 0.923337 0.240166
H18   H     H_    0.731932 0.818729 0.780346 0.193244
H19   H     H_    0.607751 0.828948 0.749447 0.202693
C39   C     C_3   0.170765 0.285784 0.287302 -0.369552
C40   C     C_3   0.145299 0.157066 0.271934 -0.915490
H20   H     H_    0.226809 0.139462 0.228645 0.254422
H21   H     H_    0.117374 0.127958 0.346593 0.266355
H22   H     H_    0.070492 0.104915 0.227072 0.240374
H23   H     H_    0.082262 0.291623 0.315219 0.252285
H24   H     H_    0.205063 0.313782 0.211730 0.180904
C41   C     C_3   0.569774 0.736323 0.291151 -0.399290
C42   C     C_3   0.600319 0.755237 0.180784 -0.349815
C43   C     C_3   0.646824 0.666878 0.108770 -0.851382
H25   H     H_    0.731339 0.674471 0.129093 0.252023
H26   H     H_    0.575241 0.577672 0.112566 0.254539
H27   H     H_    0.669129 0.682990 0.029662 0.242799
H28   H     H_    0.516401 0.746489 0.158426 0.221516
H29   H     H_    0.671748 0.843591 0.172699 0.219068
H30   H     H_    0.649058 0.735511 0.313461 0.196702
H31   H     H_    0.495741 0.648266 0.296840 0.204457
C44   C     C_3   0.618227 0.176366 0.631117 -0.423857
C45   C     C_3   0.700251 0.183607 0.699893 -0.814169
H32   H     H_    0.665597 0.214239 0.779978 0.238476
H33   H     H_    0.796421 0.245512 0.679072 0.241413
H34   H     H_    0.698771 0.096877 0.694781 0.249319
H35   H     H_    0.623430 0.263910 0.634077 0.223912
H36   H     H_    0.523509 0.123736 0.666190 0.212672

loop_
_geom_bond_atom_site_label_1
_geom_bond_atom_site_label_2
_geom_bond_distance
_ccdc_geom_bond_type
C44   C45   1.531296 S    
C25   C37   1.516400 S    
Cu1   Cu2   2.708387 S    
C32   C33   1.403256 A    
C5    C9    1.200727 T    
C28   H12   1.077465 S    
C18   C22   1.423937 A    
C14   C15   1.393000 A    
C20   C41   1.518958 S    
C16   C17   1.411613 A    
O7    C4    1.302358 A    
C13   C24   1.403424 A    
C34   H14   1.064391 S    
C14   H7    1.082590 S    
C20   C21   1.392850 A    
C21   H8    1.080165 S    
O5    C3    1.301370 A    
Cu2   N2    2.029375 S    
C33   C34   1.391717 A    
C42   H28   1.111990 S    
C25   C32   1.421616 A    
C37   H19   1.110079 S    
C1    C24   1.478877 S    
C13   H5    1.083125 S    
C6    C7    1.333033 D    
C11   C19   1.405495 A    
C29   C31   1.430948 A    
C39   C40   1.535357 S    
C8    C10   1.200681 T    
C41   C42   1.533594 S    
C41   H30   1.110708 S    
C44   H35   1.109451 S    
O3    Cu1   1.917813 S    
C7    C8    1.432986 S    
C22   C44   1.530733 S    
C38   H17   1.110444 S    
O3    C2    1.299974 A    
C43   H26   1.111006 S    
C42   C43   1.526089 S    
C29   C30   1.435501 A    
C11   C23   1.383674 A    
C7    H1    1.086922 S    
C43   H25   1.111005 S    
O1    C1    1.311212 A    
C38   H16   1.110694 S    
Cu1   O7    1.919038 S    
Cu1   N1    2.041234 S    
C26   C39   1.519919 S    
C15   C16   1.413438 A    
C43   H27   1.109789 S    
C26   C27   1.397328 A    
C45   H34   1.111197 S    
H9    C36   1.082383 S    
Cu2   O8    1.917812 S    
H3    C23   1.073106 S    
C30   N2    1.398644 A    
C12   C22   1.409659 A    
C27   C28   1.367677 A    
C45   H33   1.108615 S    
H10   C33   1.080299 S    
N1    C36   1.354919 A    
C39   H24   1.112089 S    
C17   C21   1.407626 A    
C3    C12   1.467669 S    
O4    Cu2   1.919038 S    
C13   C14   1.391099 A    
C31   C32   1.417082 A    
C40   H21   1.111450 S    
Cu1   O5    1.930127 S    
C37   H18   1.112212 S    
C6    H2    1.086831 S    
O1    Cu1   1.944621 S    
O2    Cu2   1.930126 S    
O8    C4    1.300096 A    
O6    C3    1.306961 A    
C41   H31   1.113433 S    
C40   H22   1.110688 S    
C17   C24   1.422558 A    
C12   C23   1.392182 A    
C2    C10   1.425842 S    
C35   H11   1.076150 S    
C38   H15   1.109371 S    
O2    C1    1.302380 A    
C40   H20   1.108948 S    
C18   C19   1.428588 A    
C26   N2    1.394076 A    
C16   C18   1.422906 A    
C27   H13   1.083051 S    
O4    C2    1.302400 A    
C6    C9    1.433013 S    
C44   H36   1.108038 S    
C15   H6    1.081189 S    
C19   C20   1.413576 A    
C30   C34   1.405540 A    
C11   H4    1.080011 S    
C25   C36   1.401431 A    
C37   C38   1.527701 S    
C42   H29   1.110538 S    
C45   H32   1.110636 S    
Cu2   O6    1.944623 S    
C28   C29   1.394670 A    
N1    C35   1.356325 A    
C39   H23   1.085483 S    
C4    C5    1.425885 S    
C31   C35   1.421011 A    
