data_mof_unit_28143.cif
_audit_creation_date              2013-03-05T16:32:42-0500
_audit_creation_method            fapswitch 2.2
_symmetry_space_group_name_H-M    P1
_symmetry_Int_Tables_number       1
_space_group_crystal_system       triclinic
_cell_length_a                    9.611835
_cell_length_b                    11.026664
_cell_length_c                    17.22799
_cell_angle_alpha                 94.324215
_cell_angle_beta                  86.033222
_cell_angle_gamma                 89.954952
_cell_volume                      1816.34119856

loop_
_atom_site_label
_atom_site_type_symbol
_atom_site_description
_atom_site_fract_x
_atom_site_fract_y
_atom_site_fract_z
_atom_type_partial_charge
O1    O     O_R   0.381190 0.680360 0.500000 -0.552309
O2    O     O_R   0.618770 0.680320 0.499990 -0.506898
C1    C     C_R   0.500489 0.737533 0.500908 0.875757
O3    O     O_R   0.367430 0.500040 0.613600 -0.543659
O4    O     O_R   0.605020 0.500000 0.613590 -0.556360
C2    C     C_R   0.482713 0.495194 0.649902 0.847743
Cu1   Cu    Cu3+1 0.359330 0.500020 0.500000 1.082312
Cu2   Cu    Cu3+1 0.640670 0.499980 0.500000 1.123864
O5    O     O_R   0.381230 0.319680 0.500010 -0.579946
O6    O     O_R   0.618810 0.319640 0.500000 -0.554986
O7    O     O_R   0.394980 0.500000 0.386410 -0.564381
O8    O     O_R   0.632570 0.499960 0.386400 -0.523515
C3    C     C_R   0.500366 0.263391 0.503360 0.849016
C4    C     C_R   0.517556 0.516910 0.351613 0.884841
C5    C     C_R   0.479958 0.482728 0.734415 -0.066765
C6    C     C_R   0.606851 0.482925 0.770642 -0.086595
C7    C     C_R   0.608001 0.476264 0.850541 -0.048506
C8    C     C_R   0.482379 0.471347 0.895967 0.145167
C9    C     C_R   0.356169 0.461408 0.860063 -0.074169
C10   C     C_R   0.355165 0.466402 0.779364 -0.104893
C11   C     C_R   0.406402 0.576573 0.150325 0.359768
C12   C     C_R   0.400208 0.570108 0.231313 0.296764
C13   C     C_R   0.654624 0.569428 0.227541 0.312367
C14   C     C_R   0.658728 0.572496 0.146425 -0.184235
C15   C     C_R   0.536085 0.570127 0.107618 -0.141121
C16   C     C_2   0.482408 0.477643 0.981046 -0.235934
C17   C     C_2   0.545647 0.567613 0.022299 0.436253
C18   C     C_R   0.524553 0.551499 0.269474 -0.306175
H1    H     H_    0.706141 0.488833 0.737646 0.219592
H2    H     H_    0.258614 0.452992 0.894632 0.185264
H3    H     H_    0.257740 0.457060 0.752441 0.225445
H4    H     H_    0.422262 0.409891 0.011342 0.172080
H5    H     H_    0.706906 0.477540 0.877175 0.185802
H6    H     H_    0.757998 0.579740 0.113281 0.237181
C19   C     C_R   0.382639 0.939750 0.503304 -0.043167
C20   C     C_R   0.504084 0.871002 0.504754 -0.201978
C21   C     C_R   0.630818 0.937967 0.512239 0.345357
C22   C     C_R   0.628435 0.067246 0.520326 0.260062
C23   C     C_R   0.503988 0.131508 0.509080 -0.209569
C24   C     C_R   0.385351 0.062432 0.501336 -0.093993
C25   C     C_3   0.233963 0.075490 0.493968 0.157300
C26   C     C_3   0.228631 0.935568 0.492834 0.242316
H7    H     H_    0.207805 0.107793 0.437679 0.069134
H8    H     H_    0.205485 0.891037 0.435110 0.126031
C27   C     C_R   0.935081 0.462984 0.433771 0.181481
N1    N     N_R   0.852130 0.499070 0.499500 -0.269349
C28   C     C_R   0.917660 0.556971 0.559736 0.433930
C29   C     C_R   0.064683 0.549317 0.562759 0.379983
N2    N     N_R   0.148040 0.499110 0.499500 -0.262271
C30   C     C_R   0.082153 0.467886 0.433190 0.211088
C31   C     C_3   0.101717 0.351840 0.384717 -0.454182
C32   C     C_3   0.943215 0.339706 0.390011 0.114944
H9    H     H_    0.152337 0.366524 0.326420 0.266045
H10   H     H_    0.156117 0.285015 0.415539 0.196496
H11   H     H_    0.905005 0.266755 0.426167 0.185831
Cl1   Cl    Cl    0.795610 0.865783 0.510749 -0.376474
N3    N     N_R   0.748997 0.131249 0.545978 0.171976
O9    O     O_R   0.739448 0.200642 0.610692 -0.297344
O10   O     O_R   0.871106 0.108714 0.510751 -0.286942
N4    N     N_R   0.167471 0.143272 0.563673 0.228716
O11   O     O_R   0.091649 0.238535 0.555657 -0.331457
O12   O     O_R   0.205211 0.124799 0.633044 -0.246954
Cl2   Cl    Cl    0.123274 0.881635 0.571640 -0.318168
Cl3   Cl    Cl    0.824429 0.653264 0.631600 -0.409210
N5    N     N_R   0.120619 0.586706 0.635676 0.164977
O13   O     O_R   0.206253 0.677456 0.641135 -0.249843
O14   O     O_R   0.062511 0.547878 0.699569 -0.334878
Cl4   Cl    Cl    0.237092 0.602252 0.283064 -0.466367
N6    N     N_R   0.880244 0.334316 0.314690 0.183306
O15   O     O_R   0.751574 0.298826 0.312130 -0.344049
O16   O     O_R   0.957587 0.331109 0.249475 -0.261195
N7    N     N_R   0.779722 0.598351 0.266293 0.168842
O17   O     O_R   0.773797 0.677296 0.326554 -0.304126
O18   O     O_R   0.900983 0.574084 0.230085 -0.222268
Cl5   Cl    Cl    0.633338 0.688877 0.978660 -0.477505
Cl6   Cl    Cl    0.251554 0.599221 0.102873 -0.435298

loop_
_geom_bond_atom_site_label_1
_geom_bond_atom_site_label_2
_geom_bond_distance
_ccdc_geom_bond_type
C16   H4    1.087426 S    
C25   C26   1.542462 S    
C9    C10   1.396217 A    
C8    C16   1.462175 S    
Cu1   Cu2   2.704193 S    
C27   N1    1.372203 A    
Cu1   O7    1.963196 S    
C11   Cl6   1.773273 S    
C16   C17   1.346538 D    
C7    H5    1.083456 S    
C27   C30   1.414072 A    
C20   C21   1.433369 A    
O1    C1    1.309464 A    
O4    C2    1.295969 A    
O7    C4    1.304503 A    
N3    O10   1.298412 A    
C5    C6    1.407923 A    
N4    O12   1.303068 A    
C8    C9    1.400016 A    
N6    O16   1.301775 A    
C19   C26   1.503913 S    
O5    C3    1.308923 A    
C32   N6    1.466568 S    
C2    C5    1.471165 S    
C21   Cl1   1.769863 S    
C19   C20   1.394048 A    
C6    C7    1.384776 A    
N5    O14   1.301262 A    
C13   C14   1.398258 A    
C29   N5    1.432772 S    
C32   H11   1.101974 S    
C12   C18   1.425296 A    
C11   C12   1.399601 A    
C25   H7    1.102799 S    
C26   H8    1.112081 S    
O3    Cu1   1.964004 S    
C17   Cl5   1.768990 S    
C7    C8    1.396108 A    
C5    C10   1.401317 A    
C31   C32   1.526496 S    
C14   C15   1.394183 A    
Cu1   N2    2.031527 S    
N7    O18   1.301135 A    
C23   C24   1.380355 A    
C27   C32   1.503146 S    
C6    H1    1.081121 S    
C14   H6    1.083732 S    
N4    O11   1.299309 A    
C31   H9    1.108458 S    
C21   C22   1.421816 A    
C22   N3    1.435737 S    
C28   C29   1.420393 A    
Cu2   O8    1.964007 S    
C30   C31   1.478807 S    
C13   C18   1.421611 A    
C12   Cl4   1.771082 S    
O3    C2    1.312509 A    
C29   N2    1.386958 A    
O8    C4    1.313187 A    
N5    O13   1.298272 A    
C28   Cl3   1.763537 S    
Cu1   O5    1.999509 S    
C11   C15   1.401867 A    
N1    C28   1.368356 A    
C24   C25   1.477225 S    
O1    Cu1   1.999783 S    
C13   N7    1.439726 S    
O2    Cu2   1.999508 S    
C25   N4    1.472043 S    
N7    O17   1.301648 A    
O6    C3    1.296747 A    
O4    Cu2   1.963196 S    
C15   C17   1.464539 S    
C31   H10   1.093226 S    
O2    C1    1.298327 A    
N3    O9    1.301531 A    
C22   C23   1.421935 A    
C1    C20   1.468756 S    
C19   C24   1.355979 A    
N6    O15   1.300134 A    
Cu2   N1    2.031955 S    
C3    C23   1.465506 S    
Cu2   O6    1.999783 S    
N2    C30   1.365942 A    
C4    C18   1.490217 S    
C9    H2    1.083398 S    
C26   Cl2   1.776205 S    
C10   H3    1.075025 S    
