data_mof_unit_48703.cif
_audit_creation_date              2013-03-05T17:02:05-0500
_audit_creation_method            fapswitch 2.2
_symmetry_space_group_name_H-M    P1
_symmetry_Int_Tables_number       1
_space_group_crystal_system       triclinic
_cell_length_a                    10.503618
_cell_length_b                    16.23161
_cell_length_c                    16.817029
_cell_angle_alpha                 86.54165
_cell_angle_beta                  91.828124
_cell_angle_gamma                 91.650789
_cell_volume                      2859.42923495

loop_
_atom_site_label
_atom_site_type_symbol
_atom_site_description
_atom_site_fract_x
_atom_site_fract_y
_atom_site_fract_z
_atom_type_partial_charge
O1    O     O_R   0.494440 0.422540 0.612660 -0.591384
O2    O     O_R   0.505560 0.577460 0.387340 -0.662660
O3    O     O_R   0.504420 0.561850 0.618900 -0.574394
O4    O     O_R   0.495580 0.438150 0.381100 -0.542137
C1    C     C_R   0.497156 0.488215 0.652410 0.972162
C2    C     C_R   0.506931 0.511608 0.347353 0.922674
O5    O     O_R   0.681060 0.430360 0.496900 -0.647821
O6    O     O_R   0.318940 0.569640 0.503100 -0.594868
O7    O     O_R   0.691040 0.569670 0.503140 -0.560989
O8    O     O_R   0.308960 0.430330 0.496860 -0.578273
C3    C     C_R   0.742307 0.499568 0.499292 0.945375
C4    C     C_R   0.257755 0.500725 0.499235 0.977031
Zn1   Zn    Zn3+2 0.493340 0.406980 0.495830 1.045510
Zn2   Zn    Zn3+2 0.506660 0.593020 0.504170 1.027703
C5    C     C_3   0.964109 0.497863 0.572363 0.373518
C6    C     C_3   0.036569 0.503586 0.424050 0.372304
C7    C     C_3   0.045692 0.568451 0.534401 -0.176979
C8    C     C_3   0.954705 0.432909 0.461899 -0.296107
H1    H     H_    0.084608 0.623079 0.564500 0.202114
H2    H     H_    0.915113 0.378252 0.432266 0.157455
C9    C     C_3   0.123380 0.502140 0.498112 -0.131629
C10   C     C_3   0.876860 0.499019 0.498528 -0.140834
C11   C     C_3   0.043143 0.431532 0.537872 -0.273288
C12   C     C_3   0.956963 0.569793 0.458608 -0.245950
H3    H     H_    0.082951 0.376760 0.571314 0.177070
H4    H     H_    0.917113 0.624734 0.425209 0.196624
C13   C     C_R   0.502496 0.479665 0.738082 -0.105778
C14   C     C_R   0.531248 0.520021 0.262454 -0.126953
C15   C     C_R   0.435771 0.534345 0.781741 0.435277
C16   C     C_R   0.576112 0.452706 0.222972 0.483753
C17   C     C_R   0.456618 0.532903 0.864006 -0.245539
C18   C     C_R   0.590792 0.460823 0.141370 -0.211833
C19   C     C_R   0.545492 0.478568 0.901308 0.271732
C20   C     C_R   0.563367 0.535761 0.098293 0.261779
C21   C     C_R   0.605107 0.421441 0.857547 -0.167590
C22   C     C_R   0.529857 0.603989 0.138686 -0.174224
C23   C     C_R   0.583772 0.421819 0.775944 -0.181539
C24   C     C_R   0.514247 0.596456 0.220427 -0.263050
N1    N     N_2   0.568359 0.474923 0.984010 -0.171889
N2    N     N_2   0.554302 0.542005 0.014296 -0.173067
H5    H     H_    0.618180 0.406941 0.111725 0.168086
H6    H     H_    0.401409 0.572060 0.898893 0.163516
H7    H     H_    0.669931 0.377665 0.886707 0.164481
H8    H     H_    0.509696 0.662003 0.106114 0.156997
H9    H     H_    0.634106 0.379092 0.742034 0.211101
H10   H     H_    0.484762 0.649767 0.250013 0.164617
N3    N     N_R   0.515540 0.716920 0.509720 -0.216666
N4    N     N_R   0.484460 0.283080 0.490280 -0.214401
C25   C     C_R   0.414574 0.761587 0.478829 0.392533
C26   C     C_R   0.557284 0.237418 0.544547 0.407946
C27   C     C_R   0.415841 0.848862 0.479660 0.085376
C28   C     C_R   0.544074 0.149747 0.550471 0.067335
C29   C     C_R   0.524509 0.891669 0.510177 0.007834
C30   C     C_R   0.460230 0.109256 0.497126 0.032248
C31   C     C_R   0.626230 0.844677 0.542339 0.284411
C32   C     C_R   0.384654 0.157941 0.443533 0.290240
C33   C     C_R   0.620615 0.757137 0.541161 0.183408
C34   C     C_R   0.402615 0.245009 0.438173 0.185041
N5    N     N_2   0.539579 0.980485 0.508994 -0.029168
N6    N     N_2   0.440120 0.021121 0.500185 -0.040687
O9    O     O_3   0.734095 0.887045 0.569996 -0.566866
C35   C     C_3   0.756540 0.873906 0.653619 0.212482
H11   H     H_    0.828847 0.921376 0.670903 0.188997
H12   H     H_    0.801563 0.813868 0.668645 0.174582
C36   C     C_3   0.638315 0.882141 0.704325 -0.424110
H13   H     H_    0.582300 0.935934 0.681426 0.290816
H14   H     H_    0.577705 0.825314 0.700931 0.190558
C37   C     C_3   0.675509 0.892302 0.791673 -0.853737
H15   H     H_    0.731578 0.838952 0.815897 0.257299
H16   H     H_    0.588133 0.895359 0.826736 0.268285
H17   H     H_    0.732832 0.950256 0.797995 0.282469
O10   O     O_3   0.295141 0.119056 0.395111 -0.547165
C38   C     C_3   0.169720 0.140279 0.413764 0.132440
H18   H     H_    0.125659 0.172695 0.360134 0.194285
H19   H     H_    0.164677 0.181639 0.464352 0.115604
C39   C     C_3   0.090867 0.061924 0.434886 -0.287590
H20   H     H_    0.093340 0.019467 0.385565 0.280520
H21   H     H_    0.132691 0.030843 0.489901 0.263360
C40   C     C_3   0.952451 0.081337 0.449371 -0.921084
H22   H     H_    0.947584 0.124480 0.497870 0.258389
H23   H     H_    0.898966 0.023461 0.467155 0.322768
H24   H     H_    0.906742 0.109528 0.394201 0.257266
N7    N     N_R   0.726795 0.710944 0.571819 0.236453
O11   O     O_R   0.839480 0.727128 0.543899 -0.390862
O12   O     O_R   0.715608 0.663748 0.636613 -0.369571
N8    N     N_R   0.336693 0.292654 0.376366 0.265012
O13   O     O_R   0.362243 0.282244 0.302543 -0.306305
O14   O     O_R   0.230686 0.327107 0.391541 -0.400936
N9    N     N_R   0.925681 0.494275 0.654949 0.211668
O15   O     O_R   0.012066 0.493540 0.712092 -0.367899
O16   O     O_R   0.805933 0.491578 0.672201 -0.404810
N10   N     N_R   0.077227 0.508495 0.341776 0.202459
O17   O     O_R   0.993021 0.518179 0.283864 -0.432907
O18   O     O_R   0.197411 0.507787 0.325693 -0.394290
O19   O     O_3   0.593022 0.375949 0.261678 -0.585085
C41   C     C_3   0.719095 0.369647 0.293362 0.082397
H25   H     H_    0.713149 0.339022 0.354088 0.169304
H26   H     H_    0.769763 0.430337 0.300480 0.138168
C42   C     C_3   0.795942 0.315603 0.241974 -0.364480
H27   H     H_    0.741065 0.257368 0.231931 0.248502
H28   H     H_    0.812129 0.348599 0.183214 0.228916
C43   C     C_3   0.924501 0.294138 0.281567 -0.846743
H29   H     H_    0.983239 0.350975 0.290095 0.322662
H30   H     H_    0.976460 0.254062 0.243127 0.274101
H31   H     H_    0.910801 0.260408 0.340236 0.230691
O20   O     O_3   0.336845 0.578289 0.744952 -0.623122
C44   C     C_3   0.363736 0.663987 0.744960 0.082810
H32   H     H_    0.460071 0.679833 0.721492 0.163470
H33   H     H_    0.357931 0.685575 0.806256 0.138127
C45   C     C_3   0.263747 0.707981 0.690980 -0.293050
H34   H     H_    0.268808 0.686386 0.629733 0.249890
H35   H     H_    0.167306 0.691821 0.713560 0.252364
C46   C     C_3   0.283095 0.801584 0.687340 -0.909053
H36   H     H_    0.289674 0.824620 0.748236 0.261743
H37   H     H_    0.201217 0.830774 0.654369 0.300820
H38   H     H_    0.370748 0.819750 0.655056 0.244149
O21   O     O_3   0.634421 0.278457 0.598593 -0.581287
C47   C     C_3   0.764798 0.261911 0.588910 0.117005
H39   H     H_    0.811155 0.315986 0.557464 0.153116
H40   H     H_    0.781595 0.208436 0.552425 0.138118
C48   C     C_3   0.830746 0.248988 0.671047 -0.289236
H41   H     H_    0.843036 0.309473 0.698407 0.232177
H42   H     H_    0.770611 0.207998 0.710599 0.274366
C49   C     C_3   0.960655 0.210157 0.665805 -0.908852
H43   H     H_    0.948812 0.146040 0.646622 0.288747
H44   H     H_    0.009865 0.208177 0.725278 0.277302
H45   H     H_    0.020792 0.246489 0.622698 0.246519
O22   O     O_3   0.306303 0.721050 0.450633 -0.581481
C50   C     C_3   0.302346 0.724527 0.366218 0.142362
H46   H     H_    0.332170 0.664470 0.346778 0.185079
H47   H     H_    0.364941 0.773972 0.337790 0.119251
C51   C     C_3   0.165341 0.736754 0.335426 -0.284830
H48   H     H_    0.102394 0.688451 0.364056 0.237277
H49   H     H_    0.132572 0.797973 0.350977 0.272501
C52   C     C_3   0.154054 0.731232 0.245194 -0.888867
H50   H     H_    0.214776 0.779975 0.214986 0.261367
H51   H     H_    0.053507 0.740023 0.224822 0.276928
H52   H     H_    0.183716 0.669694 0.228201 0.296561
N11   N     N_R   0.603775 0.103979 0.616132 0.227630
O23   O     O_R   0.561407 0.108710 0.687494 -0.395294
O24   O     O_R   0.709705 0.066731 0.606591 -0.415014
N12   N     N_R   0.307004 0.892006 0.447847 0.229483
O25   O     O_R   0.313793 0.934136 0.379738 -0.377847
O26   O     O_R   0.196410 0.876765 0.479034 -0.404791

loop_
_geom_bond_atom_site_label_1
_geom_bond_atom_site_label_2
_geom_bond_distance
_ccdc_geom_bond_type
C52   H52   1.111072 S    
C6    C9    1.519376 S    
C17   H6    1.082760 S    
C13   C15   1.401887 A    
C26   O21   1.386087 S    
C44   H33   1.112613 S    
C38   H18   1.111126 S    
O19   C41   1.415676 S    
C39   C40   1.526639 S    
O22   C50   1.416651 S    
C40   H24   1.110729 S    
C29   N5    1.444751 S    
C52   H50   1.110822 S    
N3    C25   1.372550 A    
C30   N6    1.438127 S    
O5    C3    1.280451 A    
C19   N1    1.401808 S    
C20   N2    1.410467 S    
C21   C23   1.383098 A    
C39   H21   1.110857 S    
C50   H46   1.103568 S    
C37   H17   1.110878 S    
N8    O14   1.299560 A    
C5    N9    1.455990 S    
O20   C44   1.411424 S    
C41   C42   1.531223 S    
C28   N11   1.431126 S    
C43   H31   1.110524 S    
C5    C7    1.531239 S    
O4    Zn1   1.965610 S    
C45   H34   1.111182 S    
C48   C49   1.526707 S    
C35   H12   1.107428 S    
C7    H1    1.108867 S    
C47   H39   1.105868 S    
C5    C10   1.519062 S    
C2    C14   1.456058 S    
N7    O11   1.301165 A    
C37   H15   1.110932 S    
C32   O10   1.387240 S    
C41   H26   1.117112 S    
C26   C28   1.423594 A    
C18   H5    1.082800 S    
C17   C19   1.409291 A    
N9    O16   1.298725 A    
C21   H7    1.083284 S    
C8    H2    1.107790 S    
O9    C35   1.422771 S    
C50   C51   1.528039 S    
C5    C11   1.530467 S    
N5    N6    1.251558 D    
C6    C12   1.532945 S    
C1    C13   1.438509 S    
C38   H19   1.118521 S    
O2    C2    1.297351 A    
C34   N8    1.430330 S    
N10   O18   1.299948 A    
C28   C30   1.414109 A    
C45   H35   1.111910 S    
C29   C31   1.405769 A    
C30   C32   1.404101 A    
C7    C12   1.554265 S    
C48   H42   1.110518 S    
C8    C11   1.554928 S    
C39   H20   1.111271 S    
O4    C2    1.293241 A    
N1    N2    1.244109 D    
C40   H23   1.110851 S    
N8    O13   1.300402 A    
C51   H48   1.108403 S    
C25   C27   1.417209 A    
C4    C9    1.411786 S    
C7    C9    1.535717 S    
C27   C29   1.417368 A    
C47   C48   1.531070 S    
C18   C20   1.409916 A    
O7    Zn2   1.984895 S    
C16   O19   1.383857 S    
N3    C33   1.373568 A    
C42   H27   1.111718 S    
C14   C24   1.403427 A    
O6    C4    1.277967 A    
C36   C37   1.525297 S    
C41   H25   1.111291 S    
C35   H11   1.110958 S    
C33   N7    1.427121 S    
C43   H30   1.110226 S    
O7    C3    1.278796 A    
C45   C46   1.524845 S    
C48   H41   1.111592 S    
O3    Zn2   1.965611 S    
O8    C4    1.280130 A    
C49   H45   1.108362 S    
C6    C8    1.533152 S    
C42   H28   1.110787 S    
C6    N10   1.457910 S    
C31   C33   1.421754 A    
C44   C45   1.530091 S    
C10   C12   1.538051 S    
C15   O20   1.385527 S    
C22   H8    1.083266 S    
O1    Zn1   1.995583 S    
C44   H32   1.115356 S    
C23   H9    1.083402 S    
C22   C24   1.387239 A    
O1    C1    1.291146 A    
N12   O26   1.300901 A    
C49   H44   1.110229 S    
C46   H36   1.110655 S    
C27   N12   1.430183 S    
C52   H51   1.110321 S    
C25   O22   1.382464 S    
O6    Zn2   1.996882 S    
C35   C36   1.542055 S    
N7    O12   1.300109 A    
C8    C10   1.536859 S    
C12   H4    1.109957 S    
O10   C38   1.420588 S    
O3    C1    1.291576 A    
O8    Zn1   1.984896 S    
Zn1   N4    2.018218 S    
N11   O23   1.300512 A    
N4    C34   1.369466 A    
Zn2   N3    2.018218 S    
C3    C10   1.414052 S    
C36   H14   1.108853 S    
C46   H38   1.107371 S    
C9    C11   1.535799 S    
C14   C16   1.412053 A    
C15   C17   1.392652 A    
O21   C47   1.419397 S    
C16   C18   1.383786 A    
N11   O24   1.300436 A    
C13   C23   1.398284 A    
C51   C52   1.526111 S    
C51   H49   1.109533 S    
C31   O9    1.390304 S    
N4    C26   1.368864 A    
N10   O17   1.300024 A    
C19   C21   1.392375 A    
C32   C34   1.418215 A    
C20   C22   1.392921 A    
C11   H3    1.107978 S    
C43   H29   1.108984 S    
O2    Zn2   1.995583 S    
C47   H40   1.114004 S    
C24   H10   1.081417 S    
C40   H22   1.109879 S    
O5    Zn1   1.996885 S    
C42   C43   1.526399 S    
C38   C39   1.527502 S    
C37   H16   1.110459 S    
C36   H13   1.109696 S    
N12   O25   1.300984 A    
C46   H37   1.110367 S    
N9    O15   1.300186 A    
C49   H43   1.110477 S    
C50   H47   1.117289 S    
