data_mof_unit_42881.cif
_audit_creation_date              2012-12-10T17:11:55-0500
_audit_creation_method            fapswitch 2.2
_symmetry_space_group_name_H-M    P1
_symmetry_Int_Tables_number       1
_space_group_crystal_system       triclinic
_cell_length_a                    19.114517
_cell_length_b                    10.683371
_cell_length_c                    10.286059
_cell_angle_alpha                 90.846979
_cell_angle_beta                  89.839772
_cell_angle_gamma                 93.083819
_cell_volume                      2097.21505841

loop_
_atom_site_label
_atom_site_type_symbol
_atom_type_description
_atom_site_fract_x
_atom_site_fract_y
_atom_site_fract_z
_atom_type_partial_charge
C1    C     C_R   0.498826 0.263134 0.499542 0.880930
C2    C     C_R   0.856480 0.438806 0.475022 -0.198938
C3    C     C_2   0.459507 0.934122 0.404091 0.258190
C4    C     C_R   0.365602 0.497651 0.499748 0.948875
C5    C     C_2   0.454424 0.851955 0.502734 0.134126
C6    C     C_2   0.446763 0.062663 0.435477 0.248456
C7    C     C_2   0.498621 0.129042 0.498015 0.153727
C8    C     C_2   0.519316 0.591184 0.933805 0.426922
C9    C     C_2   0.542148 0.563286 0.070087 0.377176
C10   C     C_R   0.490993 0.735074 0.500542 0.900282
C11   C     C_R   0.634690 0.494304 0.498478 0.973197
C12   C     C_R   0.289147 0.475542 0.498128 -0.280192
C13   C     C_R   0.251713 0.479501 0.614700 -0.300040
C14   C     C_R   0.179770 0.451134 0.616247 0.481663
C15   C     C_R   0.146800 0.394599 0.505002 -0.259310
C16   C     C_R   0.187389 0.376095 0.391211 0.330993
C17   C     C_R   0.254038 0.435845 0.382728 0.453851
C18   C     C_3   0.416034 0.927150 0.701491 0.145536
C19   C     C_3   0.367186 0.884640 0.811950 -0.351560
C20   C     C_3   0.382229 0.962256 0.935468 -0.801199
C21   C     C_3   0.573827 0.099993 0.670215 0.045355
C22   C     C_3   0.638223 0.191072 0.681953 -0.331190
C23   C     C_R   0.929941 0.406474 0.482741 0.346651
C24   C     C_3   0.640787 0.260067 0.812925 -0.834908
C25   C     C_3   0.575360 0.772016 0.854483 0.167526
C26   C     C_3   0.602297 0.877650 0.946871 -0.310171
C27   C     C_3   0.677163 0.925239 0.913191 -0.824520
C28   C     C_3   0.117875 0.597723 0.725078 0.120796
C29   C     C_3   0.172993 0.696663 0.774665 -0.425731
C30   C     C_3   0.140950 0.822512 0.800194 -0.865193
C31   C     C_3   0.284702 0.578159 0.225377 0.118153
C32   C     C_3   0.214107 0.609654 0.167271 -0.344519
C33   C     C_3   0.214083 0.747626 0.131226 -0.957489
C34   C     C_R   0.069674 0.379807 0.498576 0.381810
C35   C     C_3   0.703973 0.183986 0.357161 0.126657
C36   C     C_3   0.752997 0.121091 0.260072 -0.342910
C37   C     C_3   0.739092 0.979396 0.251473 -0.824534
C38   C     C_3   0.868870 0.452760 0.183337 0.065769
C39   C     C_3   0.816350 0.512805 0.095992 -0.290542
C40   C     C_3   0.853220 0.608680 0.006892 -0.829752
C41   C     C_R   0.830416 0.516357 0.571096 -0.298115
C42   C     C_R   0.760457 0.546130 0.569755 0.391824
C43   C     C_R   0.711783 0.476790 0.490459 -0.363903
C44   C     C_R   0.738843 0.392272 0.397047 0.413501
C45   C     C_R   0.811652 0.396315 0.373556 0.405411
H1    H     H_    0.277403 0.511151 0.703983 0.223460
H2    H     H_    0.372699 0.062318 0.918979 0.286563
H3    H     H_    0.328180 0.971713 0.259927 0.335901
H4    H     H_    0.586884 0.012459 0.716121 0.149104
H5    H     H_    0.528489 0.132539 0.727631 0.178980
H6    H     H_    0.686412 0.138304 0.670424 0.204888
H7    H     H_    0.637595 0.260915 0.603823 0.214827
H8    H     H_    0.596427 0.322397 0.821605 0.291310
H9    H     H_    0.690509 0.318337 0.820971 0.266686
H10   H     H_    0.637767 0.192762 0.893990 0.255612
H11   H     H_    0.566376 0.813895 0.759551 0.163852
H12   H     H_    0.448909 0.505804 0.126302 0.219205
H13   H     H_    0.615100 0.704768 0.833862 0.260846
H14   H     H_    0.566943 0.956588 0.941879 0.219716
H15   H     H_    0.601506 0.844199 0.047994 0.326041
H16   H     H_    0.715626 0.856170 0.939787 0.327685
H17   H     H_    0.690628 0.013176 0.968241 0.239735
H18   H     H_    0.683201 0.943626 0.807980 0.278548
H19   H     H_    0.359435 0.263451 0.806280 0.376320
H20   H     H_    0.652650 0.400214 0.059972 0.347664
H21   H     H_    0.071331 0.598672 0.789985 0.188187
H22   H     H_    0.099358 0.623006 0.626498 0.114317
H23   H     H_    0.865586 0.558492 0.643882 0.217542
H24   H     H_    0.196420 0.663879 0.865729 0.253167
H25   H     H_    0.215358 0.710514 0.701378 0.225957
H26   H     H_    0.118996 0.858292 0.708909 0.282629
H27   H     H_    0.181923 0.891578 0.837045 0.269243
H28   H     H_    0.098711 0.812705 0.874298 0.263806
H29   H     H_    0.208693 0.153849 0.121481 0.374955
H30   H     H_    0.325915 0.594842 0.150444 0.192049
H31   H     H_    0.298754 0.644166 0.307441 0.104623
H32   H     H_    0.203422 0.550488 0.079079 0.280183
H33   H     H_    0.171462 0.590213 0.238893 0.220924
H34   H     H_    0.408948 0.028097 0.684834 0.165783
H35   H     H_    0.223749 0.808153 0.218706 0.297298
H36   H     H_    0.162291 0.767962 0.090426 0.287380
H37   H     H_    0.255143 0.769848 0.057363 0.257225
H38   H     H_    0.690918 0.777436 0.533843 0.364887
H39   H     H_    0.651546 0.134079 0.352729 0.247465
H40   H     H_    0.723928 0.172352 0.457571 0.080118
H41   H     H_    0.747365 0.161020 0.161658 0.260318
H42   H     H_    0.807945 0.137404 0.293062 0.256167
H43   H     H_    0.735587 0.938291 0.350013 0.275036
H44   H     H_    0.782269 0.936560 0.197122 0.259654
H45   H     H_    0.470542 0.914655 0.732283 0.126810
H46   H     H_    0.689998 0.957260 0.197506 0.315926
H47   H     H_    0.910287 0.413260 0.121459 0.204290
H48   H     H_    0.894714 0.528697 0.244539 0.140367
H49   H     H_    0.787537 0.439651 0.036121 0.260087
H50   H     H_    0.779182 0.562031 0.158966 0.286562
H51   H     H_    0.885789 0.678459 0.064567 0.243216
H52   H     H_    0.813762 0.659693 0.953370 0.342223
H53   H     H_    0.886965 0.561032 0.935623 0.256057
H54   H     H_    0.422156 0.806902 0.177027 0.320430
H55   H     H_    0.311940 0.894994 0.782522 0.232913
H56   H     H_    0.374142 0.784094 0.832035 0.259867
H57   H     H_    0.437421 0.954379 0.965833 0.311594
H58   H     H_    0.347324 0.927845 0.014996 0.238233
N1    N     N_R   0.037879 0.389545 0.382194 -0.107112
N2    N     N_R   0.969448 0.400500 0.374292 -0.148543
N3    N     N_R   0.960874 0.392671 0.599939 -0.178021
N4    N     N_R   0.029494 0.378774 0.607614 -0.118322
N5    N     N_2   0.500750 0.501330 0.852150 -0.024873
N6    N     N_2   0.500770 0.501360 0.147810 -0.178347
O1    O     O_R   0.499990 0.319060 0.613040 -0.587275
O2    O     O_2   0.336717 0.196623 0.496173 -0.305960
O3    O     O_2   0.379584 0.208703 0.271815 -0.181649
O4    O     O_3   0.309592 0.005652 0.342424 -0.505892
O5    O     O_3   0.558282 0.070839 0.538257 -0.675674
O6    O     O_3   0.511594 0.715073 0.899149 -0.650534
O7    O     O_2   0.467840 0.300706 0.997880 -0.295604
O8    O     O_2   0.375849 0.449747 0.959845 -0.342972
O9    O     O_3   0.405697 0.298614 0.776836 -0.505421
O10   O     O_2   0.676324 0.648902 0.016141 -0.357290
O11   O     O_2   0.636743 0.669738 0.236113 -0.230539
O12   O     O_R   0.500010 0.319100 0.386900 -0.555292
O13   O     O_3   0.659064 0.446653 0.143462 -0.504782
O14   O     O_3   0.143084 0.475354 0.729189 -0.595372
O15   O     O_2   0.111051 0.169875 0.311040 -0.274670
O16   O     O_2   0.121083 0.346734 0.161189 -0.308360
O17   O     O_3   0.228661 0.212208 0.189095 -0.411777
O18   O     O_3   0.284827 0.450233 0.261237 -0.516581
O19   O     O_2   0.711093 0.587757 0.793775 -0.297827
O20   O     O_2   0.796844 0.748535 0.716324 -0.327947
O21   O     O_3   0.671633 0.743583 0.616405 -0.597764
O22   O     O_3   0.694269 0.310965 0.325687 -0.568963
O23   O     O_R   0.398130 0.499970 0.613110 -0.560661
O24   O     O_3   0.836991 0.352660 0.255821 -0.636828
O25   O     O_2   0.514036 0.036237 0.185977 -0.289902
O26   O     O_2   0.581873 0.885286 0.301060 -0.282186
O27   O     O_3   0.473391 0.800853 0.166690 -0.551940
O28   O     O_R   0.398150 0.500010 0.386970 -0.602595
O29   O     O_R   0.499990 0.680900 0.613100 -0.609005
O30   O     O_R   0.500010 0.680940 0.386960 -0.557114
O31   O     O_R   0.601850 0.499990 0.613030 -0.593224
O32   O     O_R   0.601870 0.500030 0.386890 -0.491770
O33   O     O_3   0.397830 0.857517 0.587888 -0.647666
S1    S     S_3+6 0.366989 0.123656 0.385570 0.077881
S2    S     S_3+6 0.437484 0.387194 0.901506 0.066570
S3    S     S_3+6 0.630261 0.588621 0.116296 0.020445
S4    S     S_3+6 0.159048 0.274379 0.260656 0.100343
S5    S     S_3+6 0.735826 0.661031 0.678478 -0.026210
S6    S     S_3+6 0.509625 0.916435 0.261201 -0.000263
Zn1   Zn    Zn3+2 0.499990 0.499970 0.650990 1.080847
Zn2   Zn    Zn3+2 0.500010 0.500030 0.349010 1.149546

loop_
_geom_bond_atom_site_label_1
_geom_bond_atom_site_label_2
_ccdc_geom_bond_type
C19   H56   S    
C41   C42   A    
C37   H43   S    
C35   C36   S    
C25   H11   S    
C31   O18   S    
C11   O31   A    
O1    Zn1   S    
C21   H4    S    
C30   H26   S    
O17   S4    S    
C28   O14   S    
C4    O23   A    
C20   H58   S    
H29   O17   S    
C24   H10   S    
C26   C27   S    
C34   N4    A    
O3    S1    D    
C36   C37   S    
O9    S2    S    
O16   S4    D    
C25   O6    S    
C40   H53   S    
C38   C39   S    
C38   O24   S    
C20   H57   S    
N3    N4    A    
C2    C41   A    
C24   H9    S    
C15   C16   A    
C23   N2    A    
C38   H47   S    
H19   O9    S    
O12   Zn2   S    
C16   S4    S    
C18   C19   S    
O13   S3    S    
N1    N2    A    
C27   H16   S    
C8    O6    S    
C32   H32   S    
O7    S2    D    
H12   N6    S    
C19   C20   S    
C8    C9    S    
C12   C17   A    
C11   C43   S    
C4    C12   S    
C26   H14   S    
C15   C34   S    
O2    S1    D    
C3    C6    S    
C4    O28   A    
C3    S6    S    
C36   H42   S    
C21   C22   S    
O23   Zn1   S    
C31   H31   S    
C40   H51   S    
C42   S5    S    
C8    N5    D    
C21   H5    S    
O32   Zn2   S    
C41   H23   S    
C29   H24   S    
O29   Zn1   S    
C9    N6    D    
C37   H46   S    
C18   H45   S    
C18   O33   S    
O8    S2    D    
H38   O21   S    
C40   H52   S    
C30   H28   S    
C18   H34   S    
C36   H41   S    
C25   C26   S    
C23   N3    A    
O15   S4    D    
C34   N1    A    
O4    S1    S    
C44   O22   S    
C28   H21   S    
C43   C44   A    
C39   H49   S    
C29   C30   S    
C27   H17   S    
C1    O1    A    
C31   H30   S    
C31   C32   S    
C35   H39   S    
C28   H22   S    
O19   S5    D    
H20   O13   S    
C11   O32   A    
C39   H50   S    
O27   S6    S    
C27   H18   S    
C22   C24   S    
O28   Zn2   S    
C42   C43   A    
C35   O22   S    
N5    S2    S    
C44   C45   A    
C7    O5    S    
C22   H7    S    
C29   H25   S    
C33   H37   S    
C28   C29   S    
C14   O14   S    
O21   S5    S    
C1    C7    S    
C17   O18   S    
C21   O5    S    
C3    C5    D    
C30   H27   S    
C19   H55   S    
C33   H35   S    
C6    C7    D    
O10   S3    D    
O25   S6    D    
O30   Zn2   S    
C45   O24   S    
C37   H44   S    
C32   C33   S    
N6    Zn2   S    
C24   H8    S    
C5    C10   S    
C25   H13   S    
C35   H40   S    
C5    O33   S    
C13   H1    S    
C33   H36   S    
C38   H48   S    
C9    S3    S    
H54   O27   S    
C1    O12   A    
O20   S5    D    
C20   H2    S    
C2    C45   A    
C32   H33   S    
N5    Zn1   S    
C39   C40   S    
O11   S3    D    
C12   C13   A    
O26   S6    D    
C10   O30   A    
C2    C23   S    
C14   C15   A    
H3    O4    S    
C10   O29   A    
C6    S1    S    
C13   C14   A    
C26   H15   S    
O31   Zn1   S    
C16   C17   A    
C22   H6    S    
