data_mof_unit_16662.cif
_audit_creation_date              2013-03-05T15:47:42-0500
_audit_creation_method            fapswitch 2.2
_symmetry_space_group_name_H-M    P1
_symmetry_Int_Tables_number       1
_space_group_crystal_system       triclinic
_cell_length_a                    8.246551
_cell_length_b                    19.057571
_cell_length_c                    23.019397
_cell_angle_alpha                 96.044618
_cell_angle_beta                  90.143244
_cell_angle_gamma                 94.506044
_cell_volume                      3586.26520936

loop_
_atom_site_label
_atom_site_type_symbol
_atom_site_description
_atom_site_fract_x
_atom_site_fract_y
_atom_site_fract_z
_atom_type_partial_charge
P1    P     P_3+3 0.067040 0.441110 0.370020 0.473731
O1    O     O_2   0.896730 0.461690 0.361000 -0.371709
O2    O     O_3   0.137170 0.462400 0.432040 -0.385718
O3    O     O_3   0.657500 0.588540 0.395070 -0.359125
O4    O     O_2   0.777658 0.534885 0.294307 -0.368092
O5    O     O_3   0.050377 0.348973 0.354476 -0.575758
O6    O     O_3   0.721114 0.666429 0.297227 -0.543771
C1    C     C_3   0.632170 0.737483 0.225591 -0.919025
H1    H     H_    0.741871 0.775489 0.230787 0.249813
H2    H     H_    0.654460 0.694011 0.191102 0.239629
P2    P     P_3+3 0.640420 0.660110 0.543790 0.520799
P3    P     P_3+3 0.100035 0.716088 0.420705 0.574286
O7    O     O_2   0.816140 0.670340 0.526560 -0.362613
O8    O     O_3   0.069580 0.624410 0.423530 -0.356476
O9    O     O_2   0.971890 0.750855 0.460848 -0.319435
O10   O     O_3   0.648539 0.684979 0.619612 -0.571960
O11   O     O_3   0.049170 0.735373 0.350883 -0.468482
C2    C     C_3   0.114674 0.684986 0.310493 0.504086
H3    H     H_    0.040875 0.633307 0.309146 0.123942
H4    H     H_    0.242636 0.677202 0.321693 -0.017986
C3    C     C_3   0.111679 0.710696 0.250358 -0.891674
H5    H     H_    0.983630 0.712633 0.235519 0.265155
H6    H     H_    0.177188 0.764511 0.251408 0.275774
C4    C     C_3   0.062178 0.692289 0.627451 0.662960
H7    H     H_    0.947201 0.662618 0.614076 -0.012831
C5    C     C_3   0.018653 0.755023 0.671037 -0.145581
H8    H     H_    0.955885 0.793101 0.646937 0.101278
H9    H     H_    0.931649 0.735591 0.703763 0.092068
Ba1   Ba    Ba6+2 0.850680 0.532880 0.472010 1.623444
C6    C     C_3   0.990119 0.317298 0.402812 0.417325
H10   H     H_    0.871622 0.337184 0.415191 0.081688
H11   H     H_    0.076620 0.328114 0.440261 0.136490
C7    C     C_3   0.967365 0.237739 0.385945 -0.990601
H12   H     H_    0.875894 0.225662 0.350063 0.260925
H13   H     H_    0.925018 0.210126 0.423696 0.227913
H14   H     H_    0.084708 0.217520 0.371142 0.271121
C8    C     C_3   0.637760 0.626348 0.651973 0.379561
H15   H     H_    0.760410 0.610210 0.660004 -0.010896
H16   H     H_    0.565015 0.579970 0.630378 0.156286
C9    C     C_3   0.563879 0.648037 0.711058 -0.804630
H17   H     H_    0.644690 0.690313 0.735783 0.237893
H18   H     H_    0.547633 0.602079 0.736985 0.196682
H19   H     H_    0.443495 0.668340 0.704899 0.314817
P4    P     P_3+3 0.122660 0.558950 0.629980 0.529616
O12   O     O_2   0.292960 0.538340 0.639040 -0.362968
O13   O     O_3   0.052540 0.537650 0.567960 -0.350222
O14   O     O_3   0.532200 0.411510 0.604930 -0.379550
O15   O     O_3   0.166390 0.649618 0.652957 -0.572588
P5    P     P_3+3 0.098473 0.283772 0.577740 0.419934
O16   O     O_3   0.629030 0.416090 0.471500 -0.393611
O17   O     O_3   0.120120 0.375640 0.576470 -0.389587
O18   O     O_2   0.246132 0.251508 0.546872 -0.399686
O19   O     O_3   0.114835 0.266483 0.650364 -0.567787
Ba2   Ba    Ba6+2 0.339140 0.467180 0.527990 1.589022
P6    P     P_3+3 0.647843 0.583925 0.318452 0.474612
C10   C     C_3   0.593183 0.706964 0.283166 0.863234
H20   H     H_    0.474957 0.675812 0.276348 -0.086348
H21   H     H_    0.528241 0.765604 0.211373 0.249906
O20   O     O_3   0.560670 0.583970 0.528500 -0.394378
C11   C     C_3   0.536975 0.357503 0.344642 0.185168
H22   H     H_    0.407229 0.362462 0.334024 0.082502
H23   H     H_    0.589958 0.409017 0.366306 0.133434
C12   C     C_3   0.630746 0.339775 0.288306 0.078221
H24   H     H_    0.611583 0.282205 0.273172 0.088352
H25   H     H_    0.762539 0.348476 0.298698 0.169035
P7    P     P_3+3 0.554440 0.327658 0.453632 0.445891
O21   O     O_2   0.373560 0.329680 0.473470 -0.338325
O22   O     O_3   0.545960 0.300569 0.378439 -0.605191
H26   H     H_    0.172687 0.673252 0.219003 0.251740
C13   C     C_3   0.022201 0.313582 0.684592 0.379942
H27   H     H_    0.085197 0.367573 0.688777 0.140486
H28   H     H_    0.898603 0.315274 0.665625 0.056991
C14   C     C_3   0.003247 0.289663 0.745235 -0.914355
H29   H     H_    0.120696 0.299149 0.769565 0.253926
H30   H     H_    0.910585 0.319868 0.769166 0.297025
H31   H     H_    0.962297 0.232496 0.742270 0.258604
P8    P     P_3+3 0.554599 0.421788 0.681132 0.463816
C15   C     C_3   0.545428 0.285386 0.659518 0.297672
H32   H     H_    0.618274 0.294553 0.620177 0.015784
O23   O     O_2   0.388051 0.440862 0.706568 -0.408048
O24   O     O_3   0.584422 0.339158 0.705267 -0.499030
H33   H     H_    0.414579 0.283678 0.648167 0.144699
H34   H     H_    0.718106 0.209833 0.674681 0.140907
C16   C     C_3   0.584621 0.213219 0.677186 0.071431
H35   H     H_    0.530483 0.170226 0.644619 0.082145
H36   H     H_    0.921044 0.345668 0.056624 0.166921
H37   H     H_    0.843013 0.343560 0.954659 0.172680
C17   C     C_R   0.339651 0.518901 0.331925 -0.486356
C18   C     C_R   0.119795 0.559532 0.937606 -0.060241
C19   C     C_R   0.074685 0.557304 0.877793 0.527648
O25   O     O_2   0.118703 0.607129 0.850667 -0.567008
N1    N     N_R   0.978762 0.500070 0.850206 -0.166811
C20   C     C_R   0.925381 0.444641 0.882217 0.515124
O26   O     O_2   0.839696 0.394367 0.858788 -0.589753
C21   C     C_R   0.969414 0.445218 0.941945 -0.044945
C22   C     C_R   0.066755 0.503106 0.969776 -0.015659
C23   C     C_R   0.216098 0.617316 0.966222 -0.113696
C24   C     C_R   0.258126 0.619083 0.025338 -0.118506
C25   C     C_R   0.206197 0.562959 0.058035 -0.033898
C26   C     C_R   0.110810 0.504708 0.030078 -0.020658
C27   C     C_R   0.918110 0.389015 0.974607 -0.116678
C28   C     C_R   0.963182 0.390217 0.033474 -0.131170
C29   C     C_R   0.059931 0.447983 0.062102 -0.044682
C30   C     C_R   0.107649 0.449796 0.121721 0.520560
N2    N     N_R   0.198504 0.508336 0.150176 -0.158960
C31   C     C_R   0.247728 0.564411 0.117995 0.502759
C32   C     C_2   0.772984 0.485489 0.770867 -0.151214
C33   C     C_3   0.724013 0.488230 0.707355 0.140511
C34   C     C_1   0.009107 0.513438 0.685987 0.239811
C35   C     C_2   0.055235 0.514847 0.741851 -0.184870
C36   C     C_2   0.931388 0.499165 0.788334 0.114201
C37   C     C_R   0.403891 0.538139 0.231956 -0.205528
C38   C     C_R   0.447409 0.544384 0.291310 0.198251
C39   C     C_R   0.188237 0.486437 0.314630 0.275226
C40   C     C_R   0.138810 0.483964 0.255251 -0.242419
C41   C     C_R   0.246065 0.510460 0.212459 0.108101
O27   O     O_2   0.070845 0.398264 0.147657 -0.608355
O28   O     O_2   0.327694 0.616387 0.141366 -0.631343
C42   C     C_2   0.868970 0.480682 0.667970 -0.458586
H38   H     H_    0.332124 0.664821 0.045372 0.173127
H39   H     H_    0.494383 0.554991 0.201354 0.168809
H40   H     H_    0.259232 0.661669 0.942989 0.178687
H41   H     H_    0.182337 0.526648 0.753991 0.187296
H42   H     H_    0.678310 0.477523 0.802742 0.165603
H43   H     H_    0.017998 0.461120 0.242869 0.214347
H44   H     H_    0.376878 0.521590 0.377255 0.173407
H45   H     H_    0.858175 0.449301 0.625715 0.161000
C43   C     C_R   0.410925 0.700161 0.464845 -0.309443
C44   C     C_R   0.542718 0.723527 0.502004 0.368978
C45   C     C_R   0.589292 0.796252 0.511920 -0.171875
C46   C     C_R   0.499221 0.845847 0.487136 0.101495
C47   C     C_R   0.354707 0.821477 0.455849 -0.131012
C48   C     C_R   0.308136 0.748826 0.446212 0.245334
C49   C     C_R   0.543968 0.963954 0.448396 -0.117626
C50   C     C_R   0.594010 0.036095 0.455339 -0.256016
C51   C     C_R   0.655129 0.069403 0.509245 0.032017
C52   C     C_R   0.667940 0.028526 0.556689 0.533130
C53   C     C_R   0.613770 0.955653 0.549324 -0.341689
C54   C     C_R   0.552917 0.922847 0.495203 0.110656
C55   C     C_R   0.856125 0.173416 0.541464 -0.235273
C56   C     C_R   0.903893 0.246017 0.545124 0.233255
C57   C     C_R   0.658048 0.266685 0.494632 0.320002
C58   C     C_R   0.608222 0.194330 0.490832 -0.281033
C59   C     C_R   0.705887 0.146818 0.514978 0.068334
C60   C     C_R   0.802348 0.292235 0.523443 -0.523875
H46   H     H_    0.495602 0.175121 0.468177 0.158323
H47   H     H_    0.586585 0.065943 0.418029 0.158026
H48   H     H_    0.499557 0.940034 0.405998 0.177112
H49   H     H_    0.695247 0.813927 0.539015 0.124713
H50   H     H_    0.614248 0.924873 0.586194 0.150393
H51   H     H_    0.937389 0.137894 0.557693 0.159698
H52   H     H_    0.275792 0.858863 0.440901 0.131232
H53   H     H_    0.840225 0.348160 0.526050 0.165290
H54   H     H_    0.376267 0.643991 0.456766 0.153208
N3    N     N_R   0.576760 0.764815 0.329275 0.207570
O29   O     O_R   0.460741 0.806793 0.326187 -0.477838
O30   O     O_R   0.682581 0.777219 0.371959 -0.358269
N4    N     N_R   0.162076 0.790960 0.701726 0.298409
O31   O     O_R   0.230844 0.761690 0.742954 -0.338387
O32   O     O_R   0.207149 0.856247 0.693908 -0.350036
O33   O     O_3   0.596551 0.384253 0.245032 -0.605465
C61   C     C_3   0.468228 0.353590 0.207218 0.320382
H55   H     H_    0.351430 0.372404 0.223927 0.126302
H56   H     H_    0.455606 0.294608 0.202288 0.076315
C62   C     C_3   0.497972 0.376232 0.146352 -0.823419
H57   H     H_    0.611287 0.355022 0.128287 0.249934
H58   H     H_    0.394449 0.355279 0.116912 0.220618
H59   H     H_    0.510932 0.434748 0.147871 0.244832
O34   O     O_3   0.537809 0.204531 0.735270 -0.549853
C63   C     C_3   0.374809 0.175438 0.736546 0.312186
H60   H     H_    0.360155 0.121572 0.711924 0.104376
H61   H     H_    0.291322 0.210370 0.717886 0.139997
C64   C     C_3   0.326380 0.169119 0.799569 -0.826313
H62   H     H_    0.346393 0.221653 0.825854 0.265796
H63   H     H_    0.195275 0.150356 0.801277 0.211200
H64   H     H_    0.400488 0.130569 0.818537 0.259855
O35   O     O_3   0.716634 0.062686 0.610995 -0.657976
C65   C     C_3   0.834156 0.025856 0.637689 0.259682
H65   H     H_    0.922568 0.003361 0.605496 0.098224
H66   H     H_    0.772919 0.982669 0.660648 0.134434
C66   C     C_3   0.929566 0.076923 0.683027 -0.886349
H67   H     H_    0.845445 0.100188 0.716085 0.273201
H68   H     H_    0.019629 0.048303 0.705429 0.231184
H69   H     H_    0.995499 0.120234 0.661632 0.255285
N5    N     N_R   0.141220 0.715372 0.575923 0.214311
O36   O     O_R   0.240571 0.772506 0.579526 -0.434262
O37   O     O_R   0.161694 0.665416 0.534676 -0.385730

loop_
_geom_bond_atom_site_label_1
_geom_bond_atom_site_label_2
_geom_bond_distance
_ccdc_geom_bond_type
C58   H46   1.082794 S    
P7    O22   1.753001 S    
C4    H7    1.091415 S    
C12   H25   1.108131 S    
C62   H57   1.111500 S    
N3    O30   1.302777 A    
C2    C3    1.517064 S    
O34   C63   1.414792 S    
N2    C41   1.481047 S    
C21   C22   1.407588 A    
C57   C60   1.389234 A    
O6    P6    1.757848 S    
C43   C44   1.396528 A    
C1    C10   1.527505 S    
O33   C61   1.417781 S    
N5    O36   1.305428 A    
C50   C51   1.406242 A    
C64   H62   1.114289 S    
C53   H50   1.081498 S    
C5    H8    1.115647 S    
O16   Ba2   2.910071 S    
C11   C12   1.532200 S    
O6    C10   1.411923 S    
O7    Ba1   2.818999 S    
C4    C5    1.543195 S    
P1    O1    1.507222 D    
C8    C9    1.522247 S    
C6    H10   1.102987 S    
C7    H13   1.105917 S    
O2    Ba2   2.752487 S    
N5    O37   1.293095 A    
C63   H60   1.116830 S    
C58   C59   1.412738 A    
C7    H14   1.110653 S    
C10   H20   1.102855 S    
C11   H23   1.109863 S    
C2    H3    1.113825 S    
C14   H29   1.110361 S    
C17   C38   1.389816 A    
O2    Ba1   2.912312 S    
C35   C36   1.517278 S    
C30   N2    1.395467 Am   
C17   H44   1.081839 S    
C1    H21   1.112014 S    
H37   C27   1.084109 S    
C9    H19   1.107514 S    
Ba1   O20   2.910909 S    
C1    H1    1.111560 S    
P5    O17   1.749185 S    
P5    C56   1.831661 S    
P3    O11   1.743437 S    
C32   C33   1.523070 S    
C13   H27   1.110288 S    
O3    Ba1   2.728913 S    
C56   C60   1.390159 A    
O10   C8    1.404047 S    
Ba1   O16   2.765898 S    
C60   H53   1.082224 S    
P4    C34   1.845331 S    
C9    H18   1.110544 S    
P7    O21   1.563241 D    
C20   C21   1.419880 A    
C3    H5    1.113587 S    
C31   O28   1.220172 D    
N4    O32   1.301319 A    
C14   H30   1.105976 S    
C33   C42   1.508837 S    
C28   C29   1.410445 A    
C32   H42   1.085657 S    
C45   H49   1.082919 S    
C10   N3    1.462253 S    
P2    O20   1.550246 S    
O19   C13   1.404234 S    
P2    C44   1.851755 S    
C37   C38   1.402246 A    
P4    O13   1.540877 S    
C23   C24   1.399730 A    
C61   H56   1.114414 S    
Ba2   O20   2.765307 S    
C64   H63   1.113884 S    
C8    H16   1.100390 S    
N3    O29   1.300901 A    
P1    O5    1.749184 S    
C4    O15   1.397283 S    
C27   C28   1.401599 A    
C65   H65   1.117783 S    
C16   H35   1.115407 S    
C16   O34   1.415389 S    
C66   H68   1.111750 S    
C49   C54   1.402334 A    
C15   H32   1.109548 S    
C47   C48   1.401793 A    
Ba2   O21   2.819268 S    
P6    C38   1.841260 S    
C66   H67   1.112107 S    
C26   C29   1.409326 A    
C18   C23   1.408726 A    
C11   H22   1.110374 S    
P1    O2    1.540882 S    
C8    H15   1.100772 S    
P4    Ba2   3.377038 S    
C35   H41   1.084234 S    
C61   C62   1.523749 S    
P2    O10   1.759440 S    
C15   H33   1.106790 S    
C19   N1    1.390968 Am   
H34   C16   1.109025 S    
P3    O9    1.547770 D    
P8    O24   1.758789 S    
P5    O18   1.547794 D    
O13   Ba2   2.912989 S    
C13   C14   1.518168 S    
P1    Ba1   3.376476 S    
O11   C2    1.405105 S    
C52   O35   1.390251 S    
C20   O26   1.221069 D    
C55   C56   1.402239 A    
C24   H38   1.084068 S    
O16   P7    1.754309 S    
C55   H51   1.081776 S    
C11   O22   1.406460 S    
O14   Ba2   2.728402 S    
C1    H2    1.112025 S    
C9    H17   1.111010 S    
O5    C6    1.395144 S    
P3    O8    1.753555 S    
O12   Ba2   2.806196 S    
O35   C65   1.415713 S    
C62   H59   1.108746 S    
C50   H47   1.083074 S    
P3    C48   1.851647 S    
C3    H6    1.118890 S    
O3    P6    1.757904 S    
N4    O31   1.300746 A    
C47   H52   1.083009 S    
C14   H31   1.109976 S    
P1    C39   1.863743 S    
O14   P8    1.752086 S    
O8    Ba1   2.733506 S    
C23   H40   1.084401 S    
H36   C28   1.084155 S    
C37   C41   1.418803 A    
P4    O12   1.507492 D    
C34   C42   1.314133 D    
C61   H55   1.109630 S    
N2    C31   1.398429 Am   
P8    O23   1.548862 D    
C12   O33   1.415729 S    
C25   C31   1.418179 A    
C66   H69   1.111709 S    
C6    C7    1.521758 S    
C32   C36   1.363004 D    
O4    P6    1.542460 D    
P8    C33   1.864498 S    
C55   C59   1.412838 A    
C51   C52   1.415038 A    
C65   H66   1.113267 S    
N1    C36   1.473921 S    
C39   C40   1.420308 A    
C49   C50   1.396510 A    
P7    C57   1.831384 S    
C43   H54   1.082554 S    
C49   H48   1.082934 S    
C52   C53   1.417594 A    
C30   O27   1.220889 D    
C5    H9    1.113160 S    
C40   H43   1.080574 S    
C25   C26   1.405376 A    
Ba1   O13   2.751958 S    
O17   Ba2   2.734230 S    
C18   C22   1.411193 A    
C45   C46   1.411479 A    
C44   C45   1.403490 A    
C37   H39   1.081145 S    
C51   C59   1.493631 S    
P4    O15   1.761862 S    
C43   C48   1.402899 A    
C6    H11   1.109448 S    
P2    O7    1.506630 D    
C15   O24   1.407772 S    
C19   O25   1.222759 D    
C63   H61   1.110155 S    
P5    O19   1.744531 S    
C22   C26   1.430595 A    
N1    C20   1.394662 Am   
C64   H64   1.113848 S    
C7    H12   1.110751 S    
C5    N4    1.460708 S    
C2    H4    1.110535 S    
C17   C39   1.387315 A    
C46   C47   1.411716 A    
C65   C66   1.522203 S    
C46   C54   1.491318 S    
C53   C54   1.406550 A    
C12   H24   1.114482 S    
C15   C16   1.532437 S    
O1    Ba1   2.805442 S    
P2    Ba1   3.383339 S    
C62   H58   1.110902 S    
C24   C25   1.411772 A    
Ba1   Ba2   4.534343 S    
C3    H26   1.110422 S    
C29   C30   1.422923 A    
C57   C58   1.401157 A    
C4    N5    1.447089 S    
C13   H28   1.111962 S    
C40   C41   1.430579 A    
C18   C19   1.420773 A    
C34   C35   1.337093 D    
C21   C27   1.411215 A    
C63   C64   1.520136 S    
C42   H45   1.086464 S    
