data_mof_unit_49718.cif
_audit_creation_date              2012-12-11T15:34:02-0500
_audit_creation_method            fapswitch 2.2
_symmetry_space_group_name_H-M    P1
_symmetry_Int_Tables_number       1
_space_group_crystal_system       triclinic
_cell_length_a                    15.063764
_cell_length_b                    15.074266
_cell_length_c                    34.926237
_cell_angle_alpha                 90.551363
_cell_angle_beta                  89.995518
_cell_angle_gamma                 60.074494
_cell_volume                      6873.06781769

loop_
_atom_site_label
_atom_site_type_symbol
_atom_type_description
_atom_site_fract_x
_atom_site_fract_y
_atom_site_fract_z
_atom_type_partial_charge
C1    C     C_R   0.302531 0.608223 0.555746 0.542024
C2    C     C_R   0.228694 0.715106 0.387754 -0.124757
C3    C     C_R   0.752588 0.145058 0.266275 -0.114888
C4    C     C_R   0.759043 0.137591 0.226465 -0.094961
C5    C     C_R   0.673941 0.201835 0.203986 0.031598
C6    C     C_R   0.725159 0.225241 0.348881 -0.121804
C7    C     C_R   0.708965 0.243391 0.388187 -0.126938
C8    C     C_R   0.549034 0.242279 0.382807 -0.124046
C9    C     C_R   0.739479 0.583152 0.647906 -0.122931
C10   C     C_R   0.564917 0.224964 0.343533 -0.122403
C11   C     C_R   0.651112 0.220160 0.326127 0.030362
C12   C     C_R   0.618627 0.256280 0.405232 0.022832
C13   C     C_R   0.207016 0.719293 0.348898 -0.121872
C14   C     C_R   0.086353 0.706849 0.093332 0.021034
C15   C     C_R   0.103880 0.613935 0.108933 -0.126552
C16   C     C_R   0.142183 0.587159 0.145866 -0.122955
C17   C     C_R   0.163492 0.652849 0.167674 0.030182
C18   C     C_R   0.153627 0.741641 0.150971 -0.118129
C19   C     C_R   0.115508 0.768371 0.114038 -0.124404
C20   C     C_R   0.254624 0.656995 0.226653 -0.119463
C21   C     C_1   0.480899 0.209773 0.596265 0.214961
C22   C     C_1   0.831170 0.199241 0.152267 0.174853
C23   C     C_R   0.203917 0.637473 0.330807 0.030709
C24   C     C_R   0.566075 0.726814 0.649626 -0.121982
C25   C     C_R   0.248540 0.628442 0.408933 0.022869
C26   C     C_R   0.736059 0.025336 0.943291 0.542965
C27   C     C_R   0.745951 0.722858 0.945066 0.545251
C28   C     C_R   0.038238 0.734013 0.948328 0.542395
C29   C     C_R   0.723079 0.038621 0.052886 0.545746
C30   C     C_R   0.733395 0.734426 0.054685 0.543415
C31   C     C_R   0.657802 0.661800 0.668656 0.032564
C32   C     C_R   0.027782 0.744628 0.057774 0.544975
C33   C     C_R   0.553247 0.707825 0.611453 -0.130337
C34   C     C_R   0.673519 0.674733 0.788034 0.344324
C35   C     C_R   0.665315 0.669531 0.710495 0.344279
C36   C     C_R   0.762456 0.599113 0.849479 -0.123049
C37   C     C_R   0.778874 0.609819 0.888066 -0.130908
C38   C     C_R   0.628046 0.778681 0.889150 -0.132453
C39   C     C_R   0.611496 0.767854 0.850546 -0.124965
C40   C     C_R   0.681024 0.679699 0.829983 0.034102
C41   C     C_R   0.610746 0.588489 0.555195 0.545952
C42   C     C_R   0.261990 0.656093 0.266363 -0.117304
C43   C     C_R   0.714342 0.701469 0.907817 0.023189
C44   C     C_R   0.723808 0.071679 0.905286 0.021979
C45   C     C_R   0.637263 0.093914 0.883234 -0.124310
C46   C     C_R   0.635890 0.113132 0.844293 -0.120030
C47   C     C_R   0.720338 0.111725 0.826805 0.030031
C48   C     C_R   0.803318 0.098030 0.849248 -0.120955
C49   C     C_R   0.805265 0.077735 0.888267 -0.125999
C50   C     C_R   0.745855 0.188666 0.767798 -0.114077
C51   C     C_R   0.739905 0.200165 0.728119 -0.109901
C52   C     C_R   0.712736 0.140528 0.704999 0.028245
C53   C     C_R   0.198209 0.634325 0.288918 0.027238
C54   C     C_R   0.590413 0.300129 0.553619 0.541575
C55   C     C_R   0.696323 0.066032 0.722142 -0.115107
C56   C     C_R   0.701186 0.055399 0.761762 -0.114159
C57   C     C_R   0.723587 0.118275 0.784888 0.023664
C58   C     C_R   0.604140 0.167756 0.647509 -0.120395
C59   C     C_R   0.573132 0.205120 0.610538 -0.015370
C60   C     C_R   0.721246 0.228174 0.604956 -0.137874
C61   C     C_R   0.751502 0.190484 0.641765 -0.125627
C62   C     C_R   0.691238 0.163524 0.663872 0.017657
C63   C     C_R   0.629665 0.240309 0.589318 0.004399
C64   C     C_R   0.129995 0.609268 0.271284 -0.116896
C65   C     C_R   0.091609 0.697425 0.911213 0.021353
C66   C     C_R   0.300329 0.610158 0.446058 0.542439
C67   C     C_R   0.121702 0.758409 0.891045 -0.124273
C68   C     C_R   0.145098 0.740954 0.852171 -0.120487
C69   C     C_R   0.139973 0.661624 0.832905 0.030691
C70   C     C_R   0.119647 0.594518 0.853683 -0.117464
C71   C     C_R   0.095399 0.612389 0.892618 -0.125802
C72   C     C_R   0.210169 0.561698 0.772091 -0.109553
C73   C     C_R   0.218541 0.557658 0.732232 -0.106429
C74   C     C_R   0.162668 0.646824 0.710522 0.032197
C75   C     C_R   0.122227 0.610658 0.231553 -0.113399
C76   C     C_R   0.096078 0.739332 0.729365 -0.110031
C77   C     C_R   0.088549 0.743488 0.769152 -0.107868
C78   C     C_R   0.607851 0.589590 0.445225 0.543019
C79   C     C_R   0.146781 0.655110 0.790822 0.030828
C80   C     C_R   0.190424 0.723964 0.652021 -0.116561
C81   C     C_R   0.222914 0.715466 0.614143 -0.124144
C82   C     C_R   0.230400 0.551568 0.608335 -0.123649
C83   C     C_R   0.197480 0.560303 0.646228 -0.117817
C84   C     C_R   0.180717 0.644883 0.668824 0.031373
C85   C     C_R   0.246988 0.627396 0.592393 0.018468
C86   C     C_R   0.183148 0.636415 0.208977 0.028095
C87   C     C_R   0.691293 0.718120 0.090345 0.019745
C88   C     C_R   0.605125 0.799738 0.108113 -0.128260
C89   C     C_R   0.577919 0.790112 0.145413 -0.122421
C90   C     C_R   0.587588 0.303377 0.443604 0.542293
C91   C     C_R   0.636271 0.698728 0.165502 0.029354
C92   C     C_R   0.717656 0.614835 0.146642 -0.116724
C93   C     C_R   0.744791 0.624386 0.109425 -0.122732
C94   C     C_R   0.632784 0.603197 0.223174 -0.117237
C95   C     C_R   0.632778 0.593364 0.262806 -0.116073
C96   C     C_R   0.619645 0.674010 0.287003 0.025823
C97   C     C_R   0.213951 0.555436 0.352603 -0.122232
C98   C     C_R   0.602215 0.766219 0.270994 -0.116190
C99   C     C_R   0.603039 0.775834 0.231318 -0.113000
C100  C     C_R   0.620374 0.693646 0.207037 0.027099
C101  C     C_R   0.549270 0.734490 0.352860 -0.121593
C102  C     C_R   0.631988 0.623565 0.591746 0.022277
C103  C     C_R   0.548038 0.715162 0.391809 -0.125284
C104  C     C_R   0.704195 0.552018 0.383689 -0.124312
C105  C     C_R   0.704800 0.570992 0.344763 -0.121334
C106  C     C_R   0.625480 0.660685 0.328844 0.029609
C107  C     C_R   0.623458 0.621988 0.407300 0.022322
C108  C     C_R   0.236169 0.550889 0.391479 -0.126274
C109  C     C_R   0.699359 0.101488 0.087972 0.007616
C110  C     C_R   0.768797 0.130516 0.101888 -0.130492
C111  C     C_R   0.757617 0.171304 0.138867 -0.004113
C112  C     C_R   0.676451 0.182395 0.162418 0.013994
C113  C     C_R   0.602412 0.161767 0.147114 -0.136321
C114  C     C_R   0.726710 0.564240 0.609793 -0.130130
C115  C     C_R   0.613526 0.121972 0.110204 -0.131129
C116  C     C_R   0.582871 0.275011 0.221858 -0.121197
C117  C     C_R   0.576146 0.281937 0.261671 -0.119036
C118  C     C_R   0.660410 0.215740 0.284132 0.025510
Cr1   Cr    Cr6+3 0.421670 0.426920 0.499620 1.033724
Cr2   Cr    Cr6+3 0.427030 0.651190 0.500980 1.014833
Cr3   Cr    Cr6+3 0.651280 0.421870 0.499380 1.011993
Cr4   Cr    Cr6+3 0.910810 0.908010 0.001130 1.013884
Cr5   Cr    Cr6+3 0.682800 0.909890 0.998370 1.012084
Cr6   Cr    Cr6+3 0.908370 0.682300 0.002180 1.012694
H1    H     H_    0.789218 0.499455 0.595196 0.131284
H2    H     H_    0.868980 0.097164 0.836196 0.104342
H3    H     H_    0.479506 0.755275 0.598211 0.131064
H4    H     H_    0.767541 0.252553 0.589482 0.134411
H5    H     H_    0.120358 0.824013 0.904583 0.128239
H6    H     H_    0.072680 0.563952 0.907390 0.126140
H7    H     H_    0.188632 0.499199 0.658261 0.111999
H8    H     H_    0.271695 0.485566 0.718546 0.108478
H9    H     H_    0.255523 0.492712 0.788351 0.106617
H10   H     H_    0.162697 0.792309 0.836715 0.109060
H11   H     H_    0.050766 0.808783 0.713359 0.107457
H12   H     H_    0.873025 0.060901 0.904518 0.125005
H13   H     H_    0.037210 0.815922 0.783076 0.111389
H14   H     H_    0.178974 0.789694 0.668778 0.107113
H15   H     H_    0.845664 0.548658 0.901730 0.128799
H16   H     H_    0.234958 0.775188 0.602699 0.129526
H17   H     H_    0.115708 0.532601 0.839300 0.109128
H18   H     H_    0.247707 0.483030 0.592197 0.142681
H19   H     H_    0.562050 0.872820 0.094056 0.125563
H20   H     H_    0.811257 0.559935 0.096436 0.133384
H21   H     H_    0.765441 0.513951 0.326791 0.107506
H22   H     H_    0.643927 0.522335 0.274618 0.114788
H23   H     H_    0.820293 0.185794 0.653453 0.108656
H24   H     H_    0.644583 0.539302 0.205152 0.114388
H25   H     H_    0.513714 0.855388 0.159077 0.102872
H26   H     H_    0.591925 0.829301 0.289185 0.105950
H27   H     H_    0.811809 0.532864 0.661574 0.133146
H28   H     H_    0.594830 0.845906 0.219742 0.105646
H29   H     H_    0.487542 0.804371 0.341131 0.102955
H30   H     H_    0.484796 0.770525 0.409275 0.124051
H31   H     H_    0.764647 0.543657 0.161445 0.117766
H32   H     H_    0.763426 0.479532 0.394687 0.127944
H33   H     H_    0.834113 0.117463 0.084598 0.127168
H34   H     H_    0.751691 0.259113 0.715754 0.114605
H35   H     H_    0.558469 0.100902 0.100136 0.130612
H36   H     H_    0.507979 0.219020 0.326492 0.104302
H37   H     H_    0.504809 0.338289 0.274974 0.112129
H38   H     H_    0.516332 0.324855 0.204986 0.110135
H39   H     H_    0.502116 0.788831 0.664736 0.133812
H40   H     H_    0.818199 0.093080 0.283121 0.106773
H41   H     H_    0.829134 0.078649 0.213254 0.119018
H42   H     H_    0.792430 0.221281 0.335957 0.105009
H43   H     H_    0.764001 0.253762 0.404725 0.123444
H44   H     H_    0.539435 0.169846 0.164670 0.110422
H45   H     H_    0.763397 0.237690 0.785241 0.112617
H46   H     H_    0.478835 0.251495 0.395064 0.128655
H47   H     H_    0.083278 0.564352 0.093398 0.127268
H48   H     H_    0.103372 0.840133 0.102642 0.133474
H49   H     H_    0.197138 0.784345 0.332580 0.105859
H50   H     H_    0.816372 0.529423 0.834568 0.130639
H51   H     H_    0.317034 0.673081 0.279521 0.111834
H52   H     H_    0.303217 0.675786 0.209780 0.107975
H53   H     H_    0.150906 0.517417 0.158012 0.105016
H54   H     H_    0.080338 0.592168 0.288273 0.106626
H55   H     H_    0.065289 0.596168 0.218608 0.108919
H56   H     H_    0.570287 0.125563 0.827483 0.108943
H57   H     H_    0.211335 0.491788 0.339106 0.102593
H58   H     H_    0.250619 0.483344 0.407146 0.125224
H59   H     H_    0.168818 0.793999 0.167320 0.109241
H60   H     H_    0.236928 0.776406 0.400471 0.128601
H61   H     H_    0.576608 0.850050 0.903681 0.127025
H62   H     H_    0.547307 0.830808 0.836421 0.130110
H63   H     H_    0.573077 0.090333 0.895473 0.128580
H64   H     H_    0.677273 0.017696 0.704981 0.114128
H65   H     H_    0.685983 0.998992 0.774469 0.120189
H66   H     H_    0.556759 0.147114 0.664312 0.109284
N1    N     N_R   0.750418 0.597829 0.767584 -0.237856
N2    N     N_R   0.746238 0.595108 0.729615 -0.237867
N3    N     N_R   0.588380 0.746658 0.730918 -0.238494
N4    N     N_R   0.592689 0.749524 0.768938 -0.239348
N5    N     N_1   0.406958 0.213404 0.584941 -0.305170
N6    N     N_1   0.890058 0.221692 0.163008 -0.320882
O1    O     O_R   0.502070 0.323090 0.541280 -0.493274
O2    O     O_R   0.831550 0.656950 0.958960 -0.520652
O3    O     O_R   0.998590 0.685540 0.963930 -0.502725
O4    O     O_R   0.338340 0.520690 0.539540 -0.498898
O5    O     O_R   0.008220 0.831200 0.045060 -0.518442
O6    O     O_R   0.813270 0.997930 0.038810 -0.500891
O7    O     O_R   0.657500 0.016560 0.039940 -0.519765
O8    O     O_R   0.685680 0.820940 0.038120 -0.502583
O9    O     O_R   0.822130 0.666070 0.043610 -0.518647
O10   O     O_R   0.989860 0.694000 0.042400 -0.502598
O11   O     O_3   0.833990 0.833400 0.000560 -0.236042
O12   O     O_R   0.520720 0.641670 0.461580 -0.501431
O13   O     O_R   0.324760 0.674070 0.543580 -0.520321
O14   O     O_R   0.522400 0.640310 0.540110 -0.501984
O15   O     O_R   0.675940 0.500630 0.542210 -0.519345
O16   O     O_R   0.641790 0.337020 0.538150 -0.505847
O17   O     O_R   0.500260 0.324550 0.456580 -0.517906
O18   O     O_R   0.336660 0.522040 0.461020 -0.503741
O19   O     O_R   0.322940 0.675540 0.458880 -0.520173
O20   O     O_R   0.674120 0.502090 0.457500 -0.520163
O21   O     O_R   0.640110 0.338380 0.459630 -0.503800
O22   O     O_3   0.499990 0.499990 0.499990 -0.239638
O23   O     O_R   0.017640 0.822070 0.960410 -0.520540
O24   O     O_R   0.822000 0.989470 0.960340 -0.502742
O25   O     O_R   0.666920 0.007430 0.955290 -0.520412
O26   O     O_R   0.694410 0.812480 0.959650 -0.502723

loop_
_geom_bond_atom_site_label_1
_geom_bond_atom_site_label_2
_ccdc_geom_bond_type
C44   C49   A    
C58   C62   A    
C81   H16   S    
C55   C56   A    
C6    H42   S    
C36   H50   S    
C35   N2    A    
C29   O7    A    
Cr6   O9    S    
C70   H17   S    
C73   C74   A    
C95   C96   A    
C82   H18   S    
C113  H44   S    
C26   C44   S    
C45   C46   A    
C4    H41   S    
Cr2   O19   S    
C13   H49   S    
N3    N4    A    
Cr5   O25   S    
Cr6   O3    S    
C54   O1    A    
C74   C76   A    
Cr5   O8    S    
C60   C63   A    
C34   C40   S    
C9    C114  A    
Cr4   O5    S    
C29   C109  S    
C34   N1    A    
C77   H13   S    
C21   C59   S    
C72   C79   A    
C42   H51   S    
C42   C53   A    
C38   C39   A    
C53   C64   A    
C54   C63   S    
C15   C16   A    
Cr6   O2    S    
C33   H3    S    
C51   C52   A    
C116  C117  A    
C13   C23   A    
C17   C18   A    
C18   C19   A    
Cr3   O22   S    
Cr3   O16   S    
C32   O5    A    
C2    C13   A    
C110  C111  A    
C112  C113  A    
C90   O21   A    
C96   C106  S    
C75   C86   A    
C46   C47   A    
C39   H62   S    
C9    H27   S    
C83   C84   A    
C16   C17   A    
C65   C67   A    
C96   C98   A    
C58   H66   S    
Cr1   O22   S    
C70   C71   A    
C94   C100  A    
C91   C100  S    
C2    C25   A    
C75   H55   S    
C88   H19   S    
C61   C62   A    
C91   C92   A    
C52   C55   A    
C80   C84   A    
C72   C73   A    
C34   N4    A    
C89   H25   S    
C73   H8    S    
C101  C103  A    
C66   O19   A    
C1    C85   S    
C104  C107  A    
C97   C108  A    
C22   N6    T    
C67   H5    S    
C95   H22   S    
C14   C19   A    
C104  C105  A    
C76   H11   S    
C8    H46   S    
C23   C53   S    
C77   C79   A    
C94   H24   S    
C7    C12   A    
Cr5   O26   S    
C28   O3    A    
Cr4   O23   S    
C1    O13   A    
Cr1   O4    S    
Cr2   O12   S    
Cr3   O20   S    
C46   H56   S    
C60   H4    S    
C76   C77   A    
C10   C11   A    
C78   O20   A    
C39   C40   A    
C114  H1    S    
C109  C115  A    
C68   C69   A    
C117  H37   S    
C58   C59   A    
C65   C71   A    
C30   O9    A    
C26   O24   A    
C82   C83   A    
C104  H32   S    
C33   C102  A    
C20   C86   A    
C78   C107  S    
C21   N5    T    
C41   O15   A    
C66   O18   A    
C87   C88   A    
C67   C68   A    
C83   H7    S    
C102  C114  A    
C3    C118  A    
C47   C57   S    
C64   H54   S    
C103  H30   S    
C99   C100  A    
C101  H29   S    
C8    C12   A    
C105  H21   S    
C26   O25   A    
C50   C51   A    
Cr5   O11   S    
C94   C95   A    
C2    H60   S    
C55   H64   S    
C19   H48   S    
C97   H57   S    
C93   H20   S    
C16   H53   S    
C110  H33   S    
Cr4   O24   S    
C3    H40   S    
C41   O14   A    
C8    C10   A    
C48   C49   A    
C23   C97   A    
C49   H12   S    
C98   C99   A    
C28   O23   A    
C17   C86   S    
C6    C11   A    
C5    C116  A    
C15   H47   S    
C31   C35   S    
C37   C43   A    
C69   C79   S    
C24   H39   S    
C89   C91   A    
C56   C57   A    
C32   O10   A    
C3    C4    A    
C82   C85   A    
C99   H28   S    
C10   H36   S    
C101  C106  A    
C36   C40   A    
C44   C45   A    
C98   H26   S    
C116  H38   S    
Cr2   O13   S    
C7    H43   S    
C56   H65   S    
C36   C37   A    
C27   O26   A    
C29   O6    A    
C111  C112  A    
Cr6   O10   S    
Cr1   O1    S    
C50   C57   A    
Cr3   O21   S    
Cr4   O11   S    
C45   H63   S    
C25   C66   S    
C74   C84   S    
C80   C81   A    
C47   C48   A    
C12   C90   S    
C20   C42   A    
Cr1   O17   S    
C6    C7    A    
C5    C112  S    
C108  H58   S    
C38   H61   S    
C30   O8    A    
C105  C106  A    
C51   H34   S    
C59   C63   A    
C24   C33   A    
Cr5   O7    S    
Cr4   O6    S    
Cr2   O14   S    
C68   H10   S    
C28   C65   S    
C61   H23   S    
C24   C31   A    
C38   C43   A    
Cr6   O11   S    
C52   C62   S    
C109  C110  A    
C71   H6    S    
C72   H9    S    
C20   H52   S    
C18   H59   S    
C80   H14   S    
C87   C93   A    
C54   O16   A    
C92   C93   A    
C41   C102  S    
C64   C75   A    
C92   H31   S    
Cr3   O15   S    
C69   C70   A    
N1    N2    A    
C78   O12   A    
C50   H45   S    
C9    C31   A    
C48   H2    S    
C27   O2    A    
C1    O4    A    
C27   C43   S    
C4    C5    A    
C14   C32   S    
C88   C89   A    
Cr1   O18   S    
Cr2   O22   S    
C22   C111  S    
C37   H15   S    
C35   N3    A    
C115  H35   S    
C14   C15   A    
C60   C61   A    
C103  C107  A    
C30   C87   S    
C117  C118  A    
C11   C118  S    
C90   O17   A    
C81   C85   A    
C25   C108  A    
C113  C115  A    
