data_mof_unit_5356.cif
_audit_creation_date              2012-12-11T14:24:48-0500
_audit_creation_method            fapswitch 2.2
_symmetry_space_group_name_H-M    P1
_symmetry_Int_Tables_number       1
_space_group_crystal_system       triclinic
_cell_length_a                    19.041351
_cell_length_b                    11.080155
_cell_length_c                    18.745215
_cell_angle_alpha                 89.760958
_cell_angle_beta                  90.406948
_cell_angle_gamma                 90.010578
_cell_volume                      3954.7522432

loop_
_atom_site_label
_atom_site_type_symbol
_atom_type_description
_atom_site_fract_x
_atom_site_fract_y
_atom_site_fract_z
_atom_type_partial_charge
Br1   Br    Br    0.906339 0.983263 0.088890 -0.559780
Br2   Br    Br    0.090798 0.965850 0.902002 -0.570650
Br3   Br    Br    0.406339 0.483263 0.088890 -0.559781
Br4   Br    Br    0.590798 0.465850 0.902002 -0.570658
C1    C     C_R   0.727613 0.368856 0.142662 0.531335
C2    C     C_R   0.238253 0.887638 0.064579 -0.032819
C3    C     C_R   0.687938 0.607406 0.409413 -0.080826
C4    C     C_R   0.941213 0.018333 0.516305 -0.144755
C5    C     C_R   0.131905 0.176053 0.432740 -0.114658
C6    C     C_R   0.441218 0.518323 0.516289 -0.144763
C7    C     C_R   0.631957 0.676095 0.432750 -0.114647
C8    C     C_R   0.939880 0.977453 0.446585 -0.114860
C9    C     C_R   0.108245 0.161871 0.501980 -0.146194
C10   C     C_R   0.439880 0.477463 0.446566 -0.114873
C11   C     C_R   0.608280 0.661910 0.501984 -0.146159
C12   C     C_R   0.878545 0.928334 0.418938 -0.079108
C13   C     C_R   0.257340 0.395418 0.933444 -0.041501
C14   C     C_R   0.140271 0.079083 0.547804 -0.086345
C15   C     C_R   0.378549 0.428328 0.418922 -0.079102
C16   C     C_R   0.640273 0.579074 0.547811 -0.086321
C17   C     C_R   0.749625 0.923737 0.427230 -0.001351
C18   C     C_R   0.240961 0.934061 0.571206 0.007478
C19   C     C_R   0.249635 0.423702 0.427220 -0.001358
C20   C     C_R   0.740931 0.433998 0.571224 0.007486
C21   C     C_R   0.731301 0.378825 0.353578 0.529905
C22   C     C_R   0.270203 0.381755 0.646193 0.544058
C23   C     C_R   0.231296 0.878823 0.353566 0.529998
C24   C     C_R   0.738253 0.387638 0.064579 -0.032821
C25   C     C_R   0.770199 0.881765 0.646197 0.544046
C26   C     C_R   0.532497 0.158046 0.352698 0.532544
C27   C     C_R   0.467217 0.155108 0.646393 0.546804
C28   C     C_R   0.032500 0.658046 0.352695 0.532572
C29   C     C_R   0.967187 0.655101 0.646379 0.546854
C30   C     C_R   0.742117 0.969738 0.355735 0.527470
C31   C     C_R   0.256194 0.972039 0.643613 0.545241
C32   C     C_R   0.242120 0.469731 0.355732 0.527478
C33   C     C_R   0.756186 0.472013 0.643623 0.545221
C34   C     C_3   0.559329 0.194046 0.964620 -0.120727
C35   C     C_R   0.703974 0.836745 0.974441 -0.004418
C36   C     C_3   0.517792 0.269591 0.019480 -0.059267
C37   C     C_3   0.059329 0.694047 0.964620 -0.120725
C38   C     C_3   0.017792 0.769592 0.019480 -0.059267
C39   C     C_3   0.555120 0.083411 0.014601 -0.133370
C40   C     C_3   0.447815 0.229659 0.984739 -0.075631
C41   C     C_3   0.055120 0.583411 0.014601 -0.133368
C42   C     C_3   0.947815 0.729658 0.984739 -0.075633
C43   C     C_3   0.513104 0.159166 0.068418 0.049444
C44   C     C_3   0.489736 0.155993 0.930819 0.053673
C45   C     C_3   0.013104 0.659166 0.068418 0.049446
C46   C     C_R   0.295825 0.839871 0.025354 -0.000123
C47   C     C_3   0.989736 0.655993 0.930819 0.053668
C48   C     C_R   0.203974 0.336745 0.974441 -0.004420
C49   C     C_R   0.795825 0.339871 0.025354 -0.000123
C50   C     C_R   0.710282 0.834521 0.050070 -0.031517
C51   C     C_R   0.290439 0.834351 0.949971 -0.024607
C52   C     C_R   0.210282 0.334521 0.050070 -0.031517
C53   C     C_R   0.271026 0.371290 0.856375 0.530114
C54   C     C_R   0.790439 0.334351 0.949971 -0.024605
C55   C     C_R   0.817421 0.948043 0.044312 0.139528
C56   C     C_R   0.177830 0.931302 0.951602 0.121562
C57   C     C_R   0.317421 0.448043 0.044312 0.139529
C58   C     C_R   0.677830 0.431302 0.951602 0.121563
C59   C     C_R   0.812845 0.951244 0.970800 -0.140784
C60   C     C_R   0.178934 0.927951 0.025531 -0.126416
C61   C     C_R   0.312845 0.451244 0.970800 -0.140784
C62   C     C_R   0.678935 0.427951 0.025532 -0.126416
C63   C     C_R   0.644161 0.781325 0.944525 -0.100236
C64   C     C_R   0.227613 0.868856 0.142662 0.531332
C65   C     C_R   0.358994 0.799145 0.056702 -0.097675
C66   C     C_R   0.144161 0.281325 0.944526 -0.100236
C67   C     C_R   0.858994 0.299145 0.056703 -0.097676
C68   C     C_R   0.097006 0.219085 0.988168 -0.066896
C69   C     C_R   0.910593 0.245160 0.014559 -0.055880
C70   C     C_R   0.597006 0.719085 0.988168 -0.066895
C71   C     C_R   0.410593 0.745160 0.014558 -0.055880
C72   C     C_R   0.608171 0.707029 0.061158 0.084634
C73   C     C_R   0.399121 0.724477 0.941909 0.091268
C74   C     C_R   0.108172 0.207030 0.061158 0.084635
C75   C     C_R   0.771026 0.871290 0.856375 0.530105
C76   C     C_R   0.899121 0.224477 0.941909 0.091269
C77   C     C_R   0.665718 0.762328 0.091540 -0.076612
C78   C     C_R   0.338411 0.766980 0.910508 -0.077745
C79   C     C_R   0.165718 0.262328 0.091540 -0.076611
C80   C     C_R   0.838411 0.266980 0.910508 -0.077745
C81   C     C_R   0.533985 0.154865 0.143731 0.559483
C82   C     C_R   0.467337 0.154229 0.855644 0.562551
C83   C     C_R   0.033985 0.654865 0.143731 0.559479
C84   C     C_R   0.967337 0.654230 0.855644 0.562571
C85   C     C_R   0.760934 0.905008 0.083853 0.010572
C86   C     C_3   0.443789 0.118608 0.034555 -0.130204
C87   C     C_R   0.238070 0.898873 0.914375 0.006301
C88   C     C_R   0.260935 0.405008 0.083853 0.010573
C89   C     C_R   0.738070 0.398873 0.914375 0.006300
C90   C     C_R   0.493579 0.152007 0.572828 0.002666
C91   C     C_R   0.504331 0.168683 0.424387 -0.006175
C92   C     C_R   0.993502 0.651992 0.572802 0.002723
C93   C     C_R   0.004313 0.668692 0.424371 -0.006150
C94   C     C_R   0.478913 0.049482 0.528296 0.040216
C95   C     C_R   0.471295 0.068115 0.454613 0.023154
C96   C     C_R   0.978788 0.549497 0.528256 0.040198
C97   C     C_3   0.485360 0.044150 0.979698 -0.118779
C98   C     C_R   0.971220 0.568158 0.454568 0.023153
C99   C     C_R   0.531661 0.259801 0.468834 -0.144730
C100  C     C_R   0.520767 0.256240 0.541976 -0.150964
C101  C     C_R   0.031660 0.759767 0.468833 -0.144770
C102  C     C_R   0.020745 0.756194 0.541968 -0.150990
C103  C     C_R   0.473120 0.928654 0.553115 -0.086369
C104  C     C_R   0.440172 0.977725 0.411773 -0.083147
C105  C     C_R   0.972918 0.428661 0.553050 -0.086387
C106  C     C_R   0.940094 0.477815 0.411693 -0.083168
C107  C     C_R   0.948307 0.337701 0.508701 -0.147495
C108  C     C_3   0.943789 0.618607 0.034555 -0.130204
C109  C     C_R   0.931951 0.361806 0.437993 -0.116639
C110  C     C_R   0.448446 0.837674 0.508816 -0.147425
C111  C     C_R   0.432049 0.861728 0.438109 -0.116677
C112  C     C_R   0.758921 0.927821 0.574454 0.003343
C113  C     C_R   0.250448 0.915321 0.424577 -0.001442
C114  C     C_R   0.258931 0.427781 0.574443 0.003343
C115  C     C_R   0.750422 0.415247 0.424604 -0.001388
C116  C     C_R   0.818750 0.957717 0.531668 0.040709
C117  C     C_R   0.215905 0.014892 0.453292 0.023667
C118  C     C_R   0.318758 0.457683 0.531657 0.040716
C119  C     C_3   0.985361 0.544149 0.979698 -0.118779
C120  C     C_R   0.715905 0.514849 0.453311 0.023646
C121  C     C_R   0.816037 0.929913 0.459295 0.022233
C122  C     C_R   0.198955 0.009948 0.525503 0.040395
C123  C     C_R   0.316044 0.429889 0.459282 0.022248
C124  C     C_R   0.698948 0.509916 0.525518 0.040416
C125  C     C_R   0.688583 0.920135 0.469340 -0.138755
C126  C     C_R   0.280305 0.841329 0.542387 -0.153475
C127  C     C_R   0.188599 0.420063 0.469329 -0.138751
C128  C     C_R   0.780236 0.341211 0.542414 -0.153521
C129  C     C_R   0.744218 0.965210 0.151317 0.551639
C130  C     C_R   0.757340 0.895418 0.933444 -0.041501
C131  C     C_R   0.255540 0.963920 0.848200 0.560442
C132  C     C_R   0.244218 0.465210 0.151317 0.551636
C133  C     C_R   0.755540 0.463920 0.848200 0.560436
C134  C     C_R   0.693780 0.911753 0.542518 -0.153778
C135  C     C_R   0.280026 0.826355 0.469506 -0.140029
C136  C     C_R   0.193796 0.411685 0.542505 -0.153780
C137  C     C_R   0.779956 0.326233 0.469533 -0.139999
C138  C     C_R   0.881073 0.012942 0.557751 -0.085087
C139  C     C_R   0.187905 0.107417 0.409397 -0.080794
C140  C     C_R   0.381083 0.512903 0.557740 -0.085072
Cr1   Cr    Cr6+3 0.772820 0.169820 0.252640 1.031780
Cr2   Cr    Cr6+3 0.383280 0.011130 0.749340 0.997528
Cr3   Cr    Cr6+3 0.116720 0.511130 0.250660 0.993384
Cr4   Cr    Cr6+3 0.883280 0.511130 0.749340 0.997486
Cr5   Cr    Cr6+3 0.227180 0.169820 0.747360 1.034970
Cr6   Cr    Cr6+3 0.272820 0.669820 0.252640 1.031791
Cr7   Cr    Cr6+3 0.727180 0.669820 0.747360 1.034961
Cr8   Cr    Cr6+3 0.615040 0.323610 0.249150 1.019344
Cr9   Cr    Cr6+3 0.384960 0.323610 0.750850 1.031451
Cr10  Cr    Cr6+3 0.115040 0.823610 0.249150 1.019330
Cr11  Cr    Cr6+3 0.884960 0.823610 0.750850 1.031462
Cr12  Cr    Cr6+3 0.616720 0.011130 0.250660 0.993389
H1    H     H_    0.599481 0.022468 0.028372 0.140770
H2    H     H_    0.426495 0.994487 0.356420 0.123488
H3    H     H_    0.991329 0.399205 0.604805 0.137120
H4    H     H_    0.926455 0.494600 0.356333 0.123465
H5    H     H_    0.941641 0.248482 0.529939 0.103387
H6    H     H_    0.913540 0.290457 0.403326 0.124471
H7    H     H_    0.441803 0.748469 0.530085 0.103319
H8    H     H_    0.413629 0.790350 0.403471 0.124425
H9    H     H_    0.636504 0.925429 0.445964 0.152893
H10   H     H_    0.309540 0.779376 0.576205 0.119132
H11   H     H_    0.136523 0.425349 0.445954 0.152901
H12   H     H_    0.403332 0.286508 0.968491 0.153075
H13   H     H_    0.809455 0.279239 0.576237 0.119060
H14   H     H_    0.883858 0.057288 0.608931 0.131630
H15   H     H_    0.205359 0.119719 0.354951 0.116928
H16   H     H_    0.383876 0.557229 0.608924 0.131670
H17   H     H_    0.705398 0.619695 0.354970 0.116927
H18   H     H_    0.647281 0.895114 0.574080 0.121402
H19   H     H_    0.302216 0.743915 0.448525 0.152308
H20   H     H_    0.147301 0.395033 0.574067 0.121463
H21   H     H_    0.802139 0.243788 0.448546 0.152318
H22   H     H_    0.988735 0.054928 0.538779 0.097222
H23   H     H_    0.099481 0.522469 0.028372 0.140771
H24   H     H_    0.106442 0.239323 0.396836 0.121163
H25   H     H_    0.488744 0.554911 0.538761 0.097202
H26   H     H_    0.606519 0.739401 0.396846 0.121183
H27   H     H_    0.986036 0.985321 0.413575 0.124379
H28   H     H_    0.065388 0.215960 0.520736 0.104262
H29   H     H_    0.486032 0.485348 0.413552 0.124358
H30   H     H_    0.565438 0.716032 0.520736 0.104295
H31   H     H_    0.878814 0.896705 0.364328 0.130017
H32   H     H_    0.115048 0.065888 0.598631 0.138593
H33   H     H_    0.378817 0.396705 0.364312 0.130017
H34   H     H_    0.903331 0.786506 0.968491 0.153074
H35   H     H_    0.615032 0.565861 0.598629 0.138543
H36   H     H_    0.607516 0.216609 0.934664 0.151158
H37   H     H_    0.528728 0.362542 0.037384 0.198793
H38   H     H_    0.107516 0.716610 0.934664 0.151161
H39   H     H_    0.028727 0.862543 0.037384 0.198793
H40   H     H_    0.396433 0.088705 0.063981 0.118559
H41   H     H_    0.473692 0.951171 0.961667 0.144095
H42   H     H_    0.896433 0.588703 0.063982 0.118557
H43   H     H_    0.973693 0.451171 0.961667 0.144095
H44   H     H_    0.631184 0.788536 0.888590 0.157444
H45   H     H_    0.562365 0.333433 0.447211 0.148839
H46   H     H_    0.370735 0.812263 0.112536 0.146748
H47   H     H_    0.131184 0.288536 0.888590 0.157447
H48   H     H_    0.870735 0.312264 0.112536 0.146745
H49   H     H_    0.857903 0.986125 0.943304 0.184735
H50   H     H_    0.131535 0.953654 0.052107 0.177314
H51   H     H_    0.357903 0.486126 0.943304 0.184734
H52   H     H_    0.631535 0.453655 0.052107 0.177313
H53   H     H_    0.052367 0.177147 0.965203 0.220686
H54   H     H_    0.958747 0.217757 0.039062 0.190695
H55   H     H_    0.552367 0.677147 0.965203 0.220686
H56   H     H_    0.535935 0.332471 0.574643 0.126242
H57   H     H_    0.458747 0.717757 0.039062 0.190695
H58   H     H_    0.675092 0.749141 0.148126 0.121721
H59   H     H_    0.329649 0.749377 0.854295 0.121235
H60   H     H_    0.175092 0.249141 0.148126 0.121718
H61   H     H_    0.829649 0.249377 0.854295 0.121229
H62   H     H_    0.037443 0.204127 0.140385 0.227426
H63   H     H_    0.087207 0.079993 0.135979 0.257209
H64   H     H_    0.968327 0.227815 0.861285 0.223771
H65   H     H_    0.925877 0.095661 0.870393 0.258796
H66   H     H_    0.537443 0.704127 0.140385 0.227428
H67   H     H_    0.062395 0.833373 0.447227 0.148839
H68   H     H_    0.587207 0.579993 0.135979 0.257209
H69   H     H_    0.468327 0.727816 0.861285 0.223770
H70   H     H_    0.425877 0.595661 0.870393 0.258797
H71   H     H_    0.035943 0.832388 0.574647 0.126259
H72   H     H_    0.491621 0.899269 0.604858 0.136977
N1    N     N_3   0.059542 0.142445 0.104922 -0.617180
N2    N     N_3   0.950116 0.165267 0.898794 -0.626909
N3    N     N_3   0.559542 0.642445 0.104922 -0.617180
N4    N     N_3   0.450116 0.665267 0.898794 -0.626909
O1    O     O_R   0.788190 0.043000 0.172520 -0.457203
O2    O     O_R   0.454170 0.051610 0.669840 -0.538960
O3    O     O_R   0.045830 0.551610 0.330160 -0.527200
O4    O     O_R   0.954170 0.551610 0.669840 -0.539051
O5    O     O_R   0.681920 0.959720 0.327070 -0.518170
O6    O     O_R   0.318080 0.959720 0.672930 -0.502643
O7    O     O_R   0.181920 0.459720 0.327070 -0.518168
O8    O     O_R   0.818080 0.459720 0.672930 -0.502672
O9    O     O_3   0.668190 0.168190 0.250820 -0.253004
O10   O     O_3   0.331810 0.168190 0.749180 -0.255269
O11   O     O_3   0.168190 0.668190 0.250820 -0.253015
O12   O     O_R   0.211810 0.043000 0.827480 -0.459063
O13   O     O_3   0.831810 0.668190 0.749180 -0.255270
O14   O     O_R   0.766240 0.292300 0.176860 -0.501363
O15   O     O_R   0.233760 0.292300 0.823140 -0.505231
O16   O     O_R   0.266240 0.792300 0.176860 -0.501365
O17   O     O_R   0.733760 0.792300 0.823140 -0.505236
O18   O     O_R   0.670310 0.409160 0.168720 -0.542422
O19   O     O_R   0.329690 0.409160 0.831280 -0.536788
O20   O     O_R   0.170310 0.909160 0.168720 -0.542428
O21   O     O_R   0.829690 0.909160 0.831280 -0.536792
O22   O     O_R   0.556160 0.251900 0.173380 -0.489085
O23   O     O_R   0.288190 0.543000 0.172520 -0.457205
O24   O     O_R   0.443840 0.251900 0.826620 -0.477877
O25   O     O_R   0.056160 0.751900 0.173380 -0.489085
O26   O     O_R   0.943840 0.751900 0.826620 -0.477868
O27   O     O_R   0.545410 0.050140 0.168240 -0.526795
O28   O     O_R   0.454590 0.050140 0.831760 -0.532825
O29   O     O_R   0.045410 0.550140 0.168240 -0.526800
O30   O     O_R   0.954590 0.550140 0.831760 -0.532811
O31   O     O_R   0.681530 0.958350 0.176970 -0.524257
O32   O     O_R   0.318470 0.958350 0.823030 -0.521238
O33   O     O_R   0.181530 0.458350 0.176970 -0.524258
O34   O     O_R   0.711810 0.543000 0.827480 -0.459066
O35   O     O_R   0.818470 0.458350 0.823030 -0.521240
O36   O     O_R   0.788610 0.044480 0.334450 -0.523199
O37   O     O_R   0.211390 0.044480 0.665550 -0.533633
O38   O     O_R   0.288610 0.544480 0.334450 -0.523185
O39   O     O_R   0.711390 0.544480 0.665550 -0.533608
O40   O     O_R   0.766630 0.293670 0.326970 -0.514927
O41   O     O_R   0.233370 0.293670 0.673030 -0.497631
O42   O     O_R   0.266630 0.793670 0.326970 -0.514931
O43   O     O_R   0.733370 0.793670 0.673030 -0.497619
O44   O     O_R   0.670730 0.410640 0.330640 -0.524509
O45   O     O_R   0.556550 0.253260 0.323480 -0.504401
O46   O     O_R   0.329270 0.410640 0.669360 -0.536350
O47   O     O_R   0.170730 0.910640 0.330640 -0.524550
O48   O     O_R   0.829270 0.910640 0.669360 -0.536338
O49   O     O_R   0.443450 0.253260 0.676520 -0.488567
O50   O     O_R   0.056550 0.753260 0.323480 -0.504417
O51   O     O_R   0.943450 0.753260 0.676520 -0.488567
O52   O     O_R   0.545830 0.051610 0.330160 -0.527207

loop_
_geom_bond_atom_site_label_1
_geom_bond_atom_site_label_2
_ccdc_geom_bond_type
Cr2   O2    S    
C48   C66   A    
C42   C108  S    
C47   C119  S    
C45   C83   S    
C107  H5    S    
C53   O15   A    
C29   O51   A    
C110  C111  A    
C5    C139  A    
Cr9   O19   S    
C9    C14   A    
C91   C95   A    
C40   H12   S    
C5    C9    A    
C127  C136  A    
C7    C11   A    
C8    C12   A    
C134  H18   S    
Cr3   O33   S    
C138  H14   S    
C93   C101  A    
C90   C100  A    
C96   C105  A    
C18   C126  A    
C113  C135  A    
C31   O37   A    
C114  C136  A    
C21   C115  S    
C13   C48   A    
C108  H42   S    
C23   C113  S    
C11   C16   A    
C27   O2    A    
C63   H44   S    
Cr8   O44   S    
C67   C69   A    
Cr11  O26   S    
C116  C121  A    
Cr9   O46   S    
C24   C62   A    
C99   H45   S    
H62   N1    S    
Cr3   O11   S    
C136  H20   S    
C9    H28   S    
C75   O21   A    
C107  C109  A    
C63   C70   A    
C29   O4    A    
Cr6   O11   S    
C6    C10   A    
C115  C137  A    
Cr10  O50   S    
C49   C67   A    
C22   O46   A    
C52   C79   A    
Cr10  O11   S    
Cr4   O8    S    
C1    O18   A    
Cr6   O42   S    
C76   N2    S    
C49   C54   A    
C125  H9    S    
Cr12  O5    S    
C55   C59   A    
C70   H55   S    
C56   C60   A    
C34   C39   S    
Cr10  O20   S    
C73   C78   A    
H70   N4    S    
C44   C97   S    
Cr4   O13   S    
Cr1   O36   S    
Cr11  O51   S    
C38   H39   S    
Cr8   O45   S    
Cr5   O37   S    
C78   H59   S    
C57   C61   A    
C19   C32   S    
C58   C89   A    
C37   C41   S    
C102  H71   S    
Cr4   O30   S    
C39   C43   S    
C37   C47   S    
C50   C77   A    
C40   C44   S    
C35   C130  A    
Cr2   O28   S    
C1    O14   A    
C83   O25   A    
C16   H35   S    
Cr8   O18   S    
C79   H60   S    
C84   O30   A    
C41   C119  S    
C74   N1    S    
Cr6   O16   S    
C95   C104  A    
C70   C72   A    
Cr4   O35   S    
C119  H43   S    
Cr10  O47   S    
C27   O49   A    
C21   O44   A    
C105  C107  A    
C97   H41   S    
C8    H27   S    
C82   O24   A    
Cr12  O31   S    
C114  C118  A    
C118  C123  A    
C68   C74   A    
Cr2   O6    S    
H65   N2    S    
Cr3   O29   S    
C12   C121  A    
C34   C44   S    
C32   O7    A    
C127  H11   S    
C131  O32   A    
C26   O52   A    
C91   C99   A    
C36   H37   S    
Cr11  O13   S    
C67   H48   S    
H69   N4    S    
C85   C129  S    
C58   C62   A    
Cr12  O9    S    
H68   N3    S    
C10   H29   S    
C42   C47   S    
C71   H57   S    
C81   O27   A    
C112  C116  A    
C133  O34   A    
Cr7   O34   S    
C68   H53   S    
C4    C8    A    
C17   C125  A    
Cr2   O10   S    
C20   C33   S    
C19   C127  A    
C6    C140  A    
C2    C46   A    
C71   C73   A    
C82   O28   A    
C15   H33   S    
C94   C95   A    
C43   C86   S    
C44   C82   S    
C100  H56   S    
C105  H3    S    
C29   C92   S    
C106  H4    S    
C128  C137  A    
C129  O31   A    
C75   C130  S    
C32   O38   A    
Cr9   O24   S    
C22   C114  S    
C39   H1    S    
C47   C84   S    
C22   O41   A    
C61   H51   S    
Cr3   O7    S    
C27   C90   S    
Cr8   O9    S    
C14   C122  A    
Cr6   O23   S    
C92   C96   A    
C36   C40   S    
C86   H40   S    
C20   C124  A    
C33   O39   A    
Cr7   O43   S    
C25   O43   A    
Cr1   O1    S    
C37   C38   S    
C132  O23   A    
C76   C80   A    
C81   O22   A    
Cr1   O40   S    
C137  H21   S    
C43   C81   S    
C54   C89   A    
Br1   C55   S    
Br2   C56   S    
C90   C94   A    
Br4   C58   S    
C38   C42   S    
C2    C60   A    
C51   C87   A    
C74   C79   A    
Cr5   O10   S    
C73   N4    S    
Cr2   O32   S    
C83   O29   A    
C93   C98   A    
C57   C88   A    
C84   O26   A    
C120  C124  A    
Cr12  O27   S    
C64   O20   A    
Cr6   O38   S    
C88   C132  S    
C7    H26   S    
H63   N1    S    
C28   O50   A    
C126  C135  A    
C11   H30   S    
C59   C130  A    
C108  C119  S    
Cr12  O52   S    
C33   O8    A    
C17   C30   S    
C101  H67   S    
C60   H50   S    
C64   O16   A    
C94   C103  A    
Cr5   O41   S    
C131  O12   A    
C103  C110  A    
C37   H38   S    
C62   H52   S    
C126  H10   S    
C41   C45   S    
C129  O1    A    
C45   C108  S    
C98   C106  A    
C128  H13   S    
C17   C121  A    
C104  C111  A    
C19   C123  A    
C66   H47   S    
C12   H31   S    
Cr7   O13   S    
C24   C49   A    
C101  C102  A    
C140  H16   S    
H64   N2    S    
C139  H15   S    
C34   C36   S    
Cr5   O12   S    
C14   H32   S    
C65   C71   A    
C80   H61   S    
C35   C50   A    
C87   C131  S    
C59   H49   S    
C99   C100  A    
C6    H25   S    
C4    C138  A    
C13   C53   S    
C28   O3    A    
Cr3   O3    S    
C36   C43   S    
C133  O35   A    
C117  C139  A    
C135  H19   S    
C118  C140  A    
C3    C120  A    
Cr7   O17   S    
C115  C120  A    
C25   O48   A    
C3    C7    A    
C18   C31   S    
C26   C91   S    
Cr1   O14   S    
C30   O36   A    
C46   C65   A    
C16   C124  A    
C55   C85   A    
C18   C122  A    
C104  H2    S    
C28   C93   S    
C111  H8    S    
C30   O5    A    
C20   C128  A    
C113  C117  A    
C109  H6    S    
C125  C134  A    
C2    C64   S    
Cr5   O15   S    
Cr9   O10   S    
C75   O17   A    
C31   O6    A    
C42   H34   S    
C112  C134  A    
Br3   C57   S    
Cr9   O49   S    
C69   H54   S    
C116  C138  A    
C50   C85   A    
C10   C15   A    
C23   O47   A    
C132  O33   A    
Cr4   O4    S    
C39   C97   S    
C86   C97   S    
Cr11  O48   S    
C54   C80   A    
C1    C24   S    
C77   H58   S    
C52   C88   A    
C103  H72   S    
C72   N3    S    
C96   C98   A    
Cr1   O9    S    
C51   C78   A    
C106  C109  A    
Cr10  O25   S    
C23   O42   A    
C25   C112  S    
H66   N3    S    
C34   H36   S    
C53   O19   A    
C40   C86   S    
C56   C87   A    
C92   C102  A    
C26   O45   A    
C35   C63   A    
C72   C77   A    
C13   C61   A    
C46   C51   A    
C5    H24   S    
C117  C122  A    
Cr8   O22   S    
Cr11  O21   S    
Cr7   O39   S    
C110  H7    S    
C3    H17   S    
C15   C123  A    
C69   C76   A    
C21   O40   A    
C89   C133  S    
C41   H23   S    
C38   C45   S    
C4    H22   S    
C65   H46   S    
C66   C68   A    
C48   C52   A    
