data_mof_unit_40883.cif
_audit_creation_date              2012-12-10T17:09:56-0500
_audit_creation_method            fapswitch 2.2
_symmetry_space_group_name_H-M    P1
_symmetry_Int_Tables_number       1
_space_group_crystal_system       triclinic
_cell_length_a                    10.803535
_cell_length_b                    12.993858
_cell_length_c                    11.673317
_cell_angle_alpha                 99.816864
_cell_angle_beta                  93.223198
_cell_angle_gamma                 89.634559
_cell_volume                      1612.13849052

loop_
_atom_site_label
_atom_site_type_symbol
_atom_type_description
_atom_site_fract_x
_atom_site_fract_y
_atom_site_fract_z
_atom_type_partial_charge
C1    C     C_R   0.499234 0.299100 0.478679 0.880393
C2    C     C_R   0.063728 0.603307 0.533630 0.002816
C3    C     C_R   0.128088 0.506492 0.504758 -0.252574
C4    C     C_R   0.062586 0.410937 0.476272 0.409160
C5    C     C_R   0.934276 0.411536 0.472583 -0.247574
C6    C     C_R   0.870133 0.504759 0.497763 -0.138498
C7    C     C_R   0.511775 0.814060 0.532998 -0.063398
C8    C     C_R   0.498738 0.185688 0.466338 -0.015880
C9    C     C_R   0.476188 0.015414 0.345203 -0.213645
C10   C     C_R   0.477660 0.123541 0.356263 -0.136217
C11   C     C_R   0.518896 0.139069 0.565361 -0.235048
C12   C     C_R   0.262307 0.502871 0.501435 1.019087
C13   C     C_R   0.517695 0.030982 0.555002 0.170193
C14   C     C_R   0.495897 0.968711 0.444078 0.165418
C15   C     C_R   0.493392 0.860688 0.433829 -0.248660
C16   C     C_R   0.534547 0.876084 0.642900 -0.221818
C17   C     C_R   0.537476 0.984212 0.653848 -0.203199
C18   C     C_R   0.389528 0.398191 0.022170 -0.326915
C19   C     C_R   0.399395 0.408315 0.144281 0.095029
C20   C     C_R   0.546628 0.544652 0.156842 0.030874
C21   C     C_R   0.539839 0.537209 0.034058 0.068004
C22   C     C_R   0.460139 0.462898 0.965937 0.060319
C23   C     C_R   0.505909 0.700762 0.521097 0.847984
C24   C     C_R   0.453315 0.455427 0.843182 0.034903
C25   C     C_R   0.600718 0.591669 0.855630 0.098367
C26   C     C_R   0.610522 0.601875 0.977779 -0.328551
C27   C     C_R   0.737186 0.498680 0.498884 0.797145
C28   C     C_R   0.124456 0.701868 0.569252 0.415792
C29   C     C_R   0.053972 0.794005 0.591855 -0.206524
C30   C     C_R   0.925677 0.790483 0.582085 -0.186371
C31   C     C_R   0.865130 0.695315 0.551061 -0.163553
C32   C     C_R   0.932327 0.601188 0.527467 0.038969
Cu1   Cu    Cu3+1 0.509250 0.507730 0.615930 0.985661
Cu2   Cu    Cu3+1 0.490750 0.492270 0.384070 0.980850
H1    H     H_    0.554602 0.031121 0.739325 0.141973
H2    H     H_    0.461585 0.158395 0.278833 0.165629
H3    H     H_    0.535500 0.186667 0.650604 0.153004
H4    H     H_    0.391890 0.398772 0.789962 0.146702
H5    H     H_    0.655361 0.641992 0.813148 0.123943
H6    H     H_    0.327330 0.340094 0.972250 0.154856
H7    H     H_    0.672772 0.659937 0.027680 0.141702
H8    H     H_    0.344956 0.357837 0.186565 0.172009
H9    H     H_    0.608007 0.601333 0.210070 0.121385
H10   H     H_    0.098931 0.869285 0.617895 0.142273
H11   H     H_    0.872684 0.861904 0.599716 0.165008
H12   H     H_    0.765013 0.696330 0.545355 0.123786
H13   H     H_    0.883059 0.338690 0.451797 0.192124
H14   H     H_    0.475901 0.813193 0.348653 0.155030
H15   H     H_    0.549636 0.841129 0.720365 0.161381
H16   H     H_    0.459310 0.968468 0.259708 0.140742
N1    N     N_R   0.523180 0.519350 0.790130 -0.187280
N2    N     N_R   0.476820 0.480650 0.209890 -0.190763
O1    O     O_R   0.506570 0.354460 0.582000 -0.592038
O2    O     O_R   0.490940 0.341410 0.386200 -0.588068
O3    O     O_R   0.327470 0.506530 0.597920 -0.544090
O4    O     O_R   0.311840 0.493480 0.402120 -0.567330
O5    O     O_R   0.509060 0.658590 0.613800 -0.579614
O6    O     O_R   0.493430 0.645540 0.418000 -0.595810
O7    O     O_R   0.688160 0.506520 0.597880 -0.589179
O8    O     O_R   0.672530 0.493470 0.402080 -0.589132
S1    S     S_3+6 0.138504 0.288303 0.450546 -0.025538
O9    O     O_2   0.211482 0.281132 0.343693 -0.331856
O10   O     O_2   0.224928 0.278742 0.553627 -0.331684
O11   O     O_3   0.035061 0.189762 0.430734 -0.542439
H17   H     H_    0.085652 0.125346 0.419468 0.376783
O12   O     O_3   0.251525 0.707756 0.584700 -0.754047
H18   H     H_    0.276649 0.780818 0.616230 0.318001

loop_
_geom_bond_atom_site_label_1
_geom_bond_atom_site_label_2
_ccdc_geom_bond_type
Cu1   O3    S    
S1    O11   S    
C28   O12   S    
C9    C14   A    
C25   N1    A    
Cu2   O4    S    
C29   C30   A    
C1    O1    A    
C13   C14   A    
Cu1   N1    S    
C1    C8    S    
C2    C28   A    
C9    C10   A    
C30   H11   S    
Cu2   N2    S    
C6    C27   S    
C7    C23   S    
C19   H8    S    
C13   C17   A    
C1    O2    A    
C31   C32   A    
O11   H17   S    
C20   C21   A    
C24   N1    A    
C7    C15   A    
C2    C3    A    
Cu1   O7    S    
C27   O7    A    
C21   C22   A    
C25   H5    S    
Cu2   O8    S    
C11   C13   A    
C30   C31   A    
C15   H14   S    
C8    C11   A    
C23   O5    A    
C5    C6    A    
C19   N2    A    
C2    C32   A    
C28   C29   A    
C12   O4    A    
C21   C26   A    
Cu1   Cu2   S    
Cu2   O2    S    
C23   O6    A    
C27   O8    A    
C29   H10   S    
Cu1   O1    S    
S1    O9    D    
C8    C10   A    
Cu2   O6    S    
C22   C24   A    
C12   O3    A    
C16   C17   A    
C24   H4    S    
C5    H13   S    
C20   H9    S    
O12   H18   S    
C16   H15   S    
C20   N2    A    
C18   C19   A    
C11   H3    S    
C18   H6    S    
C14   C15   A    
C7    C16   A    
C6    C32   A    
Cu1   O5    S    
C3    C12   S    
C17   H1    S    
C25   C26   A    
C18   C22   A    
C4    S1    S    
S1    O10   D    
C9    H16   S    
C3    C4    A    
C26   H7    S    
C4    C5    A    
C10   H2    S    
C31   H12   S    
