data_mof_unit_62106.cif
_audit_creation_date              2012-10-26T19:44:25-0400
_audit_creation_method            fapswitch 2.2
_symmetry_space_group_name_H-M    P1
_symmetry_Int_Tables_number       1
_space_group_crystal_system       triclinic
_cell_length_a                    10.879357
_cell_length_b                    11.727391
_cell_length_c                    10.446016
_cell_angle_alpha                 90.0002
_cell_angle_beta                  89.66473
_cell_angle_gamma                 90.000065
_cell_volume                      1332.74752466

loop_
_atom_site_label
_atom_site_type_symbol
_atom_type_description
_atom_site_fract_x
_atom_site_fract_y
_atom_site_fract_z
_atom_type_partial_charge
C1    C     C_R   0.500000 0.283270 0.500000 0.533904
C2    C     C_R   0.499999 0.716716 0.500000 0.567518
C3    C     C_1   0.500000 0.161912 0.499999 -0.005613
C4    C     C_3   0.068056 0.419228 0.614319 -0.155113
C5    C     C_3   0.073239 0.438908 0.374358 -0.152657
C6    C     C_3   0.926758 0.438989 0.625690 -0.152656
C7    C     C_3   0.931941 0.419155 0.385746 -0.155117
C8    C     C_1   0.499999 0.059696 0.500000 -0.015352
C9    C     C_3   0.072312 0.623620 0.513667 -0.065447
C10   C     C_3   0.927689 0.623612 0.486236 -0.065444
C11   C     C_1   0.130093 0.425287 0.740575 0.254121
C12   C     C_3   0.121985 0.496207 0.501606 -0.035627
C13   C     C_1   0.108919 0.501332 0.255714 0.260650
C14   C     C_1   0.891076 0.501487 0.744286 0.260669
C15   C     C_1   0.869899 0.425136 0.259489 0.254098
C16   C     C_1   0.101689 0.668377 0.643082 0.218408
C17   C     C_1   0.139594 0.702707 0.426743 0.207834
C18   C     C_1   0.860407 0.702752 0.573100 0.207819
C19   C     C_1   0.898313 0.668290 0.356786 0.218440
C20   C     C_3   0.878014 0.496207 0.498397 -0.035631
C21   C     C_1   0.499999 0.838045 0.500000 0.028600
C22   C     C_1   0.499999 0.940248 0.500000 -0.000542
C23   C     C_R   0.259616 0.494121 0.500583 0.530425
C24   C     C_R   0.740384 0.494121 0.499418 0.530434
C25   C     C_1   0.499994 0.500000 0.071998 0.161272
C26   C     C_1   0.500006 0.500000 0.928002 0.161262
Cu1   Cu    Cu3+1 0.500000 0.500000 0.625300 1.058489
Cu2   Cu    Cu3+1 0.500000 0.500000 0.374700 1.058510
H1    H     H_    0.081869 0.328611 0.585664 0.094044
H2    H     H_    0.117011 0.353416 0.364653 0.104192
H3    H     H_    0.882987 0.353502 0.635463 0.104216
H4    H     H_    0.918127 0.328556 0.414473 0.094040
N1    N     N_1   0.500000 0.499990 0.186410 -0.172688
N2    N     N_1   0.875176 0.703632 0.256271 -0.219951
N3    N     N_1   0.500000 0.499990 0.813590 -0.172699
N4    N     N_1   0.177870 0.429523 0.839209 -0.233298
N5    N     N_1   0.136657 0.549184 0.163007 -0.202820
N6    N     N_1   0.863336 0.549395 0.836956 -0.202818
N7    N     N_1   0.822117 0.429311 0.160853 -0.233352
N8    N     N_1   0.124827 0.703780 0.743570 -0.219982
N9    N     N_1   0.192101 0.764519 0.359497 -0.248487
N10   N     N_1   0.807902 0.764604 0.640300 -0.248529
O1    O     O_R   0.500000 0.337200 0.605810 -0.497511
O2    O     O_R   0.500000 0.337200 0.394190 -0.497503
O3    O     O_R   0.317690 0.499990 0.605810 -0.487376
O4    O     O_R   0.317690 0.499990 0.394190 -0.494524
O5    O     O_R   0.682310 0.499990 0.605810 -0.494540
O6    O     O_R   0.682310 0.499990 0.394190 -0.487364
O7    O     O_R   0.500000 0.662810 0.605810 -0.478148
O8    O     O_R   0.500000 0.662810 0.394190 -0.478158

loop_
_geom_bond_atom_site_label_1
_geom_bond_atom_site_label_2
_ccdc_geom_bond_type
C8    C22   S    
C23   O3    A    
C2    O7    A    
C6    C14   S    
C6    C20   S    
C9    C10   S    
C1    O2    A    
C13   N5    T    
C4    H1    S    
C25   N1    T    
C10   C19   S    
C15   N7    T    
Cu1   O3    S    
C2    C21   S    
C7    C15   S    
C6    H3    S    
C23   O4    A    
C21   C22   T    
C4    C11   S    
C12   C23   S    
Cu2   O4    S    
C1    O1    A    
Cu2   O8    S    
C16   N8    T    
C9    C17   S    
C11   N4    T    
C9    C16   S    
C10   C18   S    
Cu2   N1    S    
C3    C8    T    
C18   N10   T    
C9    C12   S    
C17   N9    T    
C4    C12   S    
C14   N6    T    
C24   O6    A    
Cu1   O1    S    
C26   N3    T    
C5    C12   S    
C4    C6    S    
C5    H2    S    
Cu1   O5    S    
Cu1   Cu2   S    
C5    C7    S    
C20   C24   S    
Cu2   O6    S    
C7    H4    S    
C2    O8    A    
Cu1   N3    S    
C25   C26   S    
C24   O5    A    
C5    C13   S    
C7    C20   S    
Cu1   O7    S    
C10   C20   S    
C1    C3    S    
C19   N2    T    
Cu2   O2    S    
