data_mof_unit_17457.cif
_audit_creation_date              2012-12-10T17:49:31-0500
_audit_creation_method            fapswitch 2.2
_symmetry_space_group_name_H-M    P1
_symmetry_Int_Tables_number       1
_space_group_crystal_system       triclinic
_cell_length_a                    14.698777
_cell_length_b                    15.079384
_cell_length_c                    15.857393
_cell_angle_alpha                 74.439107
_cell_angle_beta                  101.943705
_cell_angle_gamma                 115.674733
_cell_volume                      3034.93178865

loop_
_atom_site_label
_atom_site_type_symbol
_atom_type_description
_atom_site_fract_x
_atom_site_fract_y
_atom_site_fract_z
_atom_type_partial_charge
C1    C     C_R   0.880405 0.313509 0.511213 0.872616
C2    C     C_3   0.020712 0.421120 0.072414 -0.463940
C3    C     C_3   0.003903 0.513044 0.080680 -0.057932
C4    C     C_3   0.089990 0.612375 0.037007 0.170433
C5    C     C_3   0.102890 0.603532 0.943248 0.218884
C6    C     C_1   0.002859 0.506975 0.174329 0.121196
C7    C     C_1   0.002638 0.507276 0.822915 0.115522
C8    C     C_1   0.000648 0.502853 0.748236 0.006503
C9    C     C_R   0.813138 0.208723 0.508706 -0.123701
C10   C     C_R   0.188159 0.793756 0.475947 -0.049428
C11   C     C_R   0.786036 0.041840 0.497199 0.463463
C12   C     C_R   0.999633 0.499901 0.659385 0.873429
C13   C     C_R   0.850931 0.141336 0.500681 -0.222820
C14   C     C_R   0.708734 0.179410 0.503510 -0.167013
C15   C     C_R   0.641085 0.081082 0.497146 -0.012486
C16   C     C_R   0.681695 0.008244 0.507799 -0.098928
C17   C     C_R   0.534442 0.053002 0.484136 0.095881
C18   C     C_R   0.468968 0.949681 0.494568 0.004760
C19   C     C_R   0.512665 0.878178 0.524152 -0.245016
C20   C     C_R   0.617470 0.906354 0.533581 0.451808
C21   C     C_R   0.491540 0.125357 0.458862 -0.146415
C22   C     C_R   0.387396 0.097009 0.449271 -0.179080
C23   C     C_R   0.119936 0.687067 0.484983 0.796934
C24   C     C_R   0.322081 0.995966 0.460455 0.144380
C25   C     C_R   0.361915 0.921310 0.480659 0.117531
C26   C     C_R   0.216893 0.968880 0.450056 -0.150891
C27   C     C_R   0.150297 0.868256 0.458778 -0.141095
C28   C     C_R   0.292928 0.820815 0.484802 -0.196146
C29   C     C_R   0.709411 0.644274 0.327517 -0.176348
C30   C     C_R   0.791963 0.618904 0.362082 0.024100
C31   C     C_R   0.718908 0.531369 0.497800 0.534075
C32   C     C_R   0.639037 0.568306 0.467853 -0.133870
C33   C     C_R   0.630492 0.617390 0.378670 -0.013131
C34   C     C_R   0.000380 0.500257 0.340536 0.796163
C35   C     C_R   0.562849 0.552644 0.520823 0.131202
C36   C     C_R   0.466064 0.550520 0.481050 0.003160
C37   C     C_R   0.458155 0.594711 0.391370 -0.270919
C38   C     C_R   0.542193 0.636675 0.342712 0.447144
C39   C     C_R   0.581915 0.547109 0.612129 0.011390
C40   C     C_R   0.502648 0.500736 0.664675 -0.113294
C41   C     C_R   0.402804 0.472373 0.625725 0.077651
C42   C     C_R   0.383001 0.506215 0.534493 0.005227
C43   C     C_R   0.322991 0.410758 0.676920 -0.296158
C44   C     C_R   0.222928 0.387983 0.639255 0.607594
C45   C     C_3   0.005981 0.414075 0.974782 -0.395334
C46   C     C_R   0.281341 0.493668 0.503034 -0.045771
C47   C     C_3   0.907027 0.524609 0.925528 0.095487
C48   C     C_3   0.898520 0.505240 0.027290 0.171300
C49   C     C_1   0.001959 0.502725 0.250718 -0.065873
C50   C     C_3   0.005555 0.513725 0.913993 -0.081007
Cu1   Cu    Cu3+1 0.081750 0.475690 0.522550 1.037961
Cu2   Cu    Cu3+1 0.918250 0.524310 0.477450 1.055565
H1    H     H_    0.966175 0.350268 0.109145 0.196956
H2    H     H_    0.060619 0.671648 0.023610 0.178739
H3    H     H_    0.318782 0.762063 0.492749 0.158880
H4    H     H_    0.932618 0.350751 0.961581 0.185797
H5    H     H_    0.467224 0.799675 0.545988 0.194097
H6    H     H_    0.536565 0.205089 0.443827 0.156669
H7    H     H_    0.262872 0.530351 0.437640 0.150424
H8    H     H_    0.519508 0.486044 0.735624 0.169966
H9    H     H_    0.707897 0.683199 0.259675 0.220609
H10   H     H_    0.388857 0.602223 0.359410 0.191073
H11   H     H_    0.338901 0.376959 0.744666 0.200172
H12   H     H_    0.840621 0.462678 0.899785 0.118810
N1    N     N_R   0.795410 0.560790 0.443550 -0.234266
N2    N     N_R   0.204590 0.439170 0.556520 -0.235467
O1    O     O_R   0.977910 0.338120 0.529720 -0.530932
O2    O     O_R   0.839850 0.379180 0.491640 -0.549181
O3    O     O_R   0.069060 0.479460 0.639610 -0.547695
O4    O     O_R   0.931000 0.520530 0.601530 -0.502617
O5    O     O_R   0.160150 0.620820 0.508360 -0.594273
O6    O     O_R   0.022090 0.661880 0.470280 -0.588219
O7    O     O_R   0.069000 0.479470 0.398470 -0.600370
O8    O     O_R   0.930940 0.520540 0.360390 -0.577203
H13   H     H_    0.066287 0.395493 0.961330 0.270864
H14   H     H_    0.097762 0.426825 0.102324 0.269525
S1    S     S_3+6 0.663887 0.818621 0.604221 0.038060
O9    O     O_2   0.686710 0.763648 0.550964 -0.253686
O10   O     O_2   0.758602 0.872209 0.659552 -0.239736
O11   O     O_3   0.575638 0.735008 0.671109 -0.542130
H15   H     H_    0.612628 0.702749 0.719671 0.375974
H16   H     H_    0.069398 0.848972 0.451339 0.184802
H17   H     H_    0.357750 0.154830 0.431276 0.161151
S2    S     S_3+6 0.833198 0.974433 0.454480 0.060487
O12   O     O_2   0.883162 0.918746 0.527989 -0.203479
O13   O     O_2   0.748714 0.902201 0.403760 -0.232654
O14   O     O_3   0.920438 0.056043 0.385977 -0.545470
H18   H     H_    0.946907 0.014442 0.367885 0.375345
H19   H     H_    0.930259 0.167646 0.492241 0.228164
H20   H     H_    0.681565 0.233676 0.507718 0.200874
H21   H     H_    0.186147 0.025627 0.435282 0.160293
S3    S     S_3+6 0.532530 0.712302 0.237110 0.063812
O15   O     O_2   0.628596 0.805948 0.225546 -0.261461
O16   O     O_2   0.516152 0.654361 0.167669 -0.217517
O17   O     O_3   0.434595 0.745468 0.226369 -0.464916
H22   H     H_    0.449730 0.806449 0.178993 0.414921
S4    S     S_3+6 0.126580 0.279155 0.692536 0.061616
O18   O     O_2   0.173229 0.227489 0.772615 -0.263281
O19   O     O_2   0.049567 0.302758 0.720600 -0.274504
O20   O     O_3   0.068140 0.200116 0.622520 -0.526359
H23   H     H_    0.019193 0.138964 0.656803 0.393644
H24   H     H_    0.852352 0.643098 0.321405 0.170051
S5    S     S_3+6 0.708961 0.438450 0.600371 -0.001718
O21   O     O_2   0.599091 0.376467 0.614453 -0.325506
O22   O     O_2   0.752876 0.364214 0.607205 -0.278480
O23   O     O_3   0.768793 0.497684 0.684683 -0.527521
H25   H     H_    0.745046 0.446310 0.738356 0.376957
S6    S     S_3+6 0.896228 0.638989 0.856661 0.073566
O24   O     O_2   0.943765 0.725131 0.903802 -0.198866
O25   O     O_2   0.946551 0.670163 0.773922 -0.268191
O26   O     O_3   0.772697 0.615923 0.826752 -0.473439
H26   H     H_    0.772168 0.676473 0.782880 0.395661
H27   H     H_    0.658141 0.575868 0.643233 0.213721
H28   H     H_    0.845162 0.425062 0.044941 0.115041
S7    S     S_3+6 0.836674 0.568885 0.062426 0.067496
O27   O     O_2   0.748589 0.575344 0.997361 -0.167393
O28   O     O_2   0.796241 0.508347 0.148867 -0.308268
O29   O     O_3   0.918446 0.684698 0.076842 -0.480833
H29   H     H_    0.881217 0.707607 0.105731 0.381670
S8    S     S_3+6 0.220821 0.596153 0.932154 0.084852
O30   O     O_2   0.212480 0.565131 0.847455 -0.293034
O31   O     O_2   0.306886 0.697671 0.929497 -0.168407
O32   O     O_3   0.248910 0.512643 0.015055 -0.482709
H30   H     H_    0.316634 0.519942 0.005847 0.404011
H31   H     H_    0.105073 0.673997 0.896656 0.147154
S9    S     S_3+6 0.204448 0.663577 0.109415 0.097545
O33   O     O_2   0.280758 0.755996 0.059302 -0.165655
O34   O     O_2   0.179163 0.695126 0.180793 -0.300521
O35   O     O_3   0.256103 0.579599 0.156404 -0.421902
H32   H     H_    0.223148 0.542195 0.211146 0.333647

loop_
_geom_bond_atom_site_label_1
_geom_bond_atom_site_label_2
_ccdc_geom_bond_type
C10   C27   A    
C12   O3    A    
S9    O33   D    
C40   H8    S    
C38   S3    S    
C46   H7    S    
O17   H22   S    
C41   C42   A    
C36   C42   A    
C19   C20   A    
S2    O14   S    
C9    C14   A    
C3    C6    S    
S4    O18   D    
C43   H11   S    
C7    C8    T    
S1    O9    D    
C19   H5    S    
C25   C28   A    
C26   C27   A    
C37   C38   A    
C20   S1    S    
C36   C37   A    
S2    O13   D    
C46   N2    A    
Cu2   O8    S    
O23   H25   S    
C15   C16   A    
C29   C33   A    
C3    C48   S    
C1    O2    A    
S6    O24   D    
C44   S4    S    
C15   C17   A    
C18   C19   A    
C42   C46   A    
C9    C13   A    
O29   H29   S    
C14   H20   S    
C44   N2    A    
C31   C32   A    
C45   H4    S    
S7    O28   D    
Cu2   O2    S    
S8    O32   S    
C16   C20   A    
C4    H2    S    
C21   C22   A    
C41   C43   A    
C18   C25   A    
Cu1   O5    S    
S4    O19   D    
C28   H3    S    
S8    O31   D    
C37   H10   S    
C47   C50   S    
S1    O10   D    
C2    C45   S    
C29   H9    S    
C5    S8    S    
Cu1   Cu2   S    
C32   C35   A    
C23   O5    A    
O32   H30   S    
C1    C9    S    
S2    O12   D    
C47   H12   S    
C4    C5    S    
S9    O35   S    
C39   H27   S    
C26   H21   S    
S3    O17   S    
C17   C21   A    
C35   C36   A    
C31   S5    S    
C35   C39   A    
C43   C44   A    
C29   C30   A    
Cu2   O6    S    
C11   C16   A    
C47   C48   S    
C8    C12   S    
S7    O29   S    
C30   H24   S    
S3    O16   D    
C17   C18   A    
S5    O22   D    
Cu1   O1    S    
C24   C25   A    
C34   O8    A    
C48   S7    S    
C40   C41   A    
C11   S2    S    
C22   C24   A    
C5    C50   S    
C3    C4    S    
C39   C40   A    
S4    O20   S    
C2    H14   S    
S8    O30   D    
C48   H28   S    
O35   H32   S    
S1    O11   S    
C10   C28   A    
C31   N1    A    
C12   O4    A    
C34   C49   S    
S9    O34   D    
O26   H26   S    
C13   H19   S    
C23   O6    A    
C27   H16   S    
Cu1   O7    S    
C7    C50   S    
C24   C26   A    
O11   H15   S    
C2    H1    S    
C10   C23   S    
C33   C38   A    
S6    O26   S    
C4    S9    S    
C45   H13   S    
C22   H17   S    
C2    C3    S    
C21   H6    S    
C32   C33   A    
C11   C13   A    
C45   C50   S    
S3    O15   D    
C1    O1    A    
S6    O25   D    
S5    O23   S    
C6    C49   T    
C30   N1    A    
Cu2   O4    S    
C34   O7    A    
O14   H18   S    
C47   S6    S    
C5    H31   S    
S5    O21   D    
C14   C15   A    
O20   H23   S    
Cu1   O3    S    
Cu1   N2    S    
Cu2   N1    S    
S7    O27   D    
