data_mof_unit_51783.cif
_audit_creation_date              2012-12-10T17:33:53-0500
_audit_creation_method            fapswitch 2.2
_symmetry_space_group_name_H-M    P1
_symmetry_Int_Tables_number       1
_space_group_crystal_system       triclinic
_cell_length_a                    10.660447
_cell_length_b                    12.019618
_cell_length_c                    12.868928
_cell_angle_alpha                 93.200198
_cell_angle_beta                  90.765723
_cell_angle_gamma                 85.903301
_cell_volume                      1642.10278921

loop_
_atom_site_label
_atom_site_type_symbol
_atom_type_description
_atom_site_fract_x
_atom_site_fract_y
_atom_site_fract_z
_atom_type_partial_charge
C1    C     C_R   0.497458 0.522050 0.700054 0.943954
C2    C     C_3   0.122171 0.500405 0.510140 -0.000553
C3    C     C_3   0.070271 0.525332 0.399847 -0.492298
C4    C     C_3   0.066807 0.594845 0.589162 -0.214760
C5    C     C_R   0.514347 0.465542 0.188313 -0.107209
C6    C     C_R   0.504091 0.536260 0.810633 -0.033070
C7    C     C_R   0.585972 0.630617 0.963051 -0.142181
C8    C     C_R   0.563701 0.626096 0.857090 -0.162023
C9    C     C_R   0.462148 0.452977 0.869013 -0.182526
C10   C     C_R   0.482190 0.457132 0.975082 0.146065
C11   C     C_R   0.544365 0.547040 0.023997 0.137020
C12   C     C_R   0.742178 0.500216 0.502778 0.956042
C13   C     C_R   0.563431 0.549862 0.131866 -0.066135
C14   C     C_R   0.458226 0.375361 0.138310 -0.180689
C15   C     C_R   0.442420 0.371039 0.031880 -0.161956
C16   C     C_R   0.362308 0.957476 0.420701 -0.294477
C17   C     C_R   0.378113 0.840659 0.426542 0.059447
C18   C     C_R   0.562374 0.856210 0.529288 -0.027840
C19   C     C_R   0.550241 0.973493 0.525173 0.098980
C20   C     C_R   0.448808 0.025472 0.471010 0.089860
C21   C     C_R   0.437457 0.143843 0.468778 -0.029141
C22   C     C_R   0.622392 0.155910 0.572747 0.145764
C23   C     C_R   0.506962 0.478272 0.299849 0.885843
C24   C     C_R   0.637195 0.039307 0.574800 -0.383719
C25   C     C_R   0.258204 0.500394 0.504699 0.855096
C26   C     C_3   0.938267 0.387371 0.544528 -0.355047
C27   C     C_3   0.080608 0.382574 0.536161 0.131222
C28   C     C_3   0.926699 0.520011 0.396730 0.035312
C29   C     C_3   0.919997 0.598574 0.584243 -0.228701
C30   C     C_3   0.878753 0.500748 0.507793 0.006195
H1    H     H_    0.904243 0.315664 0.496375 0.179386
H2    H     H_    0.092173 0.676087 0.560493 0.106736
H3    H     H_    0.884040 0.601109 0.370598 0.139798
H4    H     H_    0.094224 0.609871 0.378748 0.180165
H5    H     H_    0.421015 0.310882 0.182138 0.167624
H6    H     H_    0.637465 0.698864 0.995060 0.191827
H7    H     H_    0.396227 0.301854 0.994241 0.164686
H8    H     H_    0.598414 0.689816 0.810853 0.155739
H9    H     H_    0.415814 0.383714 0.831323 0.184731
H10   H     H_    0.360709 0.184735 0.426189 0.131481
H11   H     H_    0.910997 0.376258 0.625878 0.267451
H12   H     H_    0.283033 0.994041 0.377839 0.152781
H13   H     H_    0.716007 0.000045 0.616665 0.140187
H14   H     H_    0.310676 0.788610 0.388361 0.134374
H15   H     H_    0.639380 0.815843 0.572068 0.111796
H16   H     H_    0.108474 0.322285 0.470117 0.148501
H17   H     H_    0.115337 0.464823 0.340561 0.214400
H18   H     H_    0.887854 0.677768 0.547714 0.087988
N1    N     N_R   0.523380 0.207800 0.519350 -0.111482
N2    N     N_R   0.476620 0.792180 0.480650 -0.105889
O1    O     O_R   0.506240 0.421700 0.658830 -0.544877
O2    O     O_R   0.491240 0.609310 0.646410 -0.653633
O3    O     O_R   0.692710 0.406190 0.506230 -0.599909
O4    O     O_R   0.677700 0.593810 0.493810 -0.658941
O5    O     O_R   0.508760 0.390690 0.353590 -0.612889
O6    O     O_R   0.493760 0.578300 0.341170 -0.614281
O7    O     O_R   0.322300 0.406190 0.506190 -0.607213
O8    O     O_R   0.307290 0.593810 0.493770 -0.651751
Zn1   Zn    Zn3+2 0.510020 0.374730 0.508290 1.022787
Zn2   Zn    Zn3+2 0.489980 0.625270 0.491710 0.949439
C31   C     C_2   0.634822 0.638262 0.186629 0.437029
H19   H     H_    0.708878 0.614842 0.241361 0.093276
O9    O     O_2   0.605335 0.737209 0.176965 -0.573374
C32   C     C_2   0.719890 0.216775 0.628564 0.461528
H20   H     H_    0.818012 0.189366 0.616241 0.027024
O10   O     O_2   0.693295 0.289088 0.696202 -0.504179
Br1   Br    Br    0.158771 0.314929 0.658767 -0.468096
Br2   Br    Br    0.878167 0.406052 0.291803 -0.564738
C33   C     C_2   0.856556 0.609683 0.689782 0.504365
H21   H     H_    0.861861 0.686832 0.737128 0.042773
O11   O     O_2   0.800553 0.534382 0.723268 -0.543569
C34   C     C_2   0.128717 0.591502 0.696389 0.430285
H22   H     H_    0.214601 0.633576 0.710415 0.050440
O12   O     O_2   0.087526 0.540412 0.766282 -0.492256

loop_
_geom_bond_atom_site_label_1
_geom_bond_atom_site_label_2
_ccdc_geom_bond_type
C17   N2    A    
C16   C17   A    
C4    C29   S    
C2    C4    S    
C23   O5    A    
C29   C30   S    
O5    Zn1   S    
C2    C3    S    
C4    H2    S    
C11   C13   A    
C7    H6    S    
C7    C8    A    
C5    C13   A    
C19   C20   A    
C5    C23   S    
C9    H9    S    
N1    Zn1   S    
C16   C20   A    
N2    Zn2   S    
C32   H20   S    
C6    C9    A    
C21   N1    A    
C19   C24   A    
O3    Zn1   S    
C17   H14   S    
C13   C31   S    
C23   O6    A    
O4    Zn2   S    
C7    C11   A    
C1    O1    A    
C32   O10   D    
C5    C14   A    
C2    C27   S    
C12   O3    A    
C8    H8    S    
O8    Zn2   S    
C22   N1    A    
C27   H16   S    
C28   C30   S    
C3    C28   S    
C28   Br2   S    
C28   H3    S    
C26   C30   S    
C2    C25   S    
C29   C33   S    
C33   H21   S    
C26   C27   S    
C31   H19   S    
C1    O2    A    
C22   C24   A    
O7    Zn1   S    
C27   Br1   S    
C25   O8    A    
C29   H18   S    
C22   C32   S    
C1    C6    S    
C25   O7    A    
C18   H15   S    
C16   H12   S    
C4    C34   S    
O1    Zn1   S    
C20   C21   A    
C18   N2    A    
C34   O12   D    
C18   C19   A    
C10   C11   A    
C3    H17   S    
C14   H5    S    
C33   O11   D    
C24   H13   S    
C14   C15   A    
C15   H7    S    
C6    C8    A    
O2    Zn2   S    
C3    H4    S    
C12   C30   S    
C10   C15   A    
C26   H1    S    
C31   O9    D    
C12   O4    A    
O6    Zn2   S    
C26   H11   S    
C9    C10   A    
C34   H22   S    
C21   H10   S    
