data_mof_unit_49155.cif
_audit_creation_date              2012-12-10T17:53:14-0500
_audit_creation_method            fapswitch 2.2
_symmetry_space_group_name_H-M    P1
_symmetry_Int_Tables_number       1
_space_group_crystal_system       triclinic
_cell_length_a                    23.416642
_cell_length_b                    10.712723
_cell_length_c                    9.930188
_cell_angle_alpha                 90.246599
_cell_angle_beta                  89.152811
_cell_angle_gamma                 93.710079
_cell_volume                      2485.54090209

loop_
_atom_site_label
_atom_site_type_symbol
_atom_type_description
_atom_site_fract_x
_atom_site_fract_y
_atom_site_fract_z
_atom_type_partial_charge
C1    C     C_R   0.505722 0.261509 0.500217 0.863629
C2    C     C_R   0.963106 0.276702 0.558244 -0.155214
C3    C     C_R   0.022528 0.276834 0.561240 -0.158523
C4    C     C_R   0.056373 0.386752 0.532760 -0.015102
C5    C     C_R   0.030140 0.497494 0.501124 -0.019912
C6    C     C_R   0.063736 0.608316 0.472212 -0.016719
C7    C     C_R   0.037211 0.718170 0.441023 -0.155113
C8    C     C_R   0.977792 0.718122 0.438454 -0.158502
C9    C     C_R   0.116058 0.389142 0.534453 0.502726
C10   C     C_R   0.123248 0.605883 0.474988 0.504573
C11   C     C_R   0.238056 0.517668 0.624690 -0.100171
C12   C     C_R   0.389420 0.499831 0.500828 0.856877
C13   C     C_R   0.297379 0.518762 0.623664 -0.234401
C14   C     C_R   0.327144 0.498770 0.502485 -0.040099
C15   C     C_R   0.296908 0.477606 0.382591 -0.221406
C16   C     C_R   0.237633 0.476762 0.384014 -0.104382
C17   C     C_R   0.208402 0.496896 0.504895 0.330214
C18   C     C_R   0.762386 0.496021 0.371224 0.154719
C19   C     C_R   0.702872 0.497217 0.373417 -0.263484
C20   C     C_R   0.672916 0.499855 0.496835 -0.055953
C21   C     C_R   0.702901 0.501437 0.618179 -0.216591
C22   C     C_R   0.762090 0.500497 0.616132 -0.152902
C23   C     C_R   0.495898 0.739463 0.501425 0.888400
C24   C     C_R   0.791758 0.497870 0.493219 0.336606
C25   C     C_R   0.536695 0.122198 0.746683 -0.142125
C26   C     C_R   0.526767 0.063970 0.870795 -0.138487
C27   C     C_R   0.496063 0.948769 0.876799 -0.176107
C28   C     C_R   0.480210 0.886884 0.757948 -0.155684
C29   C     C_R   0.495549 0.939666 0.630420 0.104117
C30   C     C_R   0.515708 0.065119 0.626440 0.092524
C31   C     C_R   0.512296 0.129112 0.502552 -0.123303
C32   C     C_R   0.504334 0.063777 0.381750 -0.229277
C33   C     C_R   0.496309 0.936269 0.383331 -0.209147
C34   C     C_R   0.610618 0.500442 0.499047 0.881165
C35   C     C_R   0.492450 0.873066 0.506220 -0.125926
C36   C     C_R   0.430636 0.325685 0.150962 -0.245412
C37   C     C_R   0.399776 0.226125 0.093657 0.019118
C38   C     C_R   0.398201 0.216466 0.955454 0.085721
C39   C     C_R   0.426327 0.310001 0.873835 0.089847
C40   C     C_R   0.464713 0.408721 0.930862 0.101188
C41   C     C_R   0.465538 0.411864 0.075637 0.070252
C42   C     C_R   0.533344 0.584148 0.070521 0.156371
C43   C     C_R   0.533038 0.584145 0.927266 -0.191616
C44   C     C_R   0.884280 0.605870 0.465311 0.529162
C45   C     C_R   0.877060 0.388814 0.523466 0.512111
C46   C     C_R   0.936577 0.386524 0.526885 -0.018036
C47   C     C_R   0.970176 0.497390 0.498262 -0.021143
C48   C     C_R   0.943952 0.608180 0.466874 -0.021118
H1    H     H_    0.680375 0.495754 0.278794 0.162039
H2    H     H_    0.541256 0.110126 0.962487 0.137514
H3    H     H_    0.485277 0.906353 0.973407 0.132672
H4    H     H_    0.492912 0.887463 0.287684 0.169413
H5    H     H_    0.215077 0.533484 0.718009 0.136543
H6    H     H_    0.318924 0.461314 0.288054 0.160739
H7    H     H_    0.214315 0.460635 0.291523 0.135635
N1    N     N_R   0.852488 0.497330 0.493207 -0.349792
N2    N     N_R   0.147785 0.497441 0.505497 -0.361857
N3    N     N_R   0.499460 0.498800 0.142780 -0.104423
N4    N     N_R   0.499440 0.498720 0.857170 -0.110176
O1    O     O_R   0.500000 0.316780 0.614690 -0.616492
O2    O     O_2   0.843854 0.283794 0.549830 -0.550554
O3    O     O_2   0.142352 0.284414 0.564100 -0.551995
O4    O     O_2   0.156489 0.710577 0.447386 -0.547994
O5    O     O_R   0.500000 0.316750 0.385360 -0.643106
O6    O     O_R   0.416160 0.499970 0.614690 -0.605364
O7    O     O_R   0.416150 0.499950 0.385360 -0.644417
O8    O     O_R   0.500000 0.683250 0.614640 -0.631109
O9    O     O_R   0.500000 0.683220 0.385310 -0.594108
O10   O     O_R   0.583850 0.500050 0.614640 -0.625985
O11   O     O_R   0.583840 0.500030 0.385310 -0.600297
O12   O     O_2   0.858048 0.710995 0.436962 -0.550794
Zn1   Zn    Zn3+2 0.500000 0.500020 0.653130 0.945203
Zn2   Zn    Zn3+2 0.500000 0.499980 0.346870 0.954643
H8    H     H_    0.938095 0.190489 0.580610 0.195508
H9    H     H_    0.680747 0.503484 0.714605 0.165190
H10   H     H_    0.785100 0.502004 0.709999 0.144972
H11   H     H_    0.503497 0.111035 0.285587 0.173189
H12   H     H_    0.561237 0.211245 0.746073 0.162522
H13   H     H_    0.454546 0.799902 0.768196 0.167316
N5    N     N_3   0.569605 0.674067 0.140736 -0.393216
H14   H     H_    0.558957 0.763222 0.111645 0.159849
H15   H     H_    0.611812 0.663051 0.109449 0.164430
H16   H     H_    0.041804 0.190703 0.585728 0.192998
H17   H     H_    0.425367 0.332287 0.256273 0.230321
N6    N     N_3   0.367222 0.137299 0.176399 -0.458995
H18   H     H_    0.395272 0.096823 0.241724 0.194869
H19   H     H_    0.338331 0.185653 0.234841 0.196017
N7    N     N_3   0.363904 0.115883 0.894741 -0.467089
H20   H     H_    0.321537 0.120841 0.928077 0.214666
H21   H     H_    0.378581 0.031115 0.927234 0.213152
N8    N     N_3   0.408174 0.307228 0.738306 -0.351101
H22   H     H_    0.412940 0.218166 0.697534 0.206061
H23   H     H_    0.364283 0.320588 0.738285 0.180783
H24   H     H_    0.560001 0.652869 0.872330 0.156926
H25   H     H_    0.062222 0.804351 0.418509 0.195175
H26   H     H_    0.958519 0.804296 0.414126 0.193112
H27   H     H_    0.319839 0.535910 0.717175 0.160069
N9    N     N_3   0.793212 0.492228 0.245852 -0.442820
H28   H     H_    0.783665 0.570275 0.189582 0.199446
H29   H     H_    0.778092 0.412281 0.193339 0.187247

loop_
_geom_bond_atom_site_label_1
_geom_bond_atom_site_label_2
_ccdc_geom_bond_type
C42   N5    S    
C19   C20   A    
C8    H26   S    
C22   H10   S    
C42   N3    A    
C10   O4    S    
C7    C8    A    
C45   C46   A    
C2    C46   A    
C33   H4    S    
C5    C47   A    
C26   C27   A    
C29   C30   A    
C18   C24   A    
C5    C6    A    
C37   N6    S    
C28   C29   A    
C41   N3    A    
C18   C19   A    
C26   H2    S    
C30   C31   A    
O1    Zn1   S    
C15   C16   A    
C1    C31   S    
C43   H24   S    
C44   O12   S    
O8    Zn1   S    
C23   O8    A    
C28   H13   S    
C44   N1    A    
C32   H11   S    
C11   C17   A    
C31   C32   A    
C45   N1    A    
C16   C17   A    
O5    Zn2   S    
C34   O11   A    
C2    H8    S    
C43   N4    A    
N4    Zn1   S    
C20   C34   S    
C40   N4    A    
C21   C22   A    
C36   C41   A    
C39   N8    S    
C27   H3    S    
N6    H19   S    
C9    O3    S    
C15   H6    S    
C10   N2    A    
N5    H15   S    
C1    O1    A    
N8    H22   S    
N5    H14   S    
O9    Zn2   S    
N6    H18   S    
O7    Zn2   S    
C12   O7    A    
C25   H12   S    
C38   N7    S    
C23   O9    A    
O10   Zn1   S    
C8    C48   A    
C37   C38   A    
N8    H23   S    
C19   H1    S    
C47   C48   A    
O11   Zn2   S    
C20   C21   A    
C34   O10   A    
C40   C41   A    
N7    H21   S    
C23   C35   S    
C3    H16   S    
C22   C24   A    
C42   C43   A    
C3    C4    A    
C1    O5    A    
C39   C40   A    
C25   C30   A    
C21   H9    S    
C46   C47   A    
C36   C37   A    
C12   C14   S    
C4    C5    A    
C11   H5    S    
C6    C10   A    
C6    C7    A    
C24   N1    S    
O6    Zn1   S    
C7    H25   S    
C12   O6    A    
C29   C35   A    
N9    H29   S    
C32   C33   A    
C2    C3    A    
C25   C26   A    
C16   H7    S    
C11   C13   A    
C38   C39   A    
C36   H17   S    
C45   O2    S    
C33   C35   A    
C9    N2    A    
C13   H27   S    
N7    H20   S    
N9    H28   S    
C27   C28   A    
C14   C15   A    
C18   N9    S    
C4    C9    A    
C13   C14   A    
C44   C48   A    
N3    Zn2   S    
C17   N2    S    
