data_mof_unit_60032.cif
_audit_creation_date              2012-12-10T20:22:48-0500
_audit_creation_method            fapswitch 2.2
_symmetry_space_group_name_H-M    P1
_symmetry_Int_Tables_number       1
_space_group_crystal_system       triclinic
_cell_length_a                    25.660811
_cell_length_b                    36.285949
_cell_length_c                    22.221064
_cell_angle_alpha                 90.000492
_cell_angle_beta                  125.238139
_cell_angle_gamma                 90.000232
_cell_volume                      16899.2999282

loop_
_atom_site_label
_atom_site_type_symbol
_atom_type_description
_atom_site_fract_x
_atom_site_fract_y
_atom_site_fract_z
_atom_type_partial_charge
C1    C     C_R   0.858103 0.749984 0.999985 0.781496
C2    C     C_3   0.241674 0.783717 0.018152 -0.178350
C3    C     C_1   0.500001 0.611479 0.000000 -0.140140
C4    C     C_R   1.000000 0.849006 1.000000 0.821134
C5    C     C_R   1.000000 0.150994 1.000000 0.822516
C6    C     C_R   0.500000 0.349006 0.000000 0.822522
C7    C     C_R   0.500000 0.650994 0.000000 0.821132
C8    C     C_R   1.000000 0.651008 1.000000 0.822721
C9    C     C_R   0.000000 0.348992 0.000000 0.821772
C10   C     C_R   0.500000 0.151008 0.000000 0.821753
C11   C     C_R   0.500000 0.848992 0.000000 0.822712
C12   C     C_R   0.942865 0.480727 0.953346 -0.178390
C13   C     C_3   0.266265 0.240920 0.067402 -0.178863
C14   C     C_R   0.057134 0.519273 0.046653 -0.178411
C15   C     C_R   0.057135 0.480728 0.046652 -0.178596
C16   C     C_R   0.942865 0.519271 0.953347 -0.178645
C17   C     C_R   0.443757 0.980727 0.949738 -0.178477
C18   C     C_R   0.556244 0.019273 0.050265 -0.178446
C19   C     C_R   0.556244 0.980728 0.050264 -0.178731
C20   C     C_R   0.443756 0.019272 0.949738 -0.178685
C21   C     C_R   0.000000 0.461380 0.999999 0.160832
C22   C     C_R   0.999999 0.538620 1.000000 0.160895
C23   C     C_R   0.500000 0.961380 0.000001 0.160731
C24   C     C_3   0.758305 0.783711 0.981805 -0.178651
C25   C     C_R   0.500000 0.038620 0.000001 0.160647
C26   C     C_1   0.000001 0.421728 0.999999 -0.074688
C27   C     C_1   0.999999 0.578272 1.000000 -0.074723
C28   C     C_1   0.500001 0.921728 0.000001 -0.074768
C29   C     C_1   0.500000 0.078272 0.000001 -0.074739
C30   C     C_1   0.999999 0.611489 1.000000 -0.136717
C31   C     C_1   0.000001 0.388511 1.000000 -0.136569
C32   C     C_1   0.499999 0.111489 0.000000 -0.136583
C33   C     C_1   0.500001 0.888511 0.000000 -0.136732
C34   C     C_3   0.257727 0.725250 0.049491 -0.130229
C35   C     C_3   0.258326 0.716282 0.981848 -0.178400
C36   C     C_3   0.776474 0.283714 0.018156 -0.177931
C37   C     C_3   0.742288 0.725234 0.950540 -0.129662
C38   C     C_3   0.223509 0.283710 0.981810 -0.178092
C39   C     C_3   0.723526 0.216285 0.981844 -0.177904
C40   C     C_3   0.242273 0.774750 0.950509 -0.130191
C41   C     C_3   0.276491 0.216290 0.018190 -0.178061
C42   C     C_3   0.757712 0.774766 0.049460 -0.129631
C43   C     C_3   0.661229 0.742482 0.575181 -0.313729
C44   C     C_3   0.337597 0.263986 0.424736 -0.312960
C45   C     C_3   0.333815 0.724369 0.424690 -0.309349
C46   C     C_3   0.766260 0.259097 0.067392 -0.179409
C47   C     C_3   0.672423 0.287095 0.575494 -0.307765
C48   C     C_3   0.162403 0.236013 0.575263 -0.312960
C49   C     C_3   0.838527 0.757457 0.424519 -0.313750
C50   C     C_3   0.827588 0.212896 0.424525 -0.307814
C51   C     C_3   0.166290 0.775595 0.575448 -0.309362
C52   C     C_3   0.741695 0.716288 0.018195 -0.178706
C53   C     C_3   0.233735 0.259080 0.932598 -0.178854
C54   C     C_3   0.801020 0.249889 0.000233 0.053001
C55   C     C_3   0.199189 0.749902 0.000185 0.052993
C56   C     C_3   0.198981 0.249889 0.999768 0.052318
C57   C     C_R   0.141853 0.249972 0.999928 0.781576
C58   C     C_3   0.800811 0.749902 0.999815 0.052477
C59   C     C_3   0.300811 0.750098 0.999815 0.052996
C60   C     C_3   0.698980 0.250111 0.999767 0.052998
C61   C     C_3   0.699189 0.750098 0.000185 0.052480
C62   C     C_3   0.301019 0.250111 0.000232 0.052312
C63   C     C_3   0.791707 0.225249 0.049515 -0.130645
C64   C     C_3   0.198932 0.740911 0.932589 -0.179660
C65   C     C_3   0.208305 0.225236 0.950511 -0.130023
C66   C     C_3   0.801073 0.740933 0.067423 -0.179269
C67   C     C_3   0.301068 0.759089 0.067411 -0.179639
C68   C     C_R   0.141896 0.749984 0.000015 0.781022
C69   C     C_3   0.708292 0.274751 0.950485 -0.130675
C70   C     C_3   0.698927 0.759067 0.932577 -0.179236
C71   C     C_3   0.291695 0.274764 0.049489 -0.130052
C72   C     C_R   0.688837 0.734588 0.461031 -0.376698
C73   C     C_R   0.309470 0.267512 0.538965 -0.376793
C74   C     C_R   0.305817 0.728877 0.538969 -0.376671
C75   C     C_R   0.698616 0.274442 0.461028 -0.376780
C76   C     C_R   0.190531 0.232487 0.461035 -0.376799
C77   C     C_R   0.811161 0.765411 0.538968 -0.376613
C78   C     C_R   0.801383 0.225556 0.538972 -0.376791
C79   C     C_R   0.858148 0.249972 0.000073 0.781046
C80   C     C_R   0.194185 0.771122 0.461031 -0.376639
C81   C     C_R   0.711649 0.750102 0.422698 -0.036296
C82   C     C_R   0.288368 0.249880 0.577301 -0.036262
C83   C     C_R   0.288393 0.750146 0.577302 -0.036649
C84   C     C_R   0.711575 0.249828 0.422699 -0.036611
C85   C     C_R   0.211633 0.250119 0.422699 -0.036264
C86   C     C_R   0.788350 0.749897 0.577301 -0.036320
C87   C     C_R   0.788424 0.250171 0.577301 -0.036614
C88   C     C_R   0.211609 0.749854 0.422699 -0.036665
C89   C     C_R   0.773403 0.765158 0.461616 0.564996
C90   C     C_R   0.358147 0.250028 0.000072 0.781586
C91   C     C_R   0.228270 0.232695 0.538390 0.564750
C92   C     C_R   0.231894 0.771008 0.538384 0.563774
C93   C     C_R   0.763685 0.225575 0.461619 0.563250
C94   C     C_R   0.271730 0.267305 0.461610 0.564773
C95   C     C_R   0.726592 0.734847 0.538387 0.565049
C96   C     C_R   0.736314 0.274424 0.538381 0.563264
C97   C     C_R   0.268110 0.728994 0.461615 0.563814
C98   C     C_1   0.671722 0.750046 0.343351 0.036413
C99   C     C_1   0.328289 0.249950 0.656648 0.036470
C100  C     C_1   0.328299 0.750056 0.656648 0.036108
C101  C     C_R   0.641897 0.750016 0.000016 0.781503
C102  C     C_1   0.671688 0.249940 0.343351 0.035814
C103  C     C_1   0.171711 0.250049 0.343352 0.036493
C104  C     C_1   0.828277 0.749954 0.656648 0.036646
C105  C     C_1   0.828312 0.250060 0.656648 0.035821
C106  C     C_1   0.171702 0.749944 0.343352 0.036235
C107  C     C_1   0.861541 0.749985 0.723035 -0.139141
C108  C     C_1   0.138454 0.250015 0.276965 -0.139242
C109  C     C_1   0.138451 0.749984 0.276965 -0.139274
C110  C     C_1   0.861552 0.250015 0.723035 -0.139561
C111  C     C_1   0.361546 0.249985 0.723035 -0.139278
C112  C     C_R   0.641852 0.250028 0.999927 0.781057
C113  C     C_1   0.638458 0.750015 0.276965 -0.139239
C114  C     C_1   0.638448 0.249985 0.276965 -0.139591
C115  C     C_1   0.361550 0.750016 0.723036 -0.139341
C116  C     C_R   0.981613 0.019272 0.039489 -0.179833
C117  C     C_R   0.018385 0.980728 0.960509 -0.179857
C118  C     C_R   0.018385 0.019271 0.960509 -0.179765
C119  C     C_R   0.981613 0.980729 0.039489 -0.179810
C120  C     C_R   0.482118 0.519272 0.039983 -0.179905
C121  C     C_R   0.517883 0.480728 0.960018 -0.179880
C122  C     C_R   0.517883 0.519271 0.960018 -0.179856
C123  C     C_R   0.358104 0.750016 0.999984 0.781036
C124  C     C_R   0.482118 0.480729 0.039983 -0.179809
C125  C     C_R   0.999999 0.038616 0.999999 0.162334
C126  C     C_R   0.999999 0.961384 0.999999 0.162208
C127  C     C_R   0.500001 0.538616 0.000001 0.162229
C128  C     C_R   0.500000 0.461384 0.000001 0.162356
C129  C     C_R   0.098976 0.749994 0.197989 0.814093
C130  C     C_R   0.901022 0.250004 0.802011 0.814594
C131  C     C_R   0.901024 0.749993 0.802011 0.813692
C132  C     C_R   0.098976 0.250006 0.197989 0.813814
C133  C     C_R   0.598978 0.249996 0.197989 0.814578
C134  C     C_3   0.733740 0.240903 0.932608 -0.179418
C135  C     C_R   0.401024 0.750006 0.802011 0.814083
C136  C     C_R   0.401024 0.249994 0.802011 0.813797
C137  C     C_R   0.598976 0.750007 0.197989 0.813680
C138  C     C_1   1.000000 0.078264 0.999999 -0.077133
C139  C     C_1   0.999999 0.921736 0.999999 -0.077206
C140  C     C_1   0.500001 0.578264 0.000000 -0.077250
C141  C     C_1   0.500000 0.421736 0.000001 -0.077172
C142  C     C_1   0.999999 0.888521 1.000000 -0.140106
C143  C     C_1   1.000000 0.111479 0.999999 -0.140194
C144  C     C_1   0.500000 0.388521 0.000000 -0.140221
H1    H     H_    0.898420 0.533962 0.917055 0.144303
H2    H     H_    0.799219 0.311343 0.033032 0.135879
H3    H     H_    0.736802 0.704896 0.909922 0.150541
H4    H     H_    0.200750 0.311334 0.966906 0.136273
H5    H     H_    0.700781 0.188657 0.966968 0.135936
H6    H     H_    0.236774 0.795073 0.909864 0.149712
H7    H     H_    0.299250 0.188666 0.033094 0.136330
H8    H     H_    0.763198 0.795103 0.090078 0.150566
H9    H     H_    0.826805 0.204925 0.090177 0.148636
H10   H     H_    0.156033 0.733467 0.877344 0.134487
H11   H     H_    0.173218 0.204900 0.909869 0.149190
H12   H     H_    0.101579 0.466038 0.082944 0.144443
H13   H     H_    0.843977 0.733508 0.122678 0.134932
H14   H     H_    0.343967 0.766533 0.122656 0.134482
H15   H     H_    0.673195 0.295075 0.909823 0.148616
H16   H     H_    0.656023 0.766492 0.877323 0.134933
H17   H     H_    0.326782 0.295100 0.090131 0.149170
H18   H     H_    0.967311 0.966037 0.070208 0.142840
H19   H     H_    0.032687 0.033962 0.929790 0.142722
H20   H     H_    0.032687 0.966037 0.929790 0.142812
H21   H     H_    0.967311 0.033963 0.070208 0.142672
H22   H     H_    0.468208 0.466038 0.071085 0.142709
H23   H     H_    0.101579 0.533964 0.082944 0.144398
H24   H     H_    0.531794 0.533962 0.928917 0.142828
H25   H     H_    0.531794 0.466037 0.928917 0.142659
H26   H     H_    0.468208 0.533963 0.071085 0.142799
H27   H     H_    0.721466 0.233450 0.877380 0.134211
H28   H     H_    0.233797 0.811349 0.033020 0.135664
H29   H     H_    0.278544 0.233483 0.122638 0.134817
H30   H     H_    0.766163 0.811338 0.966900 0.135823
H31   H     H_    0.266203 0.688651 0.966980 0.135635
H32   H     H_    0.778534 0.266550 0.122620 0.134212
H33   H     H_    0.733837 0.688662 0.033100 0.135791
H34   H     H_    0.898421 0.466036 0.917055 0.144395
H35   H     H_    0.221456 0.266517 0.877362 0.134816
H36   H     H_    0.617535 0.746296 0.518325 0.157063
H37   H     H_    0.683631 0.769627 0.600209 0.156408
H38   H     H_    0.646328 0.730135 0.608705 0.197035
H39   H     H_    0.317972 0.236412 0.399691 0.156025
H40   H     H_    0.381662 0.260949 0.481571 0.157140
H41   H     H_    0.351119 0.277925 0.391187 0.197315
H42   H     H_    0.378309 0.725964 0.481520 0.157281
H43   H     H_    0.319367 0.752342 0.399542 0.155347
H44   H     H_    0.344490 0.707683 0.391204 0.198464
H45   H     H_    0.400005 0.033962 0.910638 0.144658
H46   H     H_    0.681637 0.259243 0.600845 0.155241
H47   H     H_    0.627726 0.286954 0.518700 0.157187
H48   H     H_    0.665189 0.306307 0.608900 0.199034
H49   H     H_    0.118338 0.239051 0.518428 0.157150
H50   H     H_    0.182028 0.263587 0.600310 0.156047
H51   H     H_    0.148879 0.222073 0.608811 0.197304
H52   H     H_    0.815840 0.730416 0.399127 0.156515
H53   H     H_    0.882182 0.753422 0.481323 0.157013
H54   H     H_    0.853553 0.769860 0.391161 0.197043
H55   H     H_    0.872280 0.213025 0.481322 0.157206
H56   H     H_    0.599996 0.966038 0.089364 0.144506
H57   H     H_    0.818395 0.240753 0.399193 0.155267
H58   H     H_    0.834817 0.193687 0.391111 0.199016
H59   H     H_    0.180900 0.747670 0.600801 0.155441
H60   H     H_    0.121792 0.773880 0.518639 0.157243
H61   H     H_    0.155540 0.792318 0.608825 0.198467
H62   H     H_    0.641735 0.722289 0.430999 0.181881
H63   H     H_    0.355225 0.281426 0.568994 0.181933
H64   H     H_    0.348679 0.712193 0.569000 0.182774
H65   H     H_    0.659243 0.293665 0.430998 0.182777
H66   H     H_    0.144775 0.218574 0.431006 0.181931
H67   H     H_    0.599995 0.033964 0.089365 0.144643
H68   H     H_    0.858269 0.777703 0.568995 0.181976
H69   H     H_    0.840756 0.206333 0.569001 0.182765
H70   H     H_    0.151320 0.787804 0.431003 0.182822
H71   H     H_    0.400005 0.966036 0.910638 0.144624
H72   H     H_    0.263226 0.704926 0.090136 0.149683
O1    O     O_3   0.000000 0.750010 0.000000 -0.479936
O2    O     O_R   0.638650 0.771350 0.042690 -0.646373
O3    O     O_R   0.638650 0.228650 0.042690 -0.640916
O4    O     O_R   0.361350 0.771350 0.957310 -0.646948
O5    O     O_R   0.050700 0.771350 0.162940 -0.639430
O6    O     O_R   0.949300 0.228650 0.837060 -0.639580
O7    O     O_R   0.949300 0.771350 0.837060 -0.639631
O8    O     O_R   0.050700 0.228650 0.162940 -0.639924
O9    O     O_R   0.550700 0.271350 0.162940 -0.639577
O10   O     O_R   0.449300 0.728650 0.837060 -0.639421
O11   O     O_R   0.449300 0.271350 0.837060 -0.639919
O12   O     O_3   0.000000 0.249990 0.000000 -0.479802
O13   O     O_R   0.550700 0.728650 0.162940 -0.639623
O14   O     O_R   0.990570 0.831470 0.042720 -0.636432
O15   O     O_R   0.009430 0.168530 0.957280 -0.636736
O16   O     O_R   0.009430 0.831470 0.957280 -0.636418
O17   O     O_R   0.990570 0.168530 0.042720 -0.636674
O18   O     O_R   0.490570 0.331470 0.042720 -0.636745
O19   O     O_R   0.509430 0.668530 0.957280 -0.636443
O20   O     O_R   0.509430 0.331470 0.957280 -0.636682
O21   O     O_R   0.490570 0.668530 0.042720 -0.636430
O22   O     O_R   0.947900 0.668550 0.957290 -0.635394
O23   O     O_3   0.500000 0.250010 0.000000 -0.479794
O24   O     O_R   0.052100 0.331450 0.042710 -0.635085
O25   O     O_R   0.052100 0.668550 0.042710 -0.635109
O26   O     O_R   0.947900 0.331450 0.957290 -0.634926
O27   O     O_R   0.447900 0.168550 0.957290 -0.635086
O28   O     O_R   0.552100 0.831450 0.042710 -0.635391
O29   O     O_R   0.552100 0.168550 0.042710 -0.634928
O30   O     O_R   0.447900 0.831450 0.957290 -0.635108
O31   O     O_R   0.112210 0.728640 0.162920 -0.627490
O32   O     O_R   0.887790 0.271360 0.837080 -0.627907
O33   O     O_R   0.887790 0.728640 0.837080 -0.626943
O34   O     O_3   0.500000 0.749990 0.000000 -0.479921
O35   O     O_R   0.112210 0.271360 0.162920 -0.626841
O36   O     O_R   0.612210 0.228640 0.162920 -0.627936
O37   O     O_R   0.387790 0.771360 0.837080 -0.627534
O38   O     O_R   0.387790 0.228640 0.837080 -0.626872
O39   O     O_R   0.612210 0.771360 0.162920 -0.626993
O40   O     O_R   0.904050 0.771360 0.042740 -0.641249
O41   O     O_R   0.095950 0.228640 0.957260 -0.647656
O42   O     O_R   0.095950 0.771360 0.957260 -0.641304
O43   O     O_R   0.904050 0.228640 0.042740 -0.647652
O44   O     O_R   0.404050 0.271360 0.042740 -0.647665
O45   O     O_R   0.861350 0.728650 0.957310 -0.646390
O46   O     O_R   0.595950 0.728640 0.957260 -0.641259
O47   O     O_R   0.595950 0.271360 0.957260 -0.647662
O48   O     O_R   0.404050 0.728640 0.042740 -0.641313
O49   O     O_3   0.704769 0.718395 0.576057 -0.590716
O50   O     O_3   0.291749 0.285808 0.423938 -0.590708
O51   O     O_3   0.284308 0.706998 0.423952 -0.590972
O52   O     O_3   0.724699 0.299609 0.576028 -0.591422
O53   O     O_3   0.208252 0.214191 0.576062 -0.590755
O54   O     O_3   0.795234 0.781622 0.423966 -0.590746
O55   O     O_3   0.775299 0.200390 0.423970 -0.591479
O56   O     O_R   0.138650 0.271350 0.042690 -0.640061
O57   O     O_3   0.215692 0.793009 0.576035 -0.591019
O58   O     O_R   0.138650 0.728650 0.042690 -0.646971
O59   O     O_R   0.861350 0.271350 0.957310 -0.640943
O60   O     O_R   0.361350 0.228650 0.957310 -0.640034
Zn1   Zn    Zn3+2 0.074440 0.719490 0.061020 0.977170
Zn2   Zn    Zn3+2 0.013440 0.219480 0.938960 0.969654
Zn3   Zn    Zn3+2 0.013440 0.780520 0.938960 0.971357
Zn4   Zn    Zn3+2 0.986560 0.219480 0.061040 0.969162
Zn5   Zn    Zn3+2 0.486560 0.280520 0.061040 0.969637
Zn6   Zn    Zn3+2 0.513440 0.719480 0.938960 0.971715
Zn7   Zn    Zn3+2 0.513440 0.280520 0.938960 0.969145
Zn8   Zn    Zn3+2 0.486560 0.719480 0.061040 0.971328
Zn9   Zn    Zn3+2 0.925560 0.280510 0.938980 0.978756
Zn10  Zn    Zn3+2 0.925560 0.719490 0.938980 0.977903
Zn11  Zn    Zn3+2 0.074440 0.280510 0.061020 0.980053
Zn12  Zn    Zn3+2 0.574440 0.219490 0.061020 0.978745
Zn13  Zn    Zn3+2 0.425560 0.780510 0.938980 0.977152
Zn14  Zn    Zn3+2 0.425560 0.219490 0.938980 0.980039
Zn15  Zn    Zn3+2 0.574440 0.780510 0.061020 0.977872
Zn16  Zn    Zn3+2 0.986560 0.780520 0.061040 0.971741

loop_
_geom_bond_atom_site_label_1
_geom_bond_atom_site_label_2
_ccdc_geom_bond_type
C61   C70   S    
C21   C26   S    
O30   Zn13  S    
C135  O10   A    
C74   C83   A    
C105  C110  T    
C90   O44   A    
C13   H29   S    
O23   Zn5   S    
C77   C89   A    
O3    Zn12  S    
O34   Zn13  S    
C4    O16   A    
C133  O9    A    
C138  C143  T    
C4    C142  S    
C139  C142  T    
C5    C143  S    
C54   C63   S    
C54   C134  S    
C56   C57   S    
C34   C35   S    
C7    O21   A    
C5    O15   A    
C117  C126  A    
C88   C97   A    
C85   C103  S    
C24   H30   S    
O20   Zn7   S    
O35   Zn11  S    
O36   Zn12  S    
C55   C68   S    
C50   H58   S    
C25   C29   S    
C43   H36   S    
C63   H9    S    
C121  C128  A    
O14   Zn16  S    
C141  C144  T    
C20   H45   S    
C72   H62   S    
O5    Zn16  S    
C82   C91   A    
C80   C92   A    
C19   C23   A    
O10   Zn6   S    
O26   Zn9   S    
C102  C114  T    
O18   Zn5   S    
C9    O24   A    
C19   H56   S    
C40   H6    S    
C37   H3    S    
C133  O36   A    
C38   H4    S    
C137  O39   A    
C107  C131  S    
C28   C33   T    
C83   C100  S    
C113  C137  S    
O59   Zn9   S    
C51   H60   S    
C54   C79   S    
C129  O31   A    
C76   H66   S    
C6    O20   A    
C71   H17   S    
C46   C60   S    
C10   O27   A    
C80   H70   S    
C41   H7    S    
C8    O22   A    
C125  C138  S    
O13   Zn8   S    
C2    C55   S    
C79   O43   A    
C35   H31   S    
C80   C88   A    
O23   Zn14  S    
C39   C60   S    
C57   O41   A    
C84   C93   A    
C86   C95   A    
C119  C126  A    
C2    C40   S    
C45   O51   S    
C20   C25   A    
C90   O60   A    
O38   Zn14  S    
C76   C85   A    
C104  C107  T    
C39   C134  S    
C78   C87   A    
C96   O52   S    
C12   H34   S    
C48   H49   S    
C84   C102  S    
C86   C104  S    
C120  C127  A    
C24   C70   S    
C49   H53   S    
C38   C53   S    
C17   C23   A    
O32   Zn9   S    
C75   C84   A    
O7    Zn3   S    
O8    Zn4   S    
C53   C62   S    
C47   H48   S    
C52   H33   S    
O39   Zn15  S    
C59   C67   S    
C97   O51   S    
C87   C105  S    
C36   C46   S    
C53   C65   S    
O1    Zn16  S    
C1    O40   A    
C44   H41   S    
C13   C56   S    
C6    O18   A    
C101  O46   A    
C55   C64   S    
C53   H35   S    
C126  C139  S    
C89   O54   S    
C12   C16   A    
C11   C33   S    
C37   C52   S    
C45   H43   S    
C100  C115  T    
O12   Zn2   S    
C43   H37   S    
C16   H1    S    
C61   C101  S    
O28   Zn15  S    
C93   O55   S    
C123  O48   A    
C99   C111  T    
C23   C28   S    
C44   H39   S    
C123  O4    A    
C116  C125  A    
C48   H51   S    
C109  C129  S    
C124  H22   S    
C127  C140  S    
C6    C144  S    
C79   O59   A    
C26   C31   T    
O11   Zn7   S    
C48   O53   S    
C50   H55   S    
C51   H61   S    
C39   H5    S    
C46   C63   S    
O33   Zn10  S    
C14   C22   A    
C47   H46   S    
C18   H67   S    
C65   H11   S    
C34   H72   S    
C117  C118  A    
C115  C135  S    
C8    O25   A    
C69   H15   S    
C62   C71   S    
C70   H16   S    
C108  C132  S    
C36   C54   S    
C76   C91   A    
C38   C56   S    
C50   O55   S    
C14   C15   A    
C131  O7    A    
C92   O57   S    
C66   H13   S    
C131  O33   A    
C132  O35   A    
C112  O3    A    
C106  C109  T    
O4    Zn13  S    
C69   C134  S    
O58   Zn1   S    
C24   C42   S    
C82   C99   S    
C13   C41   S    
O44   Zn5   S    
O12   Zn4   S    
O56   Zn11  S    
C18   C25   A    
C73   C94   A    
C43   O49   S    
C29   C32   T    
C3    C7    S    
C95   O49   S    
C81   C98   S    
C17   C20   A    
C78   H69   S    
C35   C59   S    
C18   C19   A    
O21   Zn8   S    
C77   H68   S    
C101  O2    A    
C118  C125  A    
O9    Zn5   S    
C128  C141  S    
C72   C81   A    
O2    Zn15  S    
C124  C128  A    
C81   C89   A    
C49   O54   S    
O1    Zn1   S    
C73   H63   S    
C34   C55   S    
C37   C70   S    
C41   C62   S    
C119  H18   S    
C51   H59   S    
C75   C96   A    
C117  H20   S    
C59   C123  S    
C7    O19   A    
C118  H19   S    
C122  H24   S    
C51   O57   S    
C130  O6    A    
C137  O13   A    
C130  O32   A    
C98   C113  T    
C44   O50   S    
C13   C71   S    
O31   Zn1   S    
C10   O29   A    
C121  C122  A    
C136  O11   A    
O48   Zn8   S    
C116  H21   S    
C73   C82   A    
C52   C66   S    
O45   Zn10  S    
C50   H57   S    
O17   Zn4   S    
C75   H65   S    
C16   C22   A    
C48   H50   S    
C132  O8    A    
C11   O30   A    
O34   Zn8   S    
C34   C67   S    
C49   H52   S    
C8    C30   S    
O12   Zn11  S    
C120  H26   S    
O46   Zn6   S    
C110  C130  S    
C47   H47   S    
C111  C136  S    
C112  O47   A    
O1    Zn3   S    
C68   O58   A    
C24   C58   S    
C14   H23   S    
C47   O52   S    
C121  H25   S    
O23   Zn12  S    
O24   Zn11  S    
O1    Zn10  S    
C74   H64   S    
C83   C92   A    
C60   C69   S    
O16   Zn3   S    
C136  O38   A    
C45   H42   S    
C78   C93   A    
C56   C65   S    
C64   H10   S    
C122  C127  A    
O47   Zn7   S    
C72   C95   A    
C58   C66   S    
C103  C108  T    
O6    Zn2   S    
C42   H8    S    
C44   H40   S    
C37   C58   S    
O22   Zn10  S    
O60   Zn14  S    
O27   Zn14  S    
O41   Zn2   S    
C40   C59   S    
C5    O17   A    
C27   C30   T    
C11   O28   A    
O34   Zn6   S    
O43   Zn4   S    
C9    O26   A    
C74   C97   A    
C49   H54   S    
C94   O50   S    
O19   Zn6   S    
O25   Zn1   S    
C129  O5    A    
C2    C67   S    
C41   C65   S    
C57   O56   A    
O23   Zn7   S    
C12   C21   A    
O34   Zn15  S    
C4    O14   A    
C60   C112  S    
C88   C106  S    
C85   C94   A    
C87   C96   A    
C135  O37   A    
C42   C61   S    
C15   H12   S    
C35   C64   S    
C1    O45   A    
C36   H2    S    
C77   C86   A    
C134  H27   S    
C46   H32   S    
O40   Zn16  S    
C36   C69   S    
C38   C71   S    
O15   Zn2   S    
O37   Zn13  S    
C91   O53   S    
C52   C61   S    
C45   H44   S    
C39   C63   S    
C43   H38   S    
C40   C64   S    
C116  C119  A    
C22   C27   S    
C1    C58   S    
C68   O42   A    
C62   C90   S    
C114  C133  S    
O12   Zn9   S    
C67   H14   S    
C9    C31   S    
C10   C32   S    
C15   C21   A    
C2    H28   S    
O42   Zn3   S    
C42   C66   S    
C3    C140  T    
C17   H71   S    
C120  C124  A    
O29   Zn12  S    
