data_mof_unit_14288.cif
_audit_creation_date              2013-03-05T15:54:53-0500
_audit_creation_method            fapswitch 2.2
_symmetry_space_group_name_H-M    P1
_symmetry_Int_Tables_number       1
_space_group_crystal_system       triclinic
_cell_length_a                    17.409707
_cell_length_b                    17.409416
_cell_length_c                    17.555066
_cell_angle_alpha                 89.865412
_cell_angle_beta                  89.925532
_cell_angle_gamma                 89.965448
_cell_volume                      5320.79453144

loop_
_atom_site_label
_atom_site_type_symbol
_atom_site_description
_atom_site_fract_x
_atom_site_fract_y
_atom_site_fract_z
_atom_type_partial_charge
C1    C     C_R   0.396085 0.305469 0.891163 -0.100230
C2    C     C_R   0.672764 0.418947 0.858908 -0.026484
C3    C     C_R   0.607086 0.695654 0.895706 -0.098546
C4    C     C_R   0.329262 0.580762 0.857616 -0.045120
C5    C     C_R   0.393344 0.696048 0.103504 -0.105390
C6    C     C_R   0.671961 0.580773 0.141571 -0.024669
C7    C     C_R   0.605973 0.304834 0.106373 -0.095890
C8    C     C_R   0.328923 0.419757 0.142449 -0.007361
C9    C     C_R   0.895679 0.805274 0.391855 -0.098263
C10   C     C_R   0.173069 0.918684 0.359112 -0.027200
C11   C     C_R   0.106939 0.195613 0.395442 -0.099583
C12   C     C_R   0.829429 0.080553 0.357499 -0.043517
C13   C     C_R   0.893569 0.195953 0.603925 -0.106496
C14   C     C_R   0.171588 0.080502 0.641811 -0.024770
C15   C     C_R   0.105883 0.804808 0.606366 -0.095266
C16   C     C_R   0.828644 0.919473 0.642265 -0.008084
H1    H     H_    0.419548 0.248418 0.894123 0.214719
H2    H     H_    0.723425 0.451749 0.845006 0.204530
H3    H     H_    0.583676 0.752737 0.898771 0.215543
H4    H     H_    0.278564 0.549118 0.843118 0.211032
H5    H     H_    0.417573 0.752758 0.100786 0.217531
H6    H     H_    0.722921 0.548448 0.155453 0.201962
H7    H     H_    0.582791 0.247699 0.103336 0.216137
H8    H     H_    0.278907 0.453011 0.157534 0.202586
H9    H     H_    0.919169 0.748237 0.394832 0.214840
H10   H     H_    0.223765 0.951499 0.345246 0.200882
H11   H     H_    0.083480 0.252679 0.398450 0.215769
H12   H     H_    0.778889 0.048693 0.342888 0.212371
H13   H     H_    0.917779 0.252674 0.601186 0.217531
H14   H     H_    0.222507 0.048233 0.655761 0.205387
H15   H     H_    0.082698 0.747682 0.603259 0.215955
H16   H     H_    0.778580 0.952672 0.657326 0.200380
N1    N     N_R   0.425360 0.368540 0.922560 -0.084357
N2    N     N_R   0.631460 0.425360 0.922560 -0.077141
N3    N     N_R   0.574640 0.631460 0.922560 -0.084719
N4    N     N_R   0.368540 0.574640 0.922560 -0.075749
N5    N     N_R   0.425360 0.631460 0.077440 -0.085232
N6    N     N_R   0.631460 0.574640 0.077440 -0.075269
N7    N     N_R   0.574640 0.368540 0.077440 -0.084604
N8    N     N_R   0.368540 0.425360 0.077440 -0.070568
N9    N     N_R   0.925360 0.868540 0.422560 -0.084518
N10   N     N_R   0.131460 0.925360 0.422560 -0.077415
N11   N     N_R   0.074640 0.131460 0.422560 -0.084665
N12   N     N_R   0.868540 0.074640 0.422560 -0.075656
N13   N     N_R   0.925360 0.131460 0.577440 -0.085043
N14   N     N_R   0.131460 0.074640 0.577440 -0.074425
N15   N     N_R   0.074640 0.868540 0.577440 -0.084723
N16   N     N_R   0.868540 0.925360 0.577440 -0.071332
C17   C     C_3   0.792932 0.158663 0.796761 0.167082
C18   C     C_3   0.755960 0.708203 0.649046 0.182481
C19   C     C_3   0.209003 0.839240 0.801449 0.181717
C20   C     C_3   0.245165 0.288907 0.640953 0.172190
C21   C     C_3   0.789836 0.841956 0.195992 0.180105
C22   C     C_3   0.754564 0.287874 0.355559 0.174690
C23   C     C_3   0.211880 0.158012 0.203683 0.169219
C24   C     C_3   0.246417 0.706058 0.351361 0.187086
C25   C     C_3   0.290181 0.656191 0.294949 0.162924
C26   C     C_3   0.255367 0.209471 0.148408 0.181917
C27   C     C_3   0.708145 0.338393 0.301751 0.181380
C28   C     C_3   0.743711 0.791175 0.142614 0.174568
C29   C     C_3   0.292002 0.339752 0.693712 0.183134
C30   C     C_3   0.255470 0.788846 0.855298 0.174996
C31   C     C_3   0.712792 0.656828 0.704597 0.169099
C32   C     C_3   0.748553 0.208533 0.852735 0.184878
H17   H     H_    0.855570 0.170693 0.792880 0.155780
H18   H     H_    0.795260 0.677333 0.609687 0.185662
H19   H     H_    0.146601 0.825815 0.798645 0.154823
H20   H     H_    0.205433 0.320539 0.602585 0.185027
H21   H     H_    0.852548 0.829772 0.197877 0.152513
H22   H     H_    0.793490 0.319805 0.394320 0.184539
H23   H     H_    0.148993 0.168786 0.207461 0.151765
H24   H     H_    0.206838 0.674033 0.389639 0.185417
H25   H     H_    0.353062 0.667060 0.291617 0.154804
H26   H     H_    0.294529 0.178604 0.108910 0.185144
H27   H     H_    0.645794 0.324812 0.298625 0.155149
H28   H     H_    0.703583 0.822749 0.104615 0.186292
H29   H     H_    0.354518 0.326648 0.695859 0.153206
H30   H     H_    0.294651 0.820855 0.893739 0.185323
H31   H     H_    0.649856 0.667328 0.708343 0.151157
H32   H     H_    0.709649 0.176355 0.891575 0.183624
C33   C     C_R   0.419054 0.672941 0.859670 0.307310
C34   C     C_R   0.306327 0.397021 0.888582 0.330533
C35   C     C_R   0.583555 0.325736 0.860987 0.306073
C36   C     C_R   0.695909 0.603497 0.894369 0.322366
C37   C     C_R   0.418271 0.326857 0.140182 0.304279
C38   C     C_R   0.303639 0.605344 0.103168 0.330516
C39   C     C_R   0.581919 0.673205 0.139827 0.307275
C40   C     C_R   0.694999 0.396869 0.108067 0.325034
C41   C     C_R   0.919086 0.172856 0.359593 0.306418
C42   C     C_R   0.805943 0.896829 0.389538 0.328368
C43   C     C_R   0.083705 0.825585 0.361134 0.307115
C44   C     C_R   0.195850 0.103554 0.394242 0.324614
C45   C     C_R   0.918042 0.826593 0.639964 0.305026
C46   C     C_R   0.803847 0.105208 0.603889 0.332138
C47   C     C_R   0.081674 0.172998 0.640013 0.306282
C48   C     C_R   0.194950 0.896801 0.608181 0.324865
N17   N     N_R   0.425340 0.631500 0.922560 -0.094610
N18   N     N_R   0.368500 0.425340 0.922560 -0.111092
N19   N     N_R   0.574660 0.368500 0.922560 -0.094664
N20   N     N_R   0.631500 0.574660 0.922560 -0.113542
N21   N     N_R   0.425340 0.368500 0.077440 -0.095268
N22   N     N_R   0.368500 0.574660 0.077440 -0.110107
N23   N     N_R   0.574660 0.631500 0.077440 -0.094497
N24   N     N_R   0.631500 0.425340 0.077440 -0.113078
N25   N     N_R   0.925340 0.131500 0.422560 -0.094535
N26   N     N_R   0.868500 0.925340 0.422560 -0.111631
N27   N     N_R   0.074660 0.868500 0.422560 -0.094820
N28   N     N_R   0.131500 0.074660 0.422560 -0.112646
N29   N     N_R   0.925340 0.868500 0.577440 -0.095470
N30   N     N_R   0.868500 0.074660 0.577440 -0.109836
N31   N     N_R   0.074660 0.131500 0.577440 -0.094401
N32   N     N_R   0.131500 0.925340 0.577440 -0.113482
Ni1   Ni    Ni4+2 0.500000 0.369720 0.000000 0.287175
Ni2   Ni    Ni4+2 0.630280 0.500000 0.000000 0.314649
Ni3   Ni    Ni4+2 0.500000 0.630280 0.000000 0.284416
Ni4   Ni    Ni4+2 0.369720 0.500000 0.000000 0.320538
Ni5   Ni    Ni4+2 1.000000 0.869720 0.500000 0.287154
Ni6   Ni    Ni4+2 0.130280 0.000000 0.500000 0.315233
Ni7   Ni    Ni4+2 0.000000 0.130280 0.500000 0.284479
Ni8   Ni    Ni4+2 0.869720 0.000000 0.500000 0.320158
C49   C     C_R   0.323575 0.323245 0.868505 -0.092680
C50   C     C_R   0.643533 0.357078 0.819469 -0.107345
C51   C     C_R   0.681565 0.678682 0.877705 -0.088343
C52   C     C_R   0.359854 0.641833 0.817481 -0.102138
C53   C     C_R   0.318513 0.680358 0.120374 -0.095635
C54   C     C_R   0.641946 0.642248 0.181349 -0.104180
C55   C     C_R   0.679596 0.322228 0.126523 -0.091863
C56   C     C_R   0.358978 0.358311 0.182435 -0.115597
C57   C     C_R   0.822863 0.822884 0.369951 -0.092826
C58   C     C_R   0.143900 0.856702 0.319765 -0.105533
C59   C     C_R   0.181363 0.178668 0.377195 -0.091005
C60   C     C_R   0.859995 0.141606 0.317325 -0.103468
C61   C     C_R   0.818906 0.180158 0.621307 -0.095842
C62   C     C_R   0.141499 0.141858 0.681686 -0.105426
C63   C     C_R   0.179463 0.822176 0.626527 -0.090326
C64   C     C_R   0.858605 0.857876 0.682115 -0.113793
C65   C     C_R   0.707709 0.240747 0.784719 0.056090
C66   C     C_R   0.757262 0.695242 0.766606 0.105032
C67   C     C_R   0.295373 0.759075 0.785635 0.052585
C68   C     C_R   0.247901 0.304670 0.758173 0.097338
C69   C     C_R   0.705197 0.760116 0.212623 0.054730
C70   C     C_R   0.753647 0.303669 0.238229 0.100146
C71   C     C_R   0.295853 0.241086 0.216751 0.051533
C72   C     C_R   0.245735 0.695879 0.233612 0.092898
C73   C     C_R   0.206459 0.739897 0.283602 0.057377
C74   C     C_R   0.256500 0.195887 0.265849 0.106301
C75   C     C_R   0.794853 0.258589 0.285914 0.051707
C76   C     C_R   0.746347 0.805310 0.260030 0.096882
C77   C     C_R   0.206224 0.259334 0.711359 0.053723
C78   C     C_R   0.254141 0.804078 0.737875 0.097956
C79   C     C_R   0.796312 0.740405 0.717190 0.052072
C80   C     C_R   0.747389 0.196601 0.735150 0.092174
C81   C     C_R   0.686562 0.315047 0.765274 0.114346
C82   C     C_R   0.732128 0.725324 0.835164 0.038177
C83   C     C_R   0.316786 0.685367 0.764271 0.113948
C84   C     C_R   0.273888 0.275583 0.826818 0.033875
C85   C     C_R   0.685463 0.685790 0.233842 0.113156
C86   C     C_R   0.729634 0.274996 0.168822 0.036669
C87   C     C_R   0.316141 0.315444 0.236608 0.115233
C88   C     C_R   0.270038 0.726943 0.165053 0.054336
C89   C     C_R   0.186589 0.814796 0.265174 0.112840
C90   C     C_R   0.231769 0.225522 0.334703 0.040581
C91   C     C_R   0.816785 0.185140 0.264212 0.114819
C92   C     C_R   0.773015 0.775481 0.328136 0.034508
C93   C     C_R   0.185412 0.185612 0.733657 0.113936
C94   C     C_R   0.229546 0.775005 0.668817 0.034873
C95   C     C_R   0.815994 0.815072 0.736517 0.114369
C96   C     C_R   0.770606 0.226925 0.665926 0.053616
C97   C     C_R   0.203375 0.844755 0.192849 -0.091237
C98   C     C_R   0.255193 0.298543 0.358892 -0.054091
C99   C     C_R   0.799989 0.157934 0.191034 -0.083402
C100  C     C_R   0.750117 0.702669 0.353706 -0.049250
C101  C     C_R   0.204150 0.158147 0.806351 -0.087790
C102  C     C_R   0.254270 0.702906 0.643150 -0.050559
C103  C     C_R   0.798587 0.843834 0.809047 -0.091352
C104  C     C_R   0.745909 0.299758 0.642167 -0.048786
C105  C     C_R   0.702362 0.344146 0.692394 -0.088150
C106  C     C_R   0.754902 0.798729 0.858785 -0.052926
C107  C     C_R   0.299354 0.657724 0.691410 -0.086083
C108  C     C_R   0.249858 0.203518 0.853459 -0.049858
C109  C     C_R   0.704820 0.657462 0.306058 -0.090711
C110  C     C_R   0.754939 0.203216 0.142805 -0.052783
C111  C     C_R   0.299108 0.343746 0.309412 -0.088097
C112  C     C_R   0.246671 0.800523 0.142270 -0.048195
H33   H     H_    0.184804 0.901814 0.176732 0.195070
H34   H     H_    0.238111 0.320605 0.414019 0.171230
H35   H     H_    0.819612 0.101994 0.172604 0.193504
H36   H     H_    0.768527 0.680831 0.408558 0.170783
H37   H     H_    0.185469 0.101973 0.825229 0.195551
H38   H     H_    0.237344 0.681508 0.587769 0.172245
H39   H     H_    0.816671 0.900743 0.825841 0.197081
H40   H     H_    0.761512 0.322188 0.586659 0.169794
H41   H     H_    0.682820 0.400684 0.675556 0.193321
H42   H     H_    0.737436 0.821166 0.913644 0.171975
H43   H     H_    0.318487 0.601518 0.673284 0.194901
H44   H     H_    0.267647 0.182374 0.908778 0.170576
H45   H     H_    0.686955 0.600768 0.324130 0.196848
H46   H     H_    0.738505 0.182134 0.087157 0.171460
H47   H     H_    0.317684 0.400374 0.326636 0.195278
H48   H     H_    0.263151 0.823634 0.087289 0.170122
Cl1   Cl    Cl    0.769429 0.059314 0.804540 -0.611227
Cl2   Cl    Cl    0.693967 0.775768 0.603324 -0.499712
Cl3   Cl    Cl    0.230001 0.938940 0.811465 -0.592423
Cl4   Cl    Cl    0.302944 0.218687 0.593700 -0.518586
Cl5   Cl    Cl    0.766729 0.941301 0.186343 -0.584184
Cl6   Cl    Cl    0.696815 0.217099 0.402398 -0.526631
Cl7   Cl    Cl    0.237179 0.059211 0.194586 -0.593857
Cl8   Cl    Cl    0.307479 0.772658 0.399365 -0.508108
Cl9   Cl    Cl    0.264724 0.557219 0.301287 -0.610089
Cl10  Cl    Cl    0.193784 0.277643 0.103015 -0.498997
Cl11  Cl    Cl    0.728895 0.438089 0.312178 -0.594921
Cl12  Cl    Cl    0.802531 0.722431 0.094574 -0.517105
Cl13  Cl    Cl    0.270362 0.439298 0.682850 -0.584720
Cl14  Cl    Cl    0.197683 0.718514 0.902753 -0.528086
Cl15  Cl    Cl    0.738429 0.558077 0.695726 -0.590702
Cl16  Cl    Cl    0.808626 0.276821 0.899675 -0.507721
N33   N     N_R   0.449229 0.748867 0.851492 0.210579
O1    O     O_R   0.467699 0.775176 0.784499 -0.331241
O2    O     O_R   0.450372 0.794671 0.909956 -0.375800
N34   N     N_R   0.229508 0.420744 0.905243 0.254443
O3    O     O_R   0.186764 0.446571 0.850155 -0.286772
O4    O     O_R   0.195530 0.390092 0.963843 -0.227328
N35   N     N_R   0.554888 0.249162 0.853959 0.209670
O5    O     O_R   0.537808 0.221456 0.787327 -0.333298
O6    O     O_R   0.552076 0.204745 0.913623 -0.372987
N36   N     N_R   0.770298 0.575725 0.914871 0.250267
O7    O     O_R   0.823711 0.569633 0.863379 -0.266885
O8    O     O_R   0.789357 0.573605 0.986386 -0.265335
N37   N     N_R   0.448208 0.250817 0.148390 0.210729
O9    O     O_R   0.466804 0.224557 0.215331 -0.332535
O10   O     O_R   0.449848 0.205127 0.089844 -0.372005
N38   N     N_R   0.228803 0.575184 0.086936 0.255451
O11   O     O_R   0.167175 0.608312 0.112978 -0.258554
O12   O     O_R   0.221515 0.519836 0.038219 -0.315292
N39   N     N_R   0.551562 0.749050 0.147961 0.210187
O13   O     O_R   0.533202 0.775106 0.214966 -0.331051
O14   O     O_R   0.550215 0.795057 0.089443 -0.376449
N40   N     N_R   0.770149 0.423438 0.088810 0.248633
O15   O     O_R   0.821955 0.430434 0.141652 -0.273288
O16   O     O_R   0.791603 0.422427 0.017873 -0.262143
N41   N     N_R   0.949025 0.248881 0.351436 0.210876
O17   O     O_R   0.967306 0.275306 0.284438 -0.330847
O18   O     O_R   0.950107 0.294644 0.409933 -0.375073
N42   N     N_R   0.729380 0.920614 0.407254 0.255550
O19   O     O_R   0.686100 0.947323 0.353002 -0.283579
O20   O     O_R   0.695989 0.889647 0.466024 -0.228486
N43   N     N_R   0.054476 0.749251 0.353927 0.209079
O21   O     O_R   0.036849 0.721955 0.287269 -0.333757
O22   O     O_R   0.051601 0.704626 0.413436 -0.373815
N44   N     N_R   0.270350 0.075467 0.414088 0.249803
O23   O     O_R   0.325667 0.076188 0.364257 -0.266276
O24   O     O_R   0.286631 0.063646 0.485333 -0.274734
N45   N     N_R   0.948107 0.750594 0.648048 0.210348
O25   O     O_R   0.966909 0.724308 0.714922 -0.333443
O26   O     O_R   0.949858 0.705014 0.589421 -0.372555
N46   N     N_R   0.728876 0.075151 0.588199 0.254059
O27   O     O_R   0.667621 0.106980 0.616608 -0.260721
O28   O     O_R   0.720916 0.021278 0.537980 -0.313809
N47   N     N_R   0.051755 0.249036 0.648036 0.210667
O29   O     O_R   0.033800 0.275382 0.715036 -0.330533
O30   O     O_R   0.050564 0.294929 0.589426 -0.375629
N48   N     N_R   0.270205 0.922840 0.588646 0.250409
O31   O     O_R   0.320038 0.935670 0.642231 -0.274398
O32   O     O_R   0.294513 0.913147 0.519297 -0.254256

loop_
_geom_bond_atom_site_label_1
_geom_bond_atom_site_label_2
_geom_bond_distance
_ccdc_geom_bond_type
C71   C74   1.351817 A    
N32   Ni6   1.878771 S    
C22   H22   1.111186 S    
C4    N4    1.334217 A    
C8    H8    1.078446 S    
C49   C84   1.406311 S    
C5    N5    1.336190 A    
C98   C111  1.397907 A    
C2    H2    1.078429 S    
C34   N18   1.331983 A    
C99   C110  1.396881 A    
N35   O5    1.301181 A    
C110  H46   1.083247 S    
C15   N15   1.334969 A    
C45   C64   1.383522 A    
C36   N36   1.428349 S    
C16   N16   1.336221 A    
N34   O4    1.299685 A    
C53   C88   1.409116 S    
C9    H9    1.074844 S    
C3    C51   1.366539 A    
C14   N14   1.333480 A    
C43   C58   1.384203 A    
C107  H43   1.081897 S    
N12   N25   1.399625 A    
C24   C25   1.521917 S    
C36   C51   1.363527 A    
C47   N47   1.429469 S    
C48   N32   1.325884 A    
C4    C52   1.380835 A    
C23   H23   1.112592 S    
N6    N23   1.398780 A    
C41   C60   1.381842 A    
C17   H17   1.112539 S    
C12   H12   1.072132 S    
N35   O6    1.301366 A    
C7    N7    1.335286 A    
C13   H13   1.074852 S    
C112  H48   1.083230 S    
N1    N18   1.398780 A    
C40   C55   1.365173 A    
C42   N42   1.429610 S    
C20   C29   1.520847 S    
C103  H39   1.081495 S    
N45   O25   1.301188 A    
N6    Ni2   1.882951 S    
C45   N45   1.429403 S    
C104  H40   1.083257 S    
C15   C63   1.363747 A    
C72   C88   1.384179 A    
N12   Ni8   1.878522 S    
C26   Cl10  1.785858 S    
C93   C101  1.400574 A    
N15   N32   1.399625 A    
C6    H6    1.078190 S    
C25   Cl9   1.782594 S    
C12   C60   1.380763 A    
C46   C61   1.366498 A    
N21   Ni1   1.879734 S    
N42   O19   1.300145 A    
N14   Ni6   1.882951 S    
N31   Ni7   1.882247 S    
N41   O17   1.301137 A    
C25   H25   1.112524 S    
C24   C73   1.498095 S    
N20   Ni2   1.878748 S    
C23   C26   1.520597 S    
C69   C76   1.352850 A    
C40   N24   1.325332 A    
N8    N21   1.398780 A    
C32   H32   1.111282 S    
C42   C57   1.365138 A    
C26   C71   1.498316 S    
C44   N28   1.324132 A    
C27   C70   1.495598 S    
C29   H29   1.112585 S    
C20   C77   1.499208 S    
C22   Cl6   1.788770 S    
N46   O28   1.296310 A    
C21   Cl5   1.783196 S    
N39   O13   1.301128 A    
C6    N6    1.333714 A    
C65   C80   1.351321 A    
C3    H3    1.075309 S    
N4    N17   1.399625 A    
C41   N41   1.429581 S    
C11   H11   1.075322 S    
C30   C67   1.499064 S    
N17   Ni3   1.882159 S    
C91   C99   1.401488 A    
N10   N27   1.399624 A    
C34   C49   1.365822 A    
C20   H20   1.111059 S    
C22   C27   1.521876 S    
C89   C97   1.401997 A    
C10   H10   1.078887 S    
C2    C50   1.379704 A    
N16   N29   1.398780 A    
C18   Cl2   1.785769 S    
C21   H21   1.112605 S    
C17   Cl1   1.782480 S    
C35   N19   1.322822 A    
N14   N31   1.398782 A    
C38   C53   1.366115 A    
N27   Ni5   1.879788 S    
C18   C31   1.520072 S    
N39   O14   1.301383 A    
C19   C30   1.521524 S    
C85   C109  1.400697 A    
C70   C86   1.383114 A    
C43   N43   1.429258 S    
C18   C79   1.498237 S    
N34   O3    1.300233 A    
C80   C96   1.383767 A    
C21   C28   1.520266 S    
C27   Cl11  1.782943 S    
C47   C62   1.383239 A    
C48   C63   1.364743 A    
N40   O16   1.299792 A    
C32   C65   1.498139 S    
N43   O22   1.301364 A    
C81   C105  1.401924 A    
C19   Cl3   1.783168 S    
C78   C94   1.383379 A    
C94   C102  1.401915 A    
N9    N26   1.398780 A    
C30   Cl14  1.788829 S    
C33   C52   1.381523 A    
N29   Ni5   1.879734 S    
C29   Cl13  1.783124 S    
C16   C64   1.381379 A    
C43   N27   1.322497 A    
N7    N24   1.399624 A    
C44   C59   1.364253 A    
C77   C93   1.389103 A    
C19   C78   1.496053 S    
N16   Ni8   1.878501 S    
C61   C96   1.408549 S    
N30   Ni8   1.883143 S    
N45   O26   1.301381 A    
C103  C106  1.397584 A    
N10   Ni6   1.882897 S    
C23   C74   1.495141 S    
C31   H31   1.112611 S    
C14   C62   1.381050 A    
C59   C90   1.410055 S    
N7    Ni1   1.881910 S    
N44   O23   1.300249 A    
C14   H14   1.077372 S    
C39   N39   1.429340 S    
C46   N30   1.328335 A    
C37   N37   1.429468 S    
C111  H47   1.081657 S    
N5    N22   1.399624 A    
C57   C92   1.406558 S    
N41   O18   1.301367 A    
C38   N38   1.434175 S    
C76   C92   1.383094 A    
N5    Ni3   1.879540 S    
N9    Ni5   1.881999 S    
N23   Ni3   1.882247 S    
C10   C58   1.380028 A    
C97   C112  1.396543 A    
N37   O9    1.301182 A    
C46   N46   1.433790 S    
C28   C69   1.499203 S    
C8    C56   1.381178 A    
N18   Ni4   1.883202 S    
C28   H28   1.110968 S    
C90   C98   1.402254 A    
C3    N3    1.337131 A    
C40   N40   1.427886 S    
N46   O27   1.300870 A    
C98   H34   1.083213 S    
C6    C54   1.381310 A    
N38   O12   1.296264 A    
N2    N19   1.399624 A    
C62   C93   1.415237 S    
C65   C81   1.386706 A    
C19   H19   1.112563 S    
C11   N11   1.337079 A    
C10   N10   1.333153 A    
C86   C110  1.402062 A    
N28   Ni6   1.878748 S    
C42   N26   1.331250 A    
N48   O31   1.300326 A    
C105  H41   1.081875 S    
C102  H38   1.083244 S    
C74   C90   1.383446 A    
C39   N23   1.321685 A    
C58   C89   1.415564 S    
C69   C85   1.388916 A    
C104  C105  1.396484 A    
C68   C84   1.382610 A    
N3    Ni3   1.879486 S    
N36   O8    1.299422 A    
C82   C106  1.402079 A    
C31   C66   1.495955 S    
N24   Ni2   1.878771 S    
C9    C57   1.359852 A    
C92   C100  1.401674 A    
N2    Ni2   1.882897 S    
C41   N25   1.322344 A    
N3    N20   1.398782 A    
C38   N22   1.327986 A    
N11   Ni7   1.879486 S    
C27   H27   1.112555 S    
C37   N21   1.322852 A    
C26   H26   1.111078 S    
C95   C103  1.401988 A    
C54   C85   1.415493 S    
C96   C104  1.401406 A    
N40   O15   1.300632 A    
C48   N48   1.427738 S    
C106  H42   1.083219 S    
C83   C107  1.401355 A    
C24   H24   1.111163 S    
C2    N2    1.332871 A    
N13   N30   1.399624 A    
C13   C61   1.362851 A    
C70   C75   1.352471 A    
C30   H30   1.111137 S    
C28   Cl12  1.786956 S    
N25   Ni7   1.882159 S    
C72   C73   1.351265 A    
C55   C86   1.408677 S    
C11   C59   1.366514 A    
N19   Ni1   1.879788 S    
C36   N20   1.323798 A    
N48   O32   1.299702 A    
N43   O21   1.301176 A    
C18   H18   1.111047 S    
C29   C68   1.496036 S    
C15   H15   1.075073 S    
C33   N33   1.429537 S    
C17   C80   1.494317 S    
C64   C95   1.418877 S    
C44   N44   1.429123 S    
C66   C79   1.352348 A    
C16   H16   1.078493 S    
C23   Cl7   1.782782 S    
C67   C83   1.388376 A    
C67   C78   1.352729 A    
N1    Ni1   1.881999 S    
C101  C108  1.395196 A    
C99   H35   1.081972 S    
C31   Cl15  1.783058 S    
C97   H33   1.081612 S    
N33   O1    1.301135 A    
C60   C91   1.416866 S    
C35   N35   1.429402 S    
C24   Cl8   1.786920 S    
N37   O10   1.301379 A    
N47   O30   1.301391 A    
C47   N31   1.321993 A    
C13   N13   1.335726 A    
C84   C108  1.401835 A    
N13   Ni7   1.879540 S    
N8    Ni4   1.878501 S    
C7    H7    1.075136 S    
C73   C89   1.386497 A    
C100  H36   1.083266 S    
C79   C95   1.387524 A    
C68   C77   1.352818 A    
C101  H37   1.081937 S    
N38   O11   1.300779 A    
C50   C81   1.415104 S    
C63   C94   1.408469 S    
N42   O20   1.299702 A    
C108  H44   1.083271 S    
N26   Ni8   1.883202 S    
C71   C87   1.387473 A    
C21   C76   1.496368 S    
C35   C50   1.384248 A    
N33   O2    1.301367 A    
N11   N28   1.398782 A    
C1    C49   1.359355 A    
N22   Ni4   1.883143 S    
C1    N1    1.331717 A    
C20   Cl4   1.787613 S    
C7    C55   1.364500 A    
C4    H4    1.071988 S    
C109  H45   1.081764 S    
N15   Ni5   1.881910 S    
C34   N34   1.429564 S    
C1    H1    1.074885 S    
C9    N9    1.332250 A    
N36   O7    1.300483 A    
C5    H5    1.074796 S    
C52   C83   1.416688 S    
C5    C53   1.363321 A    
C17   C32   1.522323 S    
C33   N17   1.322059 A    
C12   N12   1.334212 A    
C37   C56   1.383790 A    
C75   C91   1.388293 A    
C8    N8    1.336099 A    
C87   C111  1.402140 A    
C66   C82   1.384041 A    
C100  C109  1.395197 A    
N44   O24   1.298686 A    
C102  C107  1.396569 A    
C88   C112  1.401353 A    
C39   C54   1.383251 A    
C32   Cl16  1.787345 S    
C25   C72   1.494527 S    
N47   O29   1.301129 A    
C56   C87   1.418818 S    
C45   N29   1.322562 A    
C22   C75   1.498991 S    
C51   C82   1.410062 S    
N4    Ni4   1.878522 S    
