data_mof_unit_32787.cif
_audit_creation_date              2013-03-05T16:30:29-0500
_audit_creation_method            fapswitch 2.2
_symmetry_space_group_name_H-M    P1
_symmetry_Int_Tables_number       1
_space_group_crystal_system       triclinic
_cell_length_a                    8.608033
_cell_length_b                    14.911953
_cell_length_c                    14.271676
_cell_angle_alpha                 89.309443
_cell_angle_beta                  98.274729
_cell_angle_gamma                 92.304153
_cell_volume                      1811.37533092

loop_
_atom_site_label
_atom_site_type_symbol
_atom_site_description
_atom_site_fract_x
_atom_site_fract_y
_atom_site_fract_z
_atom_type_partial_charge
O1    O     O_R   0.500010 0.369070 0.579480 -0.617358
O2    O     O_R   0.499990 0.630930 0.420520 -0.634537
O3    O     O_R   0.500010 0.369060 0.420520 -0.602712
O4    O     O_R   0.499990 0.630940 0.579480 -0.603495
C1    C     C_R   0.509424 0.327634 0.501524 0.891660
C2    C     C_R   0.498917 0.672078 0.499216 0.952732
O5    O     O_R   0.271750 0.500000 0.560890 -0.637154
O6    O     O_R   0.728250 0.500000 0.439110 -0.622181
O7    O     O_R   0.271750 0.499990 0.401930 -0.560968
O8    O     O_R   0.728250 0.500010 0.598070 -0.563609
C3    C     C_R   0.201783 0.499328 0.475590 0.952996
C4    C     C_R   0.798480 0.502292 0.524237 0.905373
Zn1   Zn    Zn3+2 0.500000 0.500010 0.606140 1.039264
Zn2   Zn    Zn3+2 0.500000 0.499990 0.393860 1.032893
C5    C     C_2   0.037853 0.486827 0.465081 0.025542
C6    C     C_2   0.962173 0.519279 0.533135 -0.032901
C7    C     C_R   0.563726 0.088632 0.584799 -0.199634
C8    C     C_R   0.452111 0.911532 0.425959 -0.214964
H1    H     H_    0.560283 0.048056 0.648070 0.179600
H2    H     H_    0.379449 0.952709 0.375649 0.184537
C9    C     C_R   0.547530 0.180622 0.589294 0.305093
C10   C     C_R   0.421492 0.819316 0.428304 0.287399
C11   C     C_R   0.540953 0.232180 0.504822 -0.155329
C12   C     C_R   0.512638 0.768225 0.498094 -0.134884
C13   C     C_R   0.567758 0.191365 0.420615 -0.160408
C14   C     C_R   0.631480 0.808735 0.562752 -0.230657
H3    H     H_    0.572998 0.229634 0.356251 0.193379
H4    H     H_    0.704927 0.769088 0.613984 0.177951
C15   C     C_R   0.585804 0.099989 0.417574 -0.152679
C16   C     C_R   0.659053 0.900387 0.560330 -0.130358
H5    H     H_    0.600118 0.069012 0.351202 0.166377
H6    H     H_    0.749428 0.931458 0.611805 0.163137
C17   C     C_R   0.578868 0.048439 0.498931 0.056983
C18   C     C_R   0.568248 0.951787 0.492676 0.067030
C19   C     C_R   0.386763 0.454002 0.094744 -0.278147
C20   C     C_R   0.569135 0.567791 0.901844 -0.285797
H7    H     H_    0.287618 0.423396 0.049397 0.191104
H8    H     H_    0.611317 0.626623 0.942794 0.182812
C21   C     C_R   0.386302 0.453087 0.193764 0.297929
C22   C     C_R   0.574619 0.567832 0.803165 0.320287
N1    N     N_R   0.500000 0.499980 0.252470 -0.144841
N2    N     N_R   0.500000 0.500020 0.747530 -0.145267
C23   C     C_R   0.614490 0.548894 0.213132 0.239816
C24   C     C_R   0.421886 0.431454 0.790528 0.253523
C25   C     C_R   0.636574 0.535098 0.117461 0.230035
C26   C     C_R   0.450617 0.419129 0.890840 0.214312
C27   C     C_R   0.514837 0.491972 0.054905 0.013212
C28   C     C_R   0.514166 0.491886 0.948183 0.011605
N3    N     N_R   0.966599 0.422577 0.395809 0.200470
O9    O     O_R   0.940740 0.445144 0.306839 -0.356483
O10   O     O_R   0.920483 0.343318 0.422398 -0.413516
N4    N     N_R   0.032297 0.585733 0.600779 0.204199
O11   O     O_R   0.005632 0.581097 0.688056 -0.409897
O12   O     O_R   0.106609 0.656531 0.572673 -0.358688
N5    N     N_R   0.539046 0.219359 0.679738 0.209823
O13   O     O_R   0.653718 0.272359 0.718333 -0.350749
O14   O     O_R   0.441001 0.184437 0.732650 -0.327263
N6    N     N_R   0.295129 0.779886 0.362572 0.204423
O15   O     O_R   0.208715 0.712957 0.388177 -0.345139
O16   O     O_R   0.253836 0.817629 0.280545 -0.370717
N7    N     N_2   0.258900 0.410231 0.231422 -0.249689
H9    H     H_    0.153322 0.436555 0.203196 0.287177
C29   C     C_3   0.252522 0.313433 0.225228 -0.629451
H10   H     H_    0.221899 0.291947 0.150322 0.244604
H11   H     H_    0.161491 0.285441 0.266341 0.262138
H12   H     H_    0.367126 0.286175 0.254993 0.233162
N8    N     N_2   0.646577 0.642132 0.760529 -0.277141
H13   H     H_    0.569595 0.692762 0.742304 0.233269
C30   C     C_3   0.796492 0.675912 0.809280 -0.626308
H14   H     H_    0.779153 0.719053 0.869531 0.216552
H15   H     H_    0.857620 0.717357 0.759691 0.254722
H16   H     H_    0.872114 0.619676 0.835779 0.292259
N9    N     N_2   0.701084 0.620798 0.263678 -0.242741
H17   H     H_    0.724808 0.613795 0.335356 0.280686
C31   C     C_3   0.641632 0.708457 0.237376 -0.641312
H18   H     H_    0.520308 0.713160 0.254262 0.249936
H19   H     H_    0.640588 0.721396 0.160494 0.250760
H20   H     H_    0.717975 0.761105 0.277250 0.251166
N10   N     N_2   0.303200 0.376139 0.736626 -0.253592
H21   H     H_    0.305364 0.371530 0.665749 0.274549
C32   C     C_3   0.143800 0.384303 0.756966 -0.561647
H22   H     H_    0.069690 0.413579 0.695108 0.232649
H23   H     H_    0.138518 0.426957 0.819752 0.231481
H24   H     H_    0.092309 0.316639 0.769711 0.280023
N11   N     N_R   0.785798 0.558482 0.086614 0.212180
O17   O     O_R   0.844928 0.504158 0.031634 -0.363567
O18   O     O_R   0.872643 0.626741 0.121951 -0.338236
N12   N     N_R   0.429113 0.331769 0.933159 0.229664
O19   O     O_R   0.531267 0.305420 0.003311 -0.329214
O20   O     O_R   0.321478 0.273918 0.895918 -0.319241

loop_
_geom_bond_atom_site_label_1
_geom_bond_atom_site_label_2
_geom_bond_distance
_ccdc_geom_bond_type
C23   N9    1.423134 S    
N5    O13   1.301404 A    
C29   H11   1.110255 S    
N1    C23   1.382058 A    
N9    H17   1.018854 S    
C19   C21   1.413656 A    
O7    Zn2   1.984635 S    
C19   C27   1.407752 A    
C32   H22   1.108118 S    
C21   N1    1.368174 A    
N11   O17   1.301710 A    
O5    C3    1.278119 A    
N2    C24   1.386535 A    
O1    C1    1.293327 A    
C19   H7    1.082736 S    
C12   C14   1.398205 A    
C30   H14   1.110646 S    
N6    O16   1.301538 A    
C5    C6    1.349329 D    
C15   C17   1.391906 A    
C30   H15   1.109146 S    
C25   C27   1.413900 A    
O4    Zn1   1.984644 S    
N7    C29   1.445560 S    
C3    C5    1.402533 S    
C4    C6    1.409386 S    
N4    O12   1.301547 A    
N3    O10   1.301269 A    
C22   N8    1.420764 S    
C22   N2    1.373280 A    
C29   H12   1.107406 S    
N9    C31   1.448500 S    
O2    C2    1.287658 A    
C7    C17   1.395700 A    
Zn1   N2    2.017875 S    
C32   H23   1.112358 S    
C24   C26   1.428251 A    
C26   N12   1.445656 S    
C8    C18   1.399246 A    
C9    C11   1.417457 A    
C13   C15   1.379528 A    
C21   N7    1.415972 S    
C26   C28   1.410993 A    
C16   C18   1.394215 A    
N11   O18   1.300736 A    
N8    H13   1.030859 S    
C20   C22   1.415879 A    
O4    C2    1.291916 A    
N10   C32   1.452834 S    
N6    O15   1.301029 A    
C7    C9    1.387567 A    
N10   H21   1.017577 S    
N8    C30   1.449436 S    
C30   H16   1.111480 S    
C25   N11   1.445147 S    
C31   H18   1.110147 S    
O7    C3    1.284324 A    
C27   C28   1.522288 S    
C1    C11   1.458669 S    
O6    C4    1.276941 A    
C2    C12   1.433947 S    
C17   C18   1.443514 S    
C23   C25   1.423857 A    
O3    Zn2   1.984644 S    
O8    C4    1.287549 A    
Zn2   N1    2.017875 S    
N12   O20   1.300066 A    
C14   C16   1.378612 A    
N5    O14   1.300900 A    
C10   C12   1.411693 A    
O1    Zn1   1.993798 S    
C32   H24   1.109268 S    
N4    O11   1.299193 A    
C9    N5    1.433051 S    
O6    Zn2   1.977922 S    
C8    C10   1.390630 A    
C24   N10   1.427325 S    
C6    N4    1.444160 S    
O3    C1    1.297890 A    
O8    Zn1   1.984634 S    
C10   N6    1.441218 S    
C13   H3    1.081065 S    
C14   H4    1.081866 S    
C20   H8    1.081078 S    
C15   H5    1.083753 S    
C16   H6    1.083643 S    
C7    H1    1.084180 S    
C20   C28   1.404066 A    
C8    H2    1.083874 S    
C5    N3    1.439640 S    
N7    H9    1.030448 S    
O2    Zn2   1.993798 S    
C31   H20   1.110715 S    
C29   H10   1.111455 S    
O5    Zn1   1.977923 S    
C11   C13   1.405938 A    
N12   O19   1.301883 A    
N3    O9    1.299786 A    
C31   H19   1.110606 S    
