data_mof_unit_65093.cif
_audit_creation_date              2013-03-05T16:08:06-0500
_audit_creation_method            fapswitch 2.2
_symmetry_space_group_name_H-M    P1
_symmetry_Int_Tables_number       1
_space_group_crystal_system       monoclinic
_cell_length_a                    38.855301
_cell_length_b                    38.855312
_cell_length_c                    47.178785
_cell_angle_alpha                 90.0
_cell_angle_beta                  90.0
_cell_angle_gamma                 89.851672
_cell_volume                      71227.2168936

loop_
_atom_site_label
_atom_site_type_symbol
_atom_site_description
_atom_site_fract_x
_atom_site_fract_y
_atom_site_fract_z
_atom_type_partial_charge
O1    O     O_R   0.549940 0.971070 0.000000 -0.578897
O2    O     O_R   0.971070 0.450060 0.000000 -0.584091
O3    O     O_R   0.450060 0.028930 0.000000 -0.578897
O4    O     O_R   0.028930 0.549940 0.000000 -0.584092
O5    O     O_R   0.549940 0.028930 0.000000 -0.584094
O6    O     O_R   0.971070 0.549940 0.000000 -0.578898
O7    O     O_R   0.450060 0.971070 0.000000 -0.584094
O8    O     O_R   0.028930 0.450060 0.000000 -0.578898
O9    O     O_R   0.049940 0.471070 0.500000 -0.578897
O10   O     O_R   0.471070 0.950060 0.500000 -0.584094
O11   O     O_R   0.950060 0.528930 0.500000 -0.578896
O12   O     O_R   0.528930 0.049940 0.500000 -0.584094
O13   O     O_R   0.049940 0.528930 0.500000 -0.584096
O14   O     O_R   0.471070 0.049940 0.500000 -0.578897
O15   O     O_R   0.950060 0.471070 0.500000 -0.584096
O16   O     O_R   0.528930 0.950060 0.500000 -0.578897
C1    C     C_R   0.566417 0.999963 0.000005 0.789562
C2    C     C_R   0.000037 0.433583 0.999995 0.789568
C3    C     C_R   0.433583 0.000037 0.000005 0.789562
C4    C     C_R   0.999963 0.566417 0.999995 0.789567
C5    C     C_R   0.066417 0.499963 0.500005 0.789556
C6    C     C_R   0.500037 0.933583 0.499995 0.789563
C7    C     C_R   0.933583 0.500037 0.500005 0.789558
C8    C     C_R   0.499963 0.066417 0.499995 0.789562
O17   O     O_R   0.499990 0.971070 0.958930 -0.576160
O18   O     O_R   0.971070 0.500010 0.958930 -0.576079
O19   O     O_R   0.500010 0.028930 0.958930 -0.576161
O20   O     O_R   0.028930 0.499990 0.958930 -0.576080
O21   O     O_R   0.499990 0.028930 0.041070 -0.576079
O22   O     O_R   0.971070 0.499990 0.041070 -0.576171
O23   O     O_R   0.500010 0.971070 0.041070 -0.576079
O24   O     O_R   0.028930 0.500010 0.041070 -0.576171
O25   O     O_R   0.999990 0.471070 0.458930 -0.576149
O26   O     O_R   0.471070 0.000010 0.458930 -0.576079
O27   O     O_R   0.000010 0.528930 0.458930 -0.576150
O28   O     O_R   0.528930 0.999990 0.458930 -0.576080
O29   O     O_R   0.999990 0.528930 0.541070 -0.576079
O30   O     O_R   0.471070 0.999990 0.541070 -0.576161
O31   O     O_R   0.000010 0.471070 0.541070 -0.576079
O32   O     O_R   0.528930 0.000010 0.541070 -0.576161
C9    C     C_R   0.500000 1.000000 0.945405 0.838002
C10   C     C_R   1.000000 0.500000 0.945405 0.837941
C11   C     C_R   0.500000 0.000000 0.054595 0.837941
C12   C     C_R   0.000000 0.500000 0.054596 0.838015
C13   C     C_R   0.000000 0.500000 0.445405 0.837988
C14   C     C_R   0.500000 1.000000 0.445405 0.837941
C15   C     C_R   0.000000 0.500000 0.554595 0.837941
C16   C     C_R   0.500000 0.000000 0.554595 0.838003
Cu1   Cu    Cu3+1 0.500000 0.965750 0.000000 1.013637
Cu2   Cu    Cu3+1 0.965750 0.500000 0.000000 1.013634
Cu3   Cu    Cu3+1 0.500000 0.034250 0.000000 1.013636
Cu4   Cu    Cu3+1 0.034250 0.500000 0.000000 1.013633
Cu5   Cu    Cu3+1 0.000000 0.465750 0.500000 1.013639
Cu6   Cu    Cu3+1 0.465750 1.000000 0.500000 1.013636
Cu7   Cu    Cu3+1 0.000000 0.534250 0.500000 1.013639
Cu8   Cu    Cu3+1 0.534250 1.000000 0.500000 1.013636
C17   C     C_R   0.521148 0.977625 0.690290 0.624546
C18   C     C_R   0.022373 0.478851 0.690290 0.624586
C19   C     C_R   0.478852 0.022375 0.690290 0.624546
C20   C     C_R   0.977627 0.521149 0.690290 0.624586
C21   C     C_R   0.521150 0.977627 0.309710 0.624586
C22   C     C_R   0.977647 0.521171 0.309710 0.624544
C23   C     C_R   0.478850 0.022373 0.309710 0.624586
C24   C     C_R   0.022353 0.478829 0.309710 0.624544
C25   C     C_R   0.978875 0.522396 0.190291 0.624547
C26   C     C_R   0.522373 0.978851 0.190290 0.624587
C27   C     C_R   0.021125 0.477604 0.190291 0.624547
C28   C     C_R   0.477627 0.021149 0.190290 0.624587
C29   C     C_R   0.021149 0.477627 0.809710 0.624586
C30   C     C_R   0.522374 0.978852 0.809710 0.624546
C31   C     C_R   0.978851 0.522373 0.809710 0.624587
C32   C     C_R   0.477626 0.021148 0.809710 0.624546
N1    N     N_R   0.500000 0.000000 0.676042 -0.448968
N2    N     N_R   0.000000 0.500000 0.676042 -0.449015
N3    N     N_R   0.500000 0.000000 0.323958 -0.449015
N4    N     N_R   0.000000 0.500000 0.323958 -0.448970
N5    N     N_R   0.000000 0.500000 0.176043 -0.448968
N6    N     N_R   0.500000 1.000000 0.176042 -0.449016
N7    N     N_R   1.000000 0.500000 0.823958 -0.449015
N8    N     N_R   0.500000 1.000000 0.823958 -0.448968
C33   C     C_R   0.478060 0.022494 0.720070 -0.027809
C34   C     C_R   0.977507 0.521941 0.720069 -0.027845
C35   C     C_R   0.521940 0.977506 0.720070 -0.027809
C36   C     C_R   0.022492 0.478059 0.720069 -0.027845
C37   C     C_R   0.478058 0.022492 0.279931 -0.027845
C38   C     C_R   0.022471 0.478036 0.279931 -0.027808
C39   C     C_R   0.521941 0.977507 0.279931 -0.027845
C40   C     C_R   0.977529 0.521964 0.279931 -0.027808
C41   C     C_R   0.021918 0.477484 0.220070 -0.027807
C42   C     C_R   0.477507 0.021941 0.220069 -0.027845
C43   C     C_R   0.978082 0.522516 0.220070 -0.027807
C44   C     C_R   0.522493 0.978059 0.220069 -0.027845
C45   C     C_R   0.978059 0.522493 0.779930 -0.027845
C46   C     C_R   0.477507 0.021941 0.779930 -0.027809
C47   C     C_R   0.021941 0.477507 0.779930 -0.027845
C48   C     C_R   0.522493 0.978059 0.779930 -0.027809
C49   C     C_R   0.500000 0.000000 0.735017 -0.006119
C50   C     C_R   0.000000 0.500000 0.735016 -0.006087
C51   C     C_R   0.500000 1.000000 0.264983 -0.006088
C52   C     C_R   0.000000 0.500000 0.264984 -0.006123
C53   C     C_R   0.000000 0.500000 0.235017 -0.006119
C54   C     C_R   0.500000 1.000000 0.235016 -0.006087
C55   C     C_R   1.000000 0.500000 0.764984 -0.006087
C56   C     C_R   0.500000 1.000000 0.764983 -0.006120
C57   C     C_R   0.455937 0.044488 0.735201 -0.119924
C58   C     C_R   0.955514 0.544065 0.735201 -0.119894
C59   C     C_R   0.544063 0.955512 0.735201 -0.119924
C60   C     C_R   0.044486 0.455935 0.735201 -0.119895
C61   C     C_R   0.455935 0.044486 0.264799 -0.119894
C62   C     C_R   0.044442 0.455890 0.264799 -0.119921
C63   C     C_R   0.544065 0.955514 0.264799 -0.119894
C64   C     C_R   0.955558 0.544110 0.264799 -0.119921
C65   C     C_R   0.044018 0.455467 0.235202 -0.119925
C66   C     C_R   0.455513 0.044064 0.235201 -0.119894
C67   C     C_R   0.955982 0.544533 0.235202 -0.119925
C68   C     C_R   0.544487 0.955936 0.235201 -0.119894
C69   C     C_R   0.955936 0.544486 0.764799 -0.119895
C70   C     C_R   0.455514 0.044065 0.764799 -0.119924
C71   C     C_R   0.044064 0.455514 0.764799 -0.119895
C72   C     C_R   0.544486 0.955935 0.764799 -0.119924
O33   O     O_2   0.541326 0.955586 0.675665 -0.489872
O34   O     O_2   0.044410 0.458670 0.675665 -0.489577
O35   O     O_2   0.458674 0.044414 0.675665 -0.489872
O36   O     O_2   0.955590 0.541330 0.675665 -0.489577
O37   O     O_2   0.541330 0.955590 0.324335 -0.489578
O38   O     O_2   0.955628 0.541372 0.324335 -0.489869
O39   O     O_2   0.458670 0.044410 0.324335 -0.489578
O40   O     O_2   0.044372 0.458628 0.324335 -0.489869
O41   O     O_2   0.958718 0.544455 0.175666 -0.489874
O42   O     O_2   0.544410 0.958670 0.175665 -0.489578
O43   O     O_2   0.041282 0.455544 0.175666 -0.489874
O44   O     O_2   0.455590 0.041330 0.175665 -0.489578
O45   O     O_2   0.041330 0.455590 0.824335 -0.489578
O46   O     O_2   0.544413 0.958673 0.824335 -0.489872
O47   O     O_2   0.958670 0.544410 0.824335 -0.489578
O48   O     O_2   0.455587 0.041327 0.824335 -0.489872
H1    H     H_    0.438754 0.061977 0.724232 0.200712
H2    H     H_    0.938025 0.561248 0.724232 0.200730
H3    H     H_    0.561246 0.938023 0.724232 0.200712
H4    H     H_    0.061975 0.438752 0.724232 0.200730
H5    H     H_    0.438751 0.061975 0.275768 0.200729
H6    H     H_    0.061913 0.438688 0.275768 0.200712
H7    H     H_    0.561249 0.938025 0.275768 0.200729
H8    H     H_    0.938087 0.561312 0.275768 0.200712
H9    H     H_    0.061184 0.437960 0.224233 0.200712
H10   H     H_    0.438024 0.061248 0.224232 0.200729
H11   H     H_    0.938816 0.562040 0.224233 0.200712
H12   H     H_    0.561975 0.938752 0.224232 0.200729
H13   H     H_    0.938752 0.561975 0.775768 0.200730
H14   H     H_    0.438025 0.061248 0.775768 0.200712
H15   H     H_    0.061248 0.438025 0.775768 0.200730
H16   H     H_    0.561975 0.938751 0.775768 0.200712
C73   C     C_R   0.514754 0.027563 0.869524 0.289393
C74   C     C_R   0.027559 0.514763 0.869525 0.289568
C75   C     C_R   0.485246 0.972436 0.869524 0.289392
C76   C     C_R   0.972441 0.485237 0.869525 0.289567
C77   C     C_R   0.514763 0.027559 0.130475 0.289567
C78   C     C_R   0.027576 0.514731 0.130476 0.289381
C79   C     C_R   0.485237 0.972441 0.130475 0.289567
C80   C     C_R   0.972424 0.485269 0.130476 0.289381
C81   C     C_R   0.014777 0.527551 0.369525 0.289404
C82   C     C_R   0.527559 0.014763 0.369525 0.289568
C83   C     C_R   0.985223 0.472449 0.369525 0.289404
C84   C     C_R   0.472441 0.985237 0.369525 0.289568
C85   C     C_R   0.014763 0.527559 0.630475 0.289568
C86   C     C_R   0.527564 0.014753 0.630475 0.289392
C87   C     C_R   0.985237 0.472441 0.630475 0.289568
C88   C     C_R   0.472436 0.985246 0.630475 0.289392
C89   C     C_R   0.514317 0.027646 0.899151 -0.221172
C90   C     C_R   0.027641 0.514326 0.899152 -0.221216
C91   C     C_R   0.485683 0.972354 0.899151 -0.221171
C92   C     C_R   0.972359 0.485674 0.899152 -0.221215
C93   C     C_R   0.514326 0.027641 0.100848 -0.221215
C94   C     C_R   0.027658 0.514294 0.100850 -0.221167
C95   C     C_R   0.485674 0.972359 0.100848 -0.221215
C96   C     C_R   0.972342 0.485706 0.100850 -0.221167
C97   C     C_R   0.014339 0.527634 0.399152 -0.221176
C98   C     C_R   0.527641 0.014326 0.399152 -0.221215
C99   C     C_R   0.985661 0.472366 0.399152 -0.221175
C100  C     C_R   0.472359 0.985674 0.399152 -0.221215
C101  C     C_R   0.014326 0.527641 0.600848 -0.221215
C102  C     C_R   0.527646 0.014316 0.600849 -0.221171
C103  C     C_R   0.985674 0.472359 0.600848 -0.221215
C104  C     C_R   0.472354 0.985684 0.600849 -0.221171
H17   H     H_    0.525772 0.049024 0.910433 0.195876
H18   H     H_    0.049015 0.525788 0.910435 0.194875
H19   H     H_    0.474228 0.950976 0.910433 0.195876
H20   H     H_    0.950985 0.474212 0.910435 0.194875
H21   H     H_    0.525788 0.049015 0.089565 0.194875
H22   H     H_    0.049046 0.525731 0.089568 0.195893
H23   H     H_    0.474212 0.950985 0.089565 0.194875
H24   H     H_    0.950954 0.474269 0.089568 0.195894
H25   H     H_    0.025811 0.549003 0.410434 0.195857
H26   H     H_    0.549015 0.025789 0.410435 0.194875
H27   H     H_    0.974189 0.450997 0.410434 0.195857
H28   H     H_    0.450985 0.974211 0.410435 0.194875
H29   H     H_    0.025789 0.549015 0.589565 0.194875
H30   H     H_    0.549025 0.025770 0.589567 0.195876
H31   H     H_    0.974211 0.450985 0.589565 0.194875
H32   H     H_    0.450975 0.974230 0.589567 0.195876
C105  C     C_R   0.500000 1.000000 0.914165 -0.139889
C106  C     C_R   1.000000 0.500000 0.914166 -0.138664
C107  C     C_R   0.500000 1.000000 0.085834 -0.138665
C108  C     C_R   0.000000 0.500000 0.085835 -0.139908
C109  C     C_R   0.000000 0.500000 0.414166 -0.139870
C110  C     C_R   0.500000 1.000000 0.414166 -0.138664
C111  C     C_R   0.000000 0.500000 0.585834 -0.138665
C112  C     C_R   0.500000 0.000000 0.585835 -0.139891
Cu9   Cu    Cu3+1 0.000000 1.000000 0.971840 1.039074
Cu10  Cu    Cu3+1 0.000000 1.000000 0.028160 1.039074
Cu11  Cu    Cu3+1 0.500000 0.500000 0.471840 1.039075
Cu12  Cu    Cu3+1 0.500000 0.500000 0.528160 1.039075
C113  C     C_R   0.500000 1.000000 0.854479 0.213571
C114  C     C_R   1.000000 0.500000 0.854480 0.213754
C115  C     C_R   0.500000 1.000000 0.145520 0.213754
C116  C     C_R   0.000000 0.500000 0.145521 0.213583
C117  C     C_R   0.000000 0.500000 0.354480 0.213555
C118  C     C_R   0.500000 1.000000 0.354480 0.213754
C119  C     C_R   0.000000 0.500000 0.645520 0.213754
C120  C     C_R   0.500000 0.000000 0.645521 0.213572
C121  C     C_R   0.622745 0.030560 0.004470 -0.156828
C122  C     C_R   0.030807 0.377160 0.004411 -0.154217
C123  C     C_R   0.377255 0.969440 0.004470 -0.156828
C124  C     C_R   0.969193 0.622840 0.004411 -0.154217
C125  C     C_R   0.622840 0.969193 0.995589 -0.154218
C126  C     C_R   0.030560 0.622745 0.995530 -0.156827
C127  C     C_R   0.377160 0.030807 0.995589 -0.154218
C128  C     C_R   0.969440 0.377255 0.995530 -0.156827
C129  C     C_R   0.122745 0.530560 0.504470 -0.156828
C130  C     C_R   0.530807 0.877160 0.504411 -0.154217
C131  C     C_R   0.877255 0.469440 0.504470 -0.156828
C132  C     C_R   0.469193 0.122840 0.504411 -0.154218
C133  C     C_R   0.122840 0.469193 0.495589 -0.154218
C134  C     C_R   0.530560 0.122745 0.495530 -0.156828
C135  C     C_R   0.877160 0.530807 0.495589 -0.154218
C136  C     C_R   0.469440 0.877255 0.495530 -0.156828
H33   H     H_    0.609297 0.054626 0.008010 0.168438
H34   H     H_    0.054841 0.390538 0.007956 0.168870
H35   H     H_    0.390703 0.945374 0.008010 0.168438
H36   H     H_    0.945159 0.609462 0.007956 0.168870
H37   H     H_    0.609462 0.945159 0.992044 0.168870
H38   H     H_    0.054626 0.609297 0.991990 0.168438
H39   H     H_    0.390538 0.054841 0.992044 0.168870
H40   H     H_    0.945374 0.390703 0.991990 0.168438
H41   H     H_    0.109297 0.554626 0.508010 0.168438
H42   H     H_    0.554841 0.890538 0.507956 0.168870
H43   H     H_    0.890703 0.445374 0.508010 0.168439
H44   H     H_    0.445159 0.109462 0.507956 0.168870
H45   H     H_    0.109462 0.445159 0.492044 0.168870
H46   H     H_    0.554626 0.109297 0.491990 0.168438
H47   H     H_    0.890538 0.554841 0.492044 0.168871
H48   H     H_    0.445374 0.890703 0.491990 0.168438
C137  C     C_R   0.658690 0.030502 0.004603 -0.118203
C138  C     C_R   0.030819 0.341207 0.004529 -0.119653
C139  C     C_R   0.341310 0.969498 0.004603 -0.118203
C140  C     C_R   0.969181 0.658793 0.004529 -0.119653
C141  C     C_R   0.658793 0.969181 0.995471 -0.119654
C142  C     C_R   0.030502 0.658690 0.995397 -0.118204
C143  C     C_R   0.341207 0.030819 0.995471 -0.119654
C144  C     C_R   0.969498 0.341310 0.995397 -0.118204
C145  C     C_R   0.158690 0.530502 0.504603 -0.118203
C146  C     C_R   0.530819 0.841207 0.504529 -0.119654
C147  C     C_R   0.841310 0.469498 0.504603 -0.118203
C148  C     C_R   0.469181 0.158793 0.504529 -0.119654
C149  C     C_R   0.158793 0.469181 0.495471 -0.119654
C150  C     C_R   0.530502 0.158690 0.495397 -0.118203
C151  C     C_R   0.841207 0.530819 0.495471 -0.119654
C152  C     C_R   0.469498 0.841310 0.495397 -0.118203
H49   H     H_    0.672009 0.054572 0.008108 0.170851
H50   H     H_    0.054912 0.327802 0.008030 0.170325
H51   H     H_    0.327991 0.945428 0.008108 0.170851
H52   H     H_    0.945088 0.672198 0.008030 0.170325
H53   H     H_    0.672198 0.945088 0.991970 0.170325
H54   H     H_    0.054572 0.672009 0.991891 0.170850
H55   H     H_    0.327802 0.054911 0.991970 0.170325
H56   H     H_    0.945428 0.327991 0.991891 0.170850
H57   H     H_    0.172009 0.554572 0.508108 0.170851
H58   H     H_    0.554912 0.827802 0.508030 0.170325
H59   H     H_    0.827991 0.445428 0.508108 0.170851
H60   H     H_    0.445088 0.172198 0.508030 0.170325
H61   H     H_    0.172198 0.445088 0.491970 0.170324
H62   H     H_    0.554572 0.172009 0.491892 0.170851
H63   H     H_    0.827802 0.554912 0.491970 0.170325
H64   H     H_    0.445428 0.827991 0.491892 0.170851
C153  C     C_R   0.677123 0.999826 0.000039 0.047082
C154  C     C_R   0.000174 0.322877 0.999960 0.047082
C155  C     C_R   0.322877 0.000174 0.000039 0.047082
C156  C     C_R   0.999826 0.677123 0.999960 0.047082
C157  C     C_R   0.177123 0.499826 0.500039 0.047082
C158  C     C_R   0.500174 0.822877 0.499960 0.047082
C159  C     C_R   0.822877 0.500174 0.500039 0.047082
C160  C     C_R   0.499826 0.177123 0.499960 0.047082
C161  C     C_R   0.604449 0.999897 0.000023 -0.043927
C162  C     C_R   0.000103 0.395551 0.999977 -0.043927
C163  C     C_R   0.395551 0.000103 0.000023 -0.043927
C164  C     C_R   0.999897 0.604449 0.999977 -0.043927
C165  C     C_R   0.104449 0.499897 0.500023 -0.043927
C166  C     C_R   0.500103 0.895551 0.499977 -0.043927
C167  C     C_R   0.895551 0.500103 0.500023 -0.043927
C168  C     C_R   0.499897 0.104449 0.499977 -0.043927
N9    N     N_R   0.733141 0.971815 0.990992 -0.203466
N10   N     N_R   0.972199 0.266997 0.990914 -0.202874
N11   N     N_R   0.266858 0.028185 0.990992 -0.203466
N12   N     N_R   0.027801 0.733002 0.990914 -0.202874
N13   N     N_R   0.733002 0.027801 0.009086 -0.202874
N14   N     N_R   0.971815 0.733141 0.009008 -0.203466
N15   N     N_R   0.266998 0.972199 0.009086 -0.202874
N16   N     N_R   0.028185 0.266858 0.009007 -0.203466
N17   N     N_R   0.233141 0.471815 0.490992 -0.203466
N18   N     N_R   0.472199 0.766997 0.490914 -0.202874
N19   N     N_R   0.766858 0.528185 0.490992 -0.203466
N20   N     N_R   0.527801 0.233002 0.490914 -0.202874
N21   N     N_R   0.233002 0.527801 0.509086 -0.202874
N22   N     N_R   0.471815 0.233141 0.509007 -0.203466
N23   N     N_R   0.766997 0.472199 0.509086 -0.202874
N24   N     N_R   0.528185 0.766858 0.509007 -0.203466
N25   N     N_R   0.767414 0.971826 0.990932 -0.160184
N26   N     N_R   0.972206 0.232728 0.990868 -0.159473
N27   N     N_R   0.232586 0.028174 0.990932 -0.160184
N28   N     N_R   0.027794 0.767272 0.990868 -0.159474
N29   N     N_R   0.767272 0.027794 0.009132 -0.159473
N30   N     N_R   0.971826 0.767414 0.009067 -0.160184
N31   N     N_R   0.232728 0.972206 0.009132 -0.159473
N32   N     N_R   0.028174 0.232586 0.009067 -0.160183
N33   N     N_R   0.267414 0.471826 0.490932 -0.160184
N34   N     N_R   0.472206 0.732727 0.490868 -0.159473
N35   N     N_R   0.732586 0.528174 0.490932 -0.160184
N36   N     N_R   0.527794 0.267272 0.490868 -0.159473
N37   N     N_R   0.267272 0.527794 0.509132 -0.159473
N38   N     N_R   0.471826 0.267414 0.509068 -0.160184
N39   N     N_R   0.732727 0.472206 0.509132 -0.159473
N40   N     N_R   0.528174 0.732586 0.509068 -0.160184
C169  C     C_R   0.785057 0.999812 0.000027 0.548676
C170  C     C_R   0.000188 0.214943 0.999972 0.548675
C171  C     C_R   0.214943 0.000188 0.000027 0.548676
C172  C     C_R   0.999812 0.785057 0.999972 0.548676
C173  C     C_R   0.285057 0.499812 0.500027 0.548676
C174  C     C_R   0.500188 0.714943 0.499972 0.548676
C175  C     C_R   0.714943 0.500188 0.500027 0.548676
C176  C     C_R   0.499812 0.285057 0.499972 0.548676
C177  C     C_R   0.715216 0.999809 0.000042 0.419294
C178  C     C_R   0.000191 0.284784 0.999958 0.419293
C179  C     C_R   0.284784 0.000191 0.000042 0.419294
C180  C     C_R   0.999809 0.715216 0.999958 0.419294
C181  C     C_R   0.215216 0.499809 0.500042 0.419294
C182  C     C_R   0.500191 0.784784 0.499958 0.419294
C183  C     C_R   0.784784 0.500191 0.500042 0.419294
C184  C     C_R   0.499809 0.215216 0.499958 0.419294
C185  C     C_R   0.841294 0.005257 0.025618 0.310786
C186  C     C_R   0.005552 0.158678 0.025585 0.310857
C187  C     C_R   0.158705 0.994743 0.025618 0.310786
C188  C     C_R   0.994448 0.841322 0.025585 0.310857
C189  C     C_R   0.841322 0.994448 0.974415 0.310857
C190  C     C_R   0.005257 0.841294 0.974382 0.310787
C191  C     C_R   0.158678 0.005552 0.974415 0.310857
C192  C     C_R   0.994743 0.158705 0.974382 0.310785
C193  C     C_R   0.341294 0.505257 0.525618 0.310786
C194  C     C_R   0.505552 0.658678 0.525585 0.310857
C195  C     C_R   0.658706 0.494743 0.525618 0.310786
C196  C     C_R   0.494448 0.341322 0.525585 0.310857
C197  C     C_R   0.341322 0.494448 0.474415 0.310857
C198  C     C_R   0.505257 0.341294 0.474382 0.310786
C199  C     C_R   0.658678 0.505552 0.474415 0.310856
C200  C     C_R   0.494743 0.658705 0.474382 0.310786
C201  C     C_R   0.877382 0.005558 0.025193 -0.203500
C202  C     C_R   0.005736 0.122587 0.025177 -0.203533
C203  C     C_R   0.122618 0.994442 0.025193 -0.203500
C204  C     C_R   0.994264 0.877413 0.025177 -0.203533
C205  C     C_R   0.877413 0.994264 0.974823 -0.203532
C206  C     C_R   0.005558 0.877382 0.974807 -0.203501
C207  C     C_R   0.122587 0.005736 0.974823 -0.203533
C208  C     C_R   0.994442 0.122618 0.974807 -0.203500
C209  C     C_R   0.377382 0.505558 0.525193 -0.203500
C210  C     C_R   0.505736 0.622587 0.525177 -0.203533
C211  C     C_R   0.622618 0.494442 0.525193 -0.203500
C212  C     C_R   0.494264 0.377413 0.525177 -0.203533
C213  C     C_R   0.377413 0.494264 0.474823 -0.203532
C214  C     C_R   0.505558 0.377382 0.474807 -0.203500
C215  C     C_R   0.622587 0.505736 0.474823 -0.203532
C216  C     C_R   0.494442 0.622618 0.474807 -0.203500
H65   H     H_    0.891256 0.009657 0.044812 0.206828
H66   H     H_    0.009796 0.108691 0.044801 0.206823
H67   H     H_    0.108744 0.990343 0.044812 0.206828
H68   H     H_    0.990204 0.891309 0.044801 0.206823
H69   H     H_    0.891309 0.990204 0.955199 0.206823
H70   H     H_    0.009657 0.891256 0.955188 0.206829
H71   H     H_    0.108691 0.009796 0.955199 0.206823
H72   H     H_    0.990343 0.108744 0.955188 0.206829
H73   H     H_    0.391256 0.509657 0.544812 0.206829
H74   H     H_    0.509796 0.608691 0.544801 0.206823
H75   H     H_    0.608744 0.490343 0.544812 0.206829
H76   H     H_    0.490204 0.391309 0.544801 0.206823
H77   H     H_    0.391309 0.490204 0.455199 0.206823
H78   H     H_    0.509657 0.391256 0.455188 0.206829
H79   H     H_    0.608691 0.509796 0.455199 0.206823
H80   H     H_    0.490343 0.608744 0.455188 0.206829
C217  C     C_R   0.895646 0.999944 0.000004 -0.160427
C218  C     C_R   0.000056 0.104354 0.999996 -0.160427
C219  C     C_R   0.104354 0.000056 0.000004 -0.160427
C220  C     C_R   0.999944 0.895646 0.999996 -0.160427
C221  C     C_R   0.395646 0.499944 0.500004 -0.160427
C222  C     C_R   0.500056 0.604354 0.499996 -0.160427
C223  C     C_R   0.604354 0.500056 0.500004 -0.160428
C224  C     C_R   0.499944 0.395646 0.499996 -0.160427
C225  C     C_R   0.822976 0.999826 0.000020 -0.191451
C226  C     C_R   0.000174 0.177024 0.999980 -0.191451
C227  C     C_R   0.177024 0.000174 0.000020 -0.191451
C228  C     C_R   0.999826 0.822976 0.999980 -0.191451
C229  C     C_R   0.322976 0.499826 0.500020 -0.191451
C230  C     C_R   0.500174 0.677024 0.499980 -0.191451
C231  C     C_R   0.677024 0.500174 0.500020 -0.191450
C232  C     C_R   0.499826 0.322976 0.499980 -0.191451
O49   O     O_R   0.000030 0.049790 0.976210 -0.577484
O50   O     O_R   0.049790 0.999970 0.976210 -0.577438
O51   O     O_R   0.999970 0.950210 0.976210 -0.577484
O52   O     O_R   0.950210 0.000030 0.976210 -0.577438
O53   O     O_R   0.000030 0.950210 0.023790 -0.577438
O54   O     O_R   0.049790 0.000030 0.023790 -0.577485
O55   O     O_R   0.999970 0.049790 0.023790 -0.577438
O56   O     O_R   0.950210 0.999970 0.023790 -0.577484
O57   O     O_R   0.500030 0.549790 0.476210 -0.577484
O58   O     O_R   0.549790 0.499970 0.476210 -0.577438
O59   O     O_R   0.499970 0.450210 0.476210 -0.577484
O60   O     O_R   0.450210 0.500030 0.476210 -0.577438
O61   O     O_R   0.500030 0.450210 0.523790 -0.577438
O62   O     O_R   0.549790 0.500030 0.523790 -0.577484
O63   O     O_R   0.499970 0.549790 0.523790 -0.577438
O64   O     O_R   0.450210 0.499970 0.523790 -0.577484
C233  C     C_R   0.000009 0.066292 1.000000 0.835694
C234  C     C_R   0.066292 0.000009 0.000000 0.835694
C235  C     C_R   0.999991 0.933708 1.000000 0.835695
C236  C     C_R   0.933708 0.999991 0.000000 0.835695
C237  C     C_R   0.500009 0.566292 0.500000 0.835694
C238  C     C_R   0.566292 0.500009 0.500000 0.835694
C239  C     C_R   0.499991 0.433708 0.500000 0.835695
C240  C     C_R   0.433708 0.499991 0.500000 0.835695
Br1   Br    Br    0.536444 0.065103 0.850212 -0.390932
Br2   Br    Br    0.065092 0.536463 0.850213 -0.391569
Br3   Br    Br    0.463556 0.934897 0.850212 -0.390932
Br4   Br    Br    0.934908 0.463537 0.850213 -0.391569
Br5   Br    Br    0.536463 0.065092 0.149787 -0.391569
Br6   Br    Br    0.065135 0.536387 0.149789 -0.390938
Br7   Br    Br    0.463537 0.934908 0.149787 -0.391569
Br8   Br    Br    0.934865 0.463613 0.149789 -0.390938
Br9   Br    Br    0.036500 0.565073 0.350214 -0.390926
Br10  Br    Br    0.565092 0.036464 0.350213 -0.391569
Br11  Br    Br    0.963500 0.434927 0.350214 -0.390926
Br12  Br    Br    0.434908 0.963536 0.350213 -0.391569
Br13  Br    Br    0.036464 0.565092 0.649787 -0.391569
Br14  Br    Br    0.565104 0.036442 0.649788 -0.390932
Br15  Br    Br    0.963536 0.434908 0.649787 -0.391569
Br16  Br    Br    0.434896 0.963558 0.649788 -0.390932
N41   N     N_R   0.823834 0.009564 0.052313 0.145795
O65   O     O_R   0.837350 0.028650 0.072038 -0.297085
O66   O     O_R   0.796979 0.991056 0.058449 -0.307119
N42   N     N_R   0.009915 0.176120 0.052272 0.145711
O67   O     O_R   0.028972 0.162465 0.071997 -0.297812
O68   O     O_R   0.991475 0.203118 0.058404 -0.306601
N43   N     N_R   0.176166 0.990436 0.052313 0.145795
O69   O     O_R   0.162650 0.971349 0.072038 -0.297085
O70   O     O_R   0.203020 0.008944 0.058449 -0.307119
N44   N     N_R   0.990085 0.823880 0.052272 0.145711
O71   O     O_R   0.971029 0.837535 0.071998 -0.297811
O72   O     O_R   0.008525 0.796882 0.058404 -0.306601
N45   N     N_R   0.823880 0.990085 0.947728 0.145712
O73   O     O_R   0.837535 0.971028 0.928002 -0.297811
O74   O     O_R   0.796882 0.008525 0.941596 -0.306600
N46   N     N_R   0.009564 0.823834 0.947687 0.145796
O75   O     O_R   0.028650 0.837350 0.927962 -0.297085
O76   O     O_R   0.991056 0.796979 0.941551 -0.307119
N47   N     N_R   0.176120 0.009915 0.947728 0.145712
O77   O     O_R   0.162465 0.028971 0.928002 -0.297811
O78   O     O_R   0.203118 0.991475 0.941596 -0.306600
N48   N     N_R   0.990436 0.176166 0.947687 0.145797
O79   O     O_R   0.971349 0.162650 0.927962 -0.297085
O80   O     O_R   0.008944 0.203020 0.941551 -0.307120
N49   N     N_R   0.323834 0.509564 0.552313 0.145796
O81   O     O_R   0.337350 0.528650 0.572038 -0.297085
O82   O     O_R   0.296979 0.491056 0.558449 -0.307119
N50   N     N_R   0.509915 0.676120 0.552272 0.145712
O83   O     O_R   0.528972 0.662465 0.571997 -0.297810
O84   O     O_R   0.491475 0.703118 0.558404 -0.306600
N51   N     N_R   0.676166 0.490435 0.552313 0.145796
O85   O     O_R   0.662650 0.471349 0.572038 -0.297085
O86   O     O_R   0.703021 0.508944 0.558449 -0.307119
N52   N     N_R   0.490085 0.323880 0.552272 0.145712
O87   O     O_R   0.471028 0.337535 0.571997 -0.297810
O88   O     O_R   0.508524 0.296882 0.558404 -0.306600
N53   N     N_R   0.323880 0.490085 0.447728 0.145712
O89   O     O_R   0.337535 0.471028 0.428003 -0.297810
O90   O     O_R   0.296882 0.508525 0.441595 -0.306599
N54   N     N_R   0.509564 0.323834 0.447687 0.145795
O91   O     O_R   0.528650 0.337350 0.427962 -0.297084
O92   O     O_R   0.491056 0.296979 0.441551 -0.307119
N55   N     N_R   0.676120 0.509915 0.447728 0.145712
O93   O     O_R   0.662465 0.528972 0.428003 -0.297810
O94   O     O_R   0.703118 0.491475 0.441595 -0.306599
N56   N     N_R   0.490436 0.676166 0.447687 0.145795
O95   O     O_R   0.471350 0.662650 0.427962 -0.297084
O96   O     O_R   0.508944 0.703021 0.441551 -0.307119

loop_
_geom_bond_atom_site_label_1
_geom_bond_atom_site_label_2
_geom_bond_distance
_ccdc_geom_bond_type
N43   O69   1.301466 A    
C81   C117  1.408082 A    
O25   C13   1.292578 A    
C185  C225  1.417868 A    
N55   O93   1.301461 A    
C192  C208  1.402429 A    
N50   O83   1.301461 A    
C134  H46   1.082946 S    
C73   C113  1.408073 A    
C149  H61   1.082780 S    
C99   H27   1.083223 S    
C188  C204  1.402479 A    
C133  C165  1.404724 A    
C75   C91   1.397844 A    
O31   C15   1.292576 A    
C38   C62   1.405375 A    
C200  C216  1.402429 A    
O18   Cu2   1.948632 S    
O53   C235  1.292630 A    
N44   O72   1.301380 A    
C135  C167  1.404724 A    
C211  C223  1.400950 A    
C74   C90   1.397849 A    
C209  C221  1.400950 A    
C148  C160  1.405668 A    
N37   C173  1.356539 A    
O24   Cu4   1.948627 S    
Cu10  O54   1.945564 S    
Cu11  O59   1.945569 S    
C78   C94   1.397844 A    
C47   C55   1.408560 A    
Cu1   Cu3   2.661585 S    
C123  C163  1.404733 A    
C80   C96   1.397844 A    
C217  C236  1.478905 S    
Cu2   Cu4   2.661584 S    
C17   C35   1.405296 A    
O3    C3    1.293805 A    
O58   C238  1.292630 A    
C154  C178  1.480110 S    
C19   N1    1.370833 A    
C130  H42   1.082937 S    
C44   C54   1.408560 A    
C32   C46   1.405296 A    
O64   C240  1.292606 A    
C46   C56   1.408558 A    
O51   C235  1.292606 A    
C23   C37   1.405305 A    
C149  C157  1.405668 A    
O52   C236  1.292630 A    
C197  N53   1.440099 S    
C158  C182  1.480110 S    
C121  C137  1.396668 A    
C138  C154  1.405668 A    
N32   C170  1.356631 A    
N11   N27   1.331669 A    
C41   C65   1.405376 A    
C18   O34   1.349307 S    
C25   N5    1.370837 A    
C194  N50   1.440099 S    
N13   C177  1.358862 A    
N29   C169  1.356541 A    
C66   H10   1.083054 S    
C169  C225  1.473344 S    
C22   O38   1.349312 S    
N27   C171  1.356629 A    
C85   C101  1.397849 A    
C47   C71   1.405369 A    
C191  C227  1.417877 A    
C186  C202  1.402479 A    
O27   Cu7   1.948632 S    
C211  H75   1.083137 S    
C222  C237  1.478905 S    
C121  H33   1.082945 S    
C212  H76   1.083133 S    
C136  C166  1.404736 A    
C188  N44   1.440099 S    
C128  H40   1.082946 S    
N4    C117  1.439972 S    
C16   C112  1.473832 S    
N56   O95   1.301466 A    
O13   C5    1.293419 A    
C196  C232  1.417877 A    
C44   C68   1.405369 A    
O7    Cu1   1.950884 S    
C205  H69   1.083134 S    
O54   C234  1.292606 A    
C195  C231  1.417869 A    
C215  C223  1.400967 A    
O26   Cu6   1.948632 S    
O7    C3    1.293419 A    
C48   C56   1.408558 A    
C213  C221  1.400967 A    
C57   C70   1.396577 A    
C187  C227  1.417868 A    
C189  C205  1.402478 A    
O27   C13   1.292574 A    
C59   C72   1.396577 A    
O6    C4    1.293804 A    
C124  C140  1.396959 A    
C171  C227  1.473344 S    
C193  N49   1.440111 S    
C25   C43   1.405296 A    
C41   C53   1.408565 A    
C134  C168  1.404736 A    
O55   C233  1.292630 A    
C131  H43   1.082944 S    
N14   N30   1.331669 A    
C29   C47   1.405305 A    
C31   C45   1.405305 A    
N22   C184  1.358886 A    
C93   C107  1.402922 A    
C193  C209  1.402429 A    
C204  C220  1.400965 A    
N49   O82   1.301379 A    
C123  H35   1.082945 S    
Cu11  O57   1.945565 S    
N39   C175  1.356539 A    
N48   O79   1.301465 A    
C191  N47   1.440099 S    
C8    C168  1.477764 S    
C98   C110  1.402921 A    
C220  C235  1.478905 S    
N9    N25   1.331669 A    
C138  H50   1.082779 S    
O56   C236  1.292606 A    
C102  C112  1.402925 A    
C42   C66   1.405369 A    
N52   O87   1.301461 A    
C103  H31   1.083224 S    
C90   C106  1.402920 A    
N33   C173  1.356629 A    
C174  C230  1.473344 S    
N20   C184  1.358862 A    
C175  C231  1.473344 S    
C30   O46   1.349309 S    
O5    Cu3   1.950880 S    
C69   H13   1.083051 S    
C124  C164  1.404724 A    
C195  N51   1.440111 S    
C91   H19   1.083218 S    
C144  C154  1.405555 A    
N5    C116  1.439963 S    
O49   C233  1.292606 A    
N10   C178  1.358861 A    
C156  C180  1.480110 S    
C99   C109  1.402928 A    
C91   C105  1.402927 A    
C215  H79   1.083134 S    
C142  H54   1.082786 S    
C103  C111  1.402927 A    
C76   C114  1.408082 A    
C35   C49   1.408558 A    
C86   C102  1.397840 A    
C101  H29   1.083224 S    
C45   C55   1.408560 A    
C31   N7    1.370836 A    
C1    C161  1.477764 S    
N43   O70   1.301379 A    
C3    C163  1.477764 S    
N10   N26   1.331573 A    
C5    C165  1.477764 S    
C128  C162  1.404735 A    
C73   Br1   1.916851 S    
C157  C181  1.480110 S    
N47   O78   1.301378 A    
C125  C161  1.404724 A    
C190  C206  1.402429 A    
C78   C116  1.408073 A    
C70   H14   1.083051 S    
Cu12  O61   1.945563 S    
O11   C7    1.293805 A    
C202  C218  1.400966 A    
C42   C54   1.408560 A    
C21   C39   1.405305 A    
C43   C67   1.405376 A    
N42   O67   1.301459 A    
N20   N36   1.331573 A    
C85   Br13  1.916844 S    
O28   C14   1.292572 A    
O26   C14   1.292576 A    
C214  C224  1.400950 A    
O29   C15   1.292573 A    
O8    Cu4   1.951949 S    
O30   C16   1.292580 A    
N16   N32   1.331669 A    
N14   C180  1.358886 A    
C129  H41   1.082946 S    
C150  H62   1.082786 S    
C206  H70   1.083133 S    
C45   C69   1.405369 A    
C136  H48   1.082946 S    
C87   C119  1.408081 A    
O19   Cu3   1.948632 S    
O17   Cu1   1.948632 S    
C135  C151  1.396959 A    
C33   C57   1.405366 A    
C79   C115  1.408081 A    
C210  C222  1.400967 A    
N15   C179  1.358862 A    
C26   C44   1.405305 A    
Cu9   O50   1.945558 S    
O60   C240  1.292630 A    
C76   C92   1.397849 A    
C82   C118  1.408078 A    
C132  H44   1.082937 S    
O4    C4    1.293419 A    
N9    C177  1.358886 A    
O16   Cu8   1.951949 S    
C37   C51   1.408560 A    
C33   C49   1.408558 A    
C124  H36   1.082937 S    
C28   C42   1.405305 A    
N51   O85   1.301464 A    
N18   N34   1.331573 A    
C193  C229  1.417869 A    
C94   C108  1.402933 A    
Cu9   Cu10  2.657114 S    
O6    Cu2   1.951945 S    
C92   C106  1.402925 A    
N53   O90   1.301375 A    
N36   C176  1.356540 A    
C61   C66   1.396576 A    
C208  C218  1.400950 A    
C83   C117  1.408088 A    
C201  H65   1.083137 S    
N41   O66   1.301379 A    
C203  H67   1.083137 S    
C194  C230  1.417877 A    
C10   C106  1.473809 S    
N23   N39   1.331572 A    
O11   Cu7   1.951948 S    
C170  C226  1.473344 S    
O21   Cu3   1.948627 S    
C14   C110  1.473809 S    
C131  C147  1.396668 A    
C132  C148  1.396959 A    
C195  C211  1.402429 A    
N50   O84   1.301375 A    
N6    C115  1.439977 S    
C150  C160  1.405554 A    
C128  C144  1.396664 A    
N8    C113  1.439967 S    
C129  C145  1.396664 A    
O12   C8    1.293419 A    
O1    C1    1.293805 A    
Cu12  O63   1.945559 S    
C32   N8    1.370832 A    
C187  C203  1.402429 A    
C39   C63   1.405369 A    
C83   C99   1.397840 A    
C46   C70   1.405369 A    
C223  C238  1.478905 S    
C160  C184  1.480110 S    
C23   N3    1.370835 A    
C52   C53   1.413807 A    
N45   O74   1.301378 A    
C34   C58   1.405369 A    
C2    C162  1.477764 S    
C95   H23   1.083224 S    
C82   C98   1.397849 A    
C29   N7    1.370836 A    
Cu10  O55   1.945559 S    
C85   C119  1.408076 A    
C133  C149  1.396959 A    
O29   Cu7   1.948627 S    
C145  H57   1.082782 S    
N46   O75   1.301466 A    
C81   Br9   1.916858 S    
C12   C108  1.473846 S    
C61   H5    1.083053 S    
C199  C231  1.417879 A    
C159  C183  1.480110 S    
C197  C229  1.417877 A    
C130  C146  1.396959 A    
C34   C50   1.408560 A    
C96   C108  1.402938 A    
C74   C114  1.408077 A    
N17   N33   1.331669 A    
C126  C142  1.396664 A    
C133  H45   1.082936 S    
Cu9   O52   1.945562 S    
O10   C6    1.293419 A    
C98   H26   1.083225 S    
C18   N2    1.370836 A    
C189  N45   1.440099 S    
O15   Cu5   1.950884 S    
C134  C150  1.396664 A    
N18   C182  1.358862 A    
C37   C61   1.405369 A    
O5    C1    1.293419 A    
C80   Br8   1.916852 S    
C125  H37   1.082936 S    
C50   C55   1.413811 A    
C80   C116  1.408078 A    
C139  C155  1.405554 A    
C173  C229  1.473344 S    
N54   O91   1.301466 A    
C140  C156  1.405668 A    
C213  H77   1.083134 S    
C28   O44   1.349305 S    
C186  N42   1.440099 S    
O50   C234  1.292630 A    
N7    C114  1.439972 S    
C137  H49   1.082786 S    
O32   Cu8   1.948627 S    
C145  C157  1.405557 A    
N56   O96   1.301379 A    
C143  H55   1.082780 S    
C63   C68   1.396576 A    
C135  H47   1.082936 S    
C38   C52   1.408566 A    
C153  C177  1.480110 S    
C84   C100  1.397849 A    
C132  C168  1.404723 A    
C188  C228  1.417877 A    
C122  C138  1.396959 A    
O22   Cu2   1.948627 S    
O21   C11   1.292573 A    
C19   O35   1.349308 S    
C60   C71   1.396576 A    
O22   C12   1.292584 A    
C6    C166  1.477764 S    
O23   Cu1   1.948627 S    
C74   Br2   1.916847 S    
C24   C38   1.405296 A    
C216  H80   1.083137 S    
C218  C233  1.478905 S    
C207  C219  1.400967 A    
C28   N6    1.370834 A    
C26   N6    1.370834 A    
C27   O43   1.349312 S    
C77   C115  1.408076 A    
C30   N8    1.370832 A    
N31   C171  1.356541 A    
C88   C104  1.397840 A    
C88   Br16  1.916853 S    
C68   H12   1.083054 S    
O3    Cu3   1.951948 S    
N44   O71   1.301462 A    
C190  C228  1.417872 A    
C192  C226  1.417868 A    
C216  C222  1.400950 A    
N24   N40   1.331669 A    
O8    C2    1.293804 A    
C172  C228  1.473344 S    
N11   C179  1.358886 A    
N47   O77   1.301459 A    
N49   O81   1.301464 A    
O28   Cu8   1.948632 S    
Cu10  O53   1.945563 S    
C27   N5    1.370837 A    
C62   H6    1.083056 S    
Cu11  O60   1.945562 S    
N48   O80   1.301378 A    
Cu11  Cu12  2.657114 S    
O30   Cu6   1.948627 S    
C151  H63   1.082780 S    
C90   H18   1.083225 S    
C141  C153  1.405668 A    
N23   C183  1.358861 A    
N52   O88   1.301375 A    
C40   C52   1.408566 A    
O23   C11   1.292576 A    
C94   H22   1.083222 S    
N51   O86   1.301379 A    
O62   C238  1.292606 A    
C212  C224  1.400967 A    
C224  C239  1.478905 S    
C198  C232  1.417869 A    
C58   C69   1.396576 A    
N17   C181  1.358888 A    
C4    C164  1.477764 S    
C75   Br3   1.916851 S    
O9    Cu5   1.951945 S    
C9    C105  1.473832 S    
C86   C120  1.408072 A    
C7    C167  1.477764 S    
C84   C118  1.408082 A    
C13   C109  1.473809 S    
N26   C170  1.356540 A    
C19   C33   1.405296 A    
N38   C176  1.356629 A    
C25   O41   1.349312 S    
C191  C207  1.402478 A    
C147  C159  1.405557 A    
C186  C226  1.417877 A    
N30   C172  1.356628 A    
C104  C112  1.402929 A    
C67   H11   1.083055 S    
C89   H17   1.083218 S    
C151  C159  1.405668 A    
C95   C107  1.402927 A    
C127  H39   1.082936 S    
C176  C232  1.473344 S    
O31   Cu5   1.948627 S    
C22   C40   1.405296 A    
C147  H59   1.082782 S    
C36   C60   1.405369 A    
C97   C109  1.402924 A    
C100  H28   1.083225 S    
Cu12  O62   1.945564 S    
O18   C10   1.292576 A    
N34   C174  1.356540 A    
C126  C164  1.404736 A    
C49   C56   1.413802 A    
C96   H24   1.083222 S    
C89   C105  1.402923 A    
C40   C64   1.405375 A    
C51   C54   1.413811 A    
C200  C230  1.417869 A    
N1    C120  1.439967 S    
N42   O68   1.301378 A    
C198  N54   1.440111 S    
C73   C89   1.397844 A    
C136  C152  1.396664 A    
C189  C225  1.417877 A    
O63   C237  1.292630 A    
O61   C239  1.292630 A    
C77   C93   1.397849 A    
O13   Cu7   1.950880 S    
O59   C239  1.292606 A    
O2    C2    1.293419 A    
O25   Cu5   1.948632 S    
O57   C237  1.292606 A    
C209  H73   1.083137 S    
O14   C8    1.293804 A    
C102  H30   1.083221 S    
C199  C215  1.402474 A    
C207  H71   1.083134 S    
O16   C6    1.293804 A    
N54   O92   1.301379 A    
C139  H51   1.082786 S    
C21   N3    1.370836 A    
C140  H52   1.082780 S    
N21   C181  1.358861 A    
C152  H64   1.082786 S    
C143  C155  1.405668 A    
N12   N28   1.331573 A    
N35   C175  1.356629 A    
C31   O47   1.349305 S    
Cu11  O58   1.945558 S    
C137  C153  1.405554 A    
C32   O48   1.349309 S    
Cu9   O49   1.945565 S    
C187  N43   1.440111 S    
N16   C178  1.358887 A    
C146  H58   1.082779 S    
C82   Br10  1.916844 S    
C126  H38   1.082946 S    
C142  C156  1.405555 A    
C93   H21   1.083224 S    
C20   N2    1.370836 A    
C75   C113  1.408078 A    
O32   C16   1.292576 A    
N19   C183  1.358888 A    
C87   Br15  1.916844 S    
C87   C103  1.397849 A    
C30   C48   1.405296 A    
C86   Br14  1.916853 S    
N25   C169  1.356629 A    
N24   C182  1.358886 A    
C24   O40   1.349312 S    
C208  H72   1.083137 S    
N2    C119  1.439972 S    
N12   C180  1.358862 A    
C129  C165  1.404734 A    
O2    Cu2   1.950885 S    
N53   O89   1.301461 A    
C43   C53   1.408565 A    
C210  H74   1.083133 S    
C203  C219  1.400950 A    
C24   N4    1.370839 A    
O15   C7    1.293419 A    
C192  N48   1.440115 S    
C79   C95   1.397849 A    
C59   H3    1.083049 S    
N28   C172  1.356540 A    
C198  C214  1.402429 A    
C20   C34   1.405305 A    
C100  C110  1.402925 A    
N13   N29   1.331572 A    
O4    Cu4   1.950881 S    
C39   C51   1.408560 A    
Cu5   Cu7   2.661585 S    
C71   H15   1.083051 S    
Cu6   Cu8   2.661584 S    
C63   H7    1.083053 S    
C72   H16   1.083051 S    
C197  C213  1.402478 A    
C214  H78   1.083137 S    
N40   C174  1.356629 A    
C60   H4    1.083051 S    
C83   Br11  1.916856 S    
N3    C118  1.439972 S    
C104  H32   1.083221 S    
C84   Br12  1.916844 S    
C199  N55   1.440101 S    
C122  H34   1.082937 S    
C88   C120  1.408076 A    
C146  C158  1.405668 A    
Cu12  O64   1.945568 S    
C206  C220  1.400954 A    
C130  C166  1.404723 A    
C185  N41   1.440111 S    
C18   C36   1.405305 A    
O19   C9    1.292577 A    
C196  N52   1.440099 S    
C155  C179  1.480110 S    
N45   O73   1.301459 A    
C76   Br4   1.916847 S    
N55   O94   1.301375 A    
N15   N31   1.331572 A    
C101  C111  1.402922 A    
C62   C65   1.396573 A    
O12   Cu8   1.950881 S    
Cu10  O56   1.945568 S    
C202  H66   1.083133 S    
O14   Cu6   1.951945 S    
C58   H2    1.083051 S    
N46   O76   1.301378 A    
C97   H25   1.083223 S    
N21   N37   1.331572 A    
C11   C107  1.473809 S    
C20   O36   1.349307 S    
C121  C161  1.404733 A    
C152  C158  1.405554 A    
O9    C5    1.293805 A    
C144  H56   1.082786 S    
N22   N38   1.331669 A    
C79   Br7   1.916847 S    
C29   O45   1.349305 S    
C22   N4    1.370839 A    
C17   N1    1.370834 A    
C48   C72   1.405369 A    
C190  N46   1.440110 S    
C77   Br5   1.916847 S    
C194  C210  1.402479 A    
C21   O37   1.349305 S    
Cu9   O51   1.945569 S    
C127  C143  1.396959 A    
C141  H53   1.082780 S    
C205  C217  1.400967 A    
C15   C111  1.473809 S    
C36   C50   1.408560 A    
C64   H8    1.083056 S    
C57   H1    1.083049 S    
C125  C141  1.396959 A    
C131  C167  1.404732 A    
O20   Cu4   1.948632 S    
O1    Cu1   1.951945 S    
C122  C162  1.404724 A    
C92   H20   1.083225 S    
C78   Br6   1.916852 S    
C221  C240  1.478905 S    
O20   C10   1.292572 A    
C148  H60   1.082779 S    
C35   C59   1.405366 A    
C127  C163  1.404724 A    
C65   H9    1.083055 S    
N41   O65   1.301466 A    
O10   Cu6   1.950885 S    
N19   N35   1.331669 A    
C204  H68   1.083133 S    
C17   O33   1.349308 S    
C123  C139  1.396668 A    
O24   C12   1.292581 A    
O17   C9    1.292580 A    
C200  N56   1.440111 S    
C27   C41   1.405296 A    
C201  C217  1.400950 A    
C219  C234  1.478905 S    
C26   O42   1.349305 S    
C81   C97   1.397840 A    
C64   C67   1.396573 A    
C23   O39   1.349305 S    
C185  C201  1.402429 A    
C196  C212  1.402479 A    
