data_mof_unit_20281.cif
_audit_creation_date              2012-12-10T17:03:00-0500
_audit_creation_method            fapswitch 2.2
_symmetry_space_group_name_H-M    P1
_symmetry_Int_Tables_number       1
_space_group_crystal_system       triclinic
_cell_length_a                    9.801426
_cell_length_b                    11.043617
_cell_length_c                    13.378422
_cell_angle_alpha                 94.221563
_cell_angle_beta                  81.217781
_cell_angle_gamma                 111.310297
_cell_volume                      1333.03342035

loop_
_atom_site_label
_atom_site_type_symbol
_atom_type_description
_atom_site_fract_x
_atom_site_fract_y
_atom_site_fract_z
_atom_type_partial_charge
C1    C     C_R   0.556547 0.745486 0.507284 0.848417
C2    C     C_R   0.437261 0.495706 0.973137 0.097443
C3    C     C_R   0.473283 0.536650 0.871453 0.058044
C4    C     C_R   0.548506 0.535954 0.037946 0.049380
C5    C     C_R   0.682115 0.640430 0.008047 0.132418
C6    C     C_R   0.709225 0.692273 0.911911 -0.209910
C7    C     C_R   0.607910 0.639743 0.843883 -0.172816
C8    C     C_R   0.532616 0.476571 0.131433 0.072447
C9    C     C_R   0.756730 0.647149 0.173199 -0.221569
C10   C     C_R   0.370993 0.476925 0.801520 -0.160647
C11   C     C_2   0.588428 0.884679 0.511324 -0.340261
C12   C     C_R   0.421346 0.488668 0.691213 0.806548
C13   C     C_2   0.484233 0.930530 0.498148 -0.143784
C14   C     C_2   0.411546 0.115333 0.488739 -0.324541
C15   C     C_2   0.515732 0.069485 0.501941 -0.143548
C16   C     C_2   0.922370 0.489380 0.491689 -0.056155
C17   C     C_2   0.076838 0.509217 0.509339 -0.039790
C18   C     C_R   0.443436 0.254518 0.492753 0.891051
C19   C     C_R   0.578494 0.513307 0.309494 0.832600
C20   C     C_R   0.786387 0.693350 0.075276 -0.176151
C21   C     C_R   0.628381 0.540741 0.202130 -0.079798
C22   C     C_R   0.224701 0.396325 0.839128 0.157344
C23   C     C_R   0.183936 0.377645 0.942765 -0.150127
C24   C     C_R   0.288265 0.426268 0.008924 -0.184544
Cu1   Cu    Cu3+1 0.362000 0.479240 0.482530 0.982584
Cu2   Cu    Cu3+1 0.638000 0.520760 0.517470 0.954606
H1    H     H_    0.831630 0.696947 0.227221 0.164823
H2    H     H_    0.374681 0.865349 0.484409 0.181066
H3    H     H_    0.302194 0.049887 0.474974 0.157532
H4    H     H_    0.697781 0.950134 0.525085 0.161152
H5    H     H_    0.125006 0.576870 0.568468 0.163244
H6    H     H_    0.873455 0.420338 0.433532 0.160081
H7    H     H_    0.106740 0.385053 0.400088 0.202979
H8    H     H_    0.894600 0.617429 0.598196 0.197463
H9    H     H_    0.809994 0.773152 0.888762 0.151991
H10   H     H_    0.887287 0.774816 0.053761 0.152436
H11   H     H_    0.249837 0.412977 0.088821 0.174211
H12   H     H_    0.070854 0.321457 0.972418 0.173675
H13   H     H_    0.633344 0.686014 0.771488 0.162818
H14   H     H_    0.625282 0.134665 0.515693 0.187470
N1    N     N_2   0.845330 0.551960 0.543750 -0.282404
N2    N     N_2   0.154690 0.448120 0.456210 -0.275089
O1    O     O_R   0.426290 0.668220 0.490680 -0.582841
O2    O     O_R   0.659360 0.703290 0.520190 -0.581095
O3    O     O_R   0.326580 0.473880 0.629020 -0.547687
O4    O     O_R   0.559660 0.508940 0.658530 -0.571451
O5    O     O_R   0.340640 0.296710 0.479810 -0.550707
O6    O     O_R   0.573710 0.331780 0.509320 -0.578359
O7    O     O_R   0.440340 0.491060 0.341470 -0.554590
O8    O     O_R   0.673420 0.526120 0.370980 -0.584127
I1    I     I_    0.403064 0.274724 0.158615 -0.393558
I2    I     I_    0.054921 0.292743 0.749290 -0.368277

loop_
_geom_bond_atom_site_label_1
_geom_bond_atom_site_label_2
_ccdc_geom_bond_type
Cu1   N2    S    
C2    C4    A    
C23   C24   A    
C13   H2    S    
C6    C7    A    
Cu1   O3    S    
C16   H6    S    
C23   H12   S    
Cu1   O5    S    
C9    C20   A    
C1    C11   S    
Cu2   O6    S    
C4    C8    A    
C18   O5    A    
Cu1   O1    S    
C13   C15   S    
C24   H11   S    
Cu2   O2    S    
C3    C10   A    
Cu2   N1    S    
C10   C22   A    
C11   C13   D    
C8    I1    S    
C9    C21   A    
C16   C17   S    
H8    N1    S    
C10   C12   S    
H7    N2    S    
C12   O4    A    
C19   C21   S    
C2    C3    A    
C3    C7    A    
Cu2   O8    S    
C2    C24   A    
C5    C6    A    
C17   H5    S    
Cu1   O7    S    
C15   H14   S    
Cu2   O4    S    
C14   H3    S    
C20   H10   S    
C19   O8    A    
C6    H9    S    
C9    H1    S    
C22   I2    S    
C5    C20   A    
C14   C18   S    
C14   C15   D    
C4    C5    A    
C7    H13   S    
C1    O2    A    
Cu1   Cu2   S    
C17   N2    D    
C19   O7    A    
C16   N1    D    
C1    O1    A    
C22   C23   A    
C11   H4    S    
C18   O6    A    
C12   O3    A    
C8    C21   A    
