data_mof_unit_20612.cif
_audit_creation_date              2012-12-11T15:08:41-0500
_audit_creation_method            fapswitch 2.2
_symmetry_space_group_name_H-M    P1
_symmetry_Int_Tables_number       1
_space_group_crystal_system       triclinic
_cell_length_a                    26.81071
_cell_length_b                    7.074434
_cell_length_c                    11.984713
_cell_angle_alpha                 90.046962
_cell_angle_beta                  103.378487
_cell_angle_gamma                 90.246168
_cell_volume                      2211.43662439

loop_
_atom_site_label
_atom_site_type_symbol
_atom_type_description
_atom_site_fract_x
_atom_site_fract_y
_atom_site_fract_z
_atom_type_partial_charge
O1    O     O_R   0.437360 0.505910 0.042120 -0.538225
O2    O     O_R   0.562640 0.005910 0.957880 -0.537791
O3    O     O_R   0.542480 0.176660 0.157100 -0.541201
O4    O     O_R   0.457520 0.676660 0.842900 -0.541340
C1    C     C_R   0.556416 0.344903 0.197992 0.692417
C2    C     C_R   0.443558 0.844222 0.802005 0.692240
O5    O     O_R   0.436520 0.176250 0.054800 -0.541412
O6    O     O_R   0.563480 0.676250 0.945200 -0.541744
O7    O     O_R   0.455920 0.005040 0.854840 -0.538431
O8    O     O_R   0.544080 0.505040 0.145160 -0.538470
C3    C     C_R   0.417465 0.344419 0.063374 0.689065
C4    C     C_R   0.582519 0.845118 0.936597 0.689251
O9    O     O_3   0.506490 0.338900 0.934520 -0.373705
O10   O     O_3   0.493510 0.838900 0.065480 -0.373782
V1    V     V_3+5 0.498800 0.064400 0.012150 1.424227
V2    V     V_3+5 0.501200 0.564400 0.987850 1.423157
C5    C     C_R   0.680986 0.889340 0.760206 -0.153182
C6    C     C_R   0.318926 0.355827 0.240867 -0.153033
H1    H     H_    0.598780 0.884037 0.723432 0.104759
H2    H     H_    0.401112 0.349685 0.277617 0.104651
H3    H     H_    0.774542 0.912160 0.723457 0.137574
H4    H     H_    0.225347 0.362461 0.278255 0.137151
H5    H     H_    0.681609 0.906241 0.670637 0.129669
H6    H     H_    0.318262 0.356682 0.330971 0.129392
C7    C     C_R   0.631946 0.854920 0.904547 -0.032326
C8    C     C_R   0.368040 0.351402 0.095519 -0.032113
C9    C     C_R   0.868061 0.836834 0.210807 -0.090985
C10   C     C_R   0.132004 0.360235 0.788446 -0.090427
C11   C     C_R   0.822300 0.823560 0.245926 -0.019593
C12   C     C_R   0.177781 0.356409 0.752984 -0.019773
C13   C     C_R   0.775474 0.830848 0.165903 -0.123844
C14   C     C_R   0.224580 0.354785 0.833286 -0.123389
C15   C     C_R   0.773241 0.852078 0.047213 0.082557
C16   C     C_R   0.226770 0.356986 0.952628 0.082497
C17   C     C_R   0.820441 0.866337 0.011838 0.074422
C18   C     C_R   0.179547 0.360146 0.988402 0.073675
C19   C     C_R   0.725870 0.859333 0.962563 0.071437
C20   C     C_R   0.274124 0.356253 0.037527 0.071767
C21   C     C_R   0.726875 0.881180 0.845068 0.136107
C22   C     C_R   0.273069 0.357798 0.155702 0.136093
C23   C     C_R   0.773570 0.895188 0.812845 -0.206405
C24   C     C_R   0.226353 0.360987 0.188329 -0.206393
C25   C     C_R   0.819596 0.887800 0.894633 -0.200463
C26   C     C_R   0.180350 0.362338 0.106274 -0.200657
C27   C     C_R   0.677362 0.846078 0.990073 -0.213684
C28   C     C_R   0.322658 0.353762 0.009648 -0.213539
C29   C     C_R   0.633829 0.876590 0.789862 -0.188750
C30   C     C_R   0.366097 0.352085 0.210882 -0.188583
C31   C     C_R   0.867695 0.858210 0.094732 -0.065057
C32   C     C_R   0.132319 0.361824 0.905189 -0.066144
H7    H     H_    0.673320 0.829793 0.076926 0.097586
H8    H     H_    0.326735 0.352582 0.922302 0.097419
H9    H     H_    0.904029 0.830057 0.274494 0.086517
H10   H     H_    0.096064 0.362080 0.724475 0.086394
H11   H     H_    0.741833 0.819228 0.200103 0.099060
H12   H     H_    0.258238 0.351824 0.798769 0.098737
H13   H     H_    0.823074 0.806982 0.336137 0.105706
H14   H     H_    0.177042 0.354923 0.662254 0.105032
H15   H     H_    0.854675 0.899290 0.864929 0.125000
H16   H     H_    0.145255 0.364986 0.136313 0.124778
C33   C     C_R   0.091294 0.861300 0.311221 -0.027151
C34   C     C_R   0.908676 0.357986 0.688914 -0.026841
C35   C     C_R   0.408875 0.850751 0.688293 -0.033770
C36   C     C_R   0.591137 0.354349 0.311584 -0.033681
C37   C     C_R   0.104895 0.865019 0.517215 -0.120463
C38   C     C_R   0.895050 0.331923 0.483495 -0.120015
C39   C     C_R   0.071688 0.866234 0.409183 -0.204353
C40   C     C_R   0.928280 0.341596 0.591355 -0.204390
C41   C     C_R   0.144255 0.855754 0.320976 -0.181261
C42   C     C_R   0.855717 0.364535 0.678964 -0.181473
C43   C     C_R   0.179107 0.856265 0.429779 0.005749
C44   C     C_R   0.820861 0.355121 0.570333 0.005583
C45   C     C_R   0.158287 0.860613 0.528649 0.005834
C46   C     C_R   0.841661 0.338449 0.471854 0.005917
C47   C     C_R   0.233631 0.853785 0.443533 0.045200
C48   C     C_R   0.766358 0.361670 0.556377 0.044982
C49   C     C_R   0.266407 0.856032 0.556341 -0.032859
C50   C     C_R   0.733574 0.350688 0.443778 -0.032704
C51   C     C_R   0.243603 0.859349 0.651527 -0.288334
C52   C     C_R   0.756349 0.334293 0.348974 -0.288187
C53   C     C_R   0.190810 0.861397 0.637952 0.574101
C54   C     C_R   0.809126 0.328426 0.362734 0.573826
C55   C     C_R   0.256478 0.849356 0.348331 -0.166555
C56   C     C_R   0.743543 0.379269 0.651153 -0.167102
C57   C     C_R   0.309276 0.847001 0.362338 -0.206677
C58   C     C_R   0.690764 0.385955 0.636923 -0.206993
C59   C     C_R   0.341682 0.848971 0.471356 0.133191
C60   C     C_R   0.658346 0.375167 0.528111 0.133110
C61   C     C_R   0.320945 0.854182 0.570164 0.116148
C62   C     C_R   0.679057 0.357029 0.429756 0.116091
C63   C     C_R   0.394960 0.844709 0.482141 -0.169348
C64   C     C_R   0.605080 0.382788 0.517068 -0.168947
C65   C     C_R   0.428336 0.844590 0.590055 -0.180262
C66   C     C_R   0.571685 0.372741 0.409337 -0.180532
C67   C     C_R   0.355909 0.856245 0.678825 -0.218556
C68   C     C_R   0.644089 0.346305 0.321313 -0.218340
H17   H     H_    0.343635 0.860099 0.758208 0.099041
H18   H     H_    0.656337 0.331969 0.242290 0.098990
H19   H     H_    0.469327 0.839256 0.597037 0.101709
H20   H     H_    0.530692 0.379283 0.402125 0.101666
H21   H     H_    0.324919 0.843066 0.286616 0.139465
H22   H     H_    0.675147 0.399889 0.712304 0.139515
H23   H     H_    0.088624 0.868772 0.591948 0.170648
H24   H     H_    0.911307 0.319169 0.409060 0.170412
H25   H     H_    0.030671 0.871419 0.401906 0.105269
H26   H     H_    0.969306 0.336214 0.598813 0.105143
H27   H     H_    0.156627 0.853235 0.241688 0.101939
H28   H     H_    0.843362 0.376606 0.757986 0.101522
H29   H     H_    0.265481 0.860371 0.738914 0.158931
H30   H     H_    0.734464 0.325916 0.261735 0.158964
H31   H     H_    0.234748 0.847057 0.260815 0.136671
H32   H     H_    0.765284 0.388823 0.738478 0.136399
H33   H     H_    0.410818 0.840139 0.406786 0.117137
H34   H     H_    0.589239 0.396912 0.592070 0.116975
O11   O     O_R   0.955980 0.206520 0.854760 -0.540618
O12   O     O_R   0.044020 0.706520 0.145240 -0.540223
O13   O     O_R   0.063490 0.536770 0.945200 -0.535470
O14   O     O_R   0.936510 0.036770 0.054800 -0.534093
C69   C     C_R   0.082815 0.368784 0.937831 0.674963
C70   C     C_R   0.917200 0.868062 0.062190 0.674528
O15   O     O_R   0.957530 0.536190 0.842880 -0.542495
O16   O     O_R   0.042470 0.036190 0.157120 -0.542928
O17   O     O_R   0.937350 0.707210 0.042130 -0.536439
O18   O     O_R   0.062650 0.207210 0.957870 -0.534889
C71   C     C_R   0.943314 0.367391 0.802504 0.688024
C72   C     C_R   0.056700 0.868061 0.197512 0.688199
O19   O     O_3   0.993540 0.373870 0.065440 -0.372242
O20   O     O_3   0.006460 0.873870 0.934560 -0.371933
V3    V     V_3+5 0.001200 0.648440 0.987860 1.451936
V4    V     V_3+5 0.998800 0.148440 0.012140 1.453009
F1    F     F_    0.171473 0.864723 0.733251 -0.697120
F2    F     F_    0.828437 0.312920 0.267788 -0.697436

loop_
_geom_bond_atom_site_label_1
_geom_bond_atom_site_label_2
_ccdc_geom_bond_type
C38   C40   A    
O16   C72   A    
C59   C63   A    
C61   C67   A    
C9    C11   A    
O1    C3    A    
C44   C48   A    
O2    C4    A    
O20   V3    S    
C48   C56   A    
C2    O7    A    
C41   H27   S    
C57   H21   S    
O8    V2    S    
C21   C23   A    
C69   O18   A    
C50   C62   A    
O5    C3    A    
C49   C61   A    
C56   H32   S    
C40   H26   S    
C6    H6    S    
C48   C50   A    
C20   C22   A    
C56   C58   A    
O13   C69   A    
C58   C60   A    
C53   F1    S    
C31   C70   S    
C27   H7    S    
C38   C46   A    
C35   C67   A    
C37   C45   A    
C34   C42   A    
C5    C21   A    
C41   C43   A    
C6    C22   A    
C10   C32   A    
O12   V3    S    
C60   C64   A    
C18   C32   A    
C37   C39   A    
C68   H18   S    
C17   C31   A    
C13   C15   A    
C33   C72   S    
C12   C14   A    
C17   C25   A    
C65   H19   S    
C16   C18   A    
C70   O17   A    
C8    C30   A    
C22   C24   A    
O6    V2    S    
O12   C72   A    
O17   V3    S    
C23   C25   A    
C24   C26   A    
C46   C54   A    
C45   C53   A    
C49   C51   A    
C51   H29   S    
C57   C59   A    
C32   C69   S    
C38   H24   S    
C36   C68   A    
C44   C46   A    
C51   C53   A    
C10   H10   S    
C39   H25   S    
C54   F2    S    
C3    C8    S    
C15   C19   A    
C63   H33   S    
C1    C36   S    
O20   V4    S    
C14   C16   A    
C2    C35   S    
O4    V2    S    
O19   V3    S    
O15   C71   A    
O14   V4    S    
C63   C65   A    
C33   C39   A    
C66   H20   S    
O6    C4    A    
C9    H9    S    
C50   C52   A    
O18   V4    S    
O1    V2    S    
C5    H5    S    
O2    V1    S    
C47   C49   A    
H2    C30   S    
H3    C23   S    
C52   C54   A    
C55   C57   A    
C60   C62   A    
C59   C61   A    
C55   H31   S    
C18   C26   A    
O4    C2    A    
C37   H23   S    
C19   C27   A    
C58   H22   S    
C7    C27   A    
O13   V3    S    
C43   C45   A    
C11   H13   S    
C33   C41   A    
C7    C29   A    
C16   C20   A    
C5    C29   A    
O15   V3    S    
O3    C1    A    
C6    C30   A    
C34   C71   S    
C67   H17   S    
C62   C68   A    
C25   H15   S    
C35   C65   A    
O11   C71   A    
C34   C40   A    
C4    C7    S    
C10   C12   A    
O7    V1    S    
O19   V4    S    
C36   C66   A    
C1    O8    A    
C11   C13   A    
C42   H28   S    
C28   H8    S    
C43   C47   A    
C47   C55   A    
C64   C66   A    
H4    C24   S    
C26   H16   S    
C12   H14   S    
O5    V1    S    
C15   C17   A    
C14   H12   S    
H1    C29   S    
O14   C70   A    
C20   C28   A    
C8    C28   A    
C19   C21   A    
O9    V2    S    
C52   H30   S    
O10   V1    S    
O3    V1    S    
C42   C44   A    
C13   H11   S    
C64   H34   S    
O16   V4    S    
C9    C31   A    
O11   V4    S    
