data_mof_unit_68118.cif
_audit_creation_date              2013-03-05T15:58:26-0500
_audit_creation_method            fapswitch 2.2
_symmetry_space_group_name_H-M    P1
_symmetry_Int_Tables_number       1
_space_group_crystal_system       triclinic
_cell_length_a                    7.415463
_cell_length_b                    15.892033
_cell_length_c                    14.847171
_cell_angle_alpha                 90.001295
_cell_angle_beta                  90.002635
_cell_angle_gamma                 89.998696
_cell_volume                      1749.69133189

loop_
_atom_site_label
_atom_site_type_symbol
_atom_site_description
_atom_site_fract_x
_atom_site_fract_y
_atom_site_fract_z
_atom_type_partial_charge
O1    O     O_R   0.388780 0.834790 0.412340 -0.589405
O2    O     O_R   0.111220 0.165210 0.912340 -0.589403
O3    O     O_R   0.888780 0.665210 0.587660 -0.589405
O4    O     O_R   0.611220 0.334790 0.087660 -0.589411
O5    O     O_R   0.059040 0.845930 0.587040 -0.590137
O6    O     O_R   0.440960 0.154070 0.087040 -0.590134
O7    O     O_R   0.559040 0.654070 0.412960 -0.590123
O8    O     O_R   0.940960 0.345930 0.912960 -0.590124
C1    C     C_R   0.229529 0.867396 0.615257 0.865401
C2    C     C_R   0.270470 0.132592 0.115244 0.865364
C3    C     C_R   0.729524 0.632592 0.384755 0.865457
C4    C     C_R   0.770474 0.367403 0.884747 0.865430
O9    O     O_R   0.059070 0.845930 0.412970 -0.586389
O10   O     O_R   0.440930 0.154070 0.912970 -0.586370
O11   O     O_R   0.559070 0.654070 0.587030 -0.586391
O12   O     O_R   0.940930 0.345930 0.087030 -0.586392
O13   O     O_R   0.888760 0.665210 0.412340 -0.590530
O14   O     O_R   0.611240 0.334790 0.912340 -0.590518
O15   O     O_R   0.388760 0.834790 0.587660 -0.590552
O16   O     O_R   0.111240 0.165210 0.087660 -0.590592
C5    C     C_R   0.225711 0.866133 0.383304 0.836753
C6    C     C_R   0.274290 0.133876 0.883295 0.836725
C7    C     C_R   0.725717 0.633887 0.616715 0.836715
C8    C     C_R   0.774284 0.366117 0.116711 0.836785
O17   O     O_3   0.222280 0.690700 0.500000 -0.309713
O18   O     O_3   0.277720 0.309300 0.000000 -0.309709
O19   O     O_3   0.722280 0.809300 0.500000 -0.309735
O20   O     O_3   0.777720 0.190700 0.000000 -0.309744
V1    V     V_3+5 0.947430 0.761000 0.500000 1.120463
V2    V     V_3+5 0.552570 0.239000 0.000000 1.120460
V3    V     V_3+5 0.447430 0.739000 0.500000 1.120455
V4    V     V_3+5 0.052570 0.261000 0.000000 1.120443
C9    C     C_3   0.852288 0.588958 0.773971 0.504979
C10   C     C_3   0.647704 0.411041 0.273958 0.505024
C11   C     C_3   0.352318 0.911071 0.226080 0.505191
C12   C     C_3   0.147685 0.088920 0.726064 0.505060
H1    H     H_    0.979239 0.618287 0.749829 -0.013039
H2    H     H_    0.520744 0.381725 0.249803 -0.013026
H3    H     H_    0.479244 0.881764 0.250282 -0.013053
H4    H     H_    0.020756 0.118239 0.750246 -0.013031
C13   C     C_3   0.899644 0.507189 0.826615 -0.347778
C14   C     C_3   0.600369 0.492801 0.326623 -0.347806
C15   C     C_3   0.399643 0.992832 0.173416 -0.347928
C16   C     C_3   0.100334 0.007148 0.673432 -0.347950
H5    H     H_    0.913378 0.520300 0.899449 0.195941
H6    H     H_    0.586670 0.479679 0.399457 0.195955
H7    H     H_    0.413436 0.979705 0.100585 0.196031
H8    H     H_    0.086515 0.020254 0.600603 0.195994
H9    H     H_    0.031990 0.483791 0.804381 0.120588
H10   H     H_    0.468010 0.516197 0.304414 0.120598
H11   H     H_    0.531950 0.016257 0.195663 0.120542
H12   H     H_    0.968036 0.983729 0.695706 0.120563
C17   C     C_3   0.785290 0.481408 0.649097 -0.383305
C18   C     C_3   0.714699 0.518595 0.149102 -0.383396
C19   C     C_3   0.285186 0.018626 0.350907 -0.383390
C20   C     C_3   0.214870 0.981385 0.850913 -0.383330
C21   C     C_3   0.536931 0.546017 0.736470 -0.407940
C22   C     C_3   0.963067 0.453982 0.236480 -0.407968
C23   C     C_3   0.036914 0.953982 0.263512 -0.407884
C24   C     C_3   0.463095 0.046027 0.763514 -0.407917
C25   C     C_3   0.725186 0.565653 0.692323 -0.098900
C26   C     C_3   0.774812 0.434349 0.192321 -0.098873
C27   C     C_3   0.225153 0.934368 0.307693 -0.098965
C28   C     C_3   0.274861 0.065639 0.807686 -0.098991
H13   H     H_    0.465285 0.603764 0.756944 0.152198
H14   H     H_    0.034715 0.396233 0.256941 0.152192
H15   H     H_    0.965286 0.896219 0.243071 0.152124
H16   H     H_    0.534699 0.103782 0.743030 0.152144
C29   C     C_3   0.750712 0.439603 0.814463 -0.038345
C30   C     C_3   0.749291 0.560388 0.314476 -0.038346
C31   C     C_3   0.250675 0.060398 0.185528 -0.038290
C32   C     C_3   0.249315 0.939586 0.685548 -0.038279
C33   C     C_3   0.763994 0.407045 0.716492 -0.535336
C34   C     C_3   0.736019 0.592950 0.216505 -0.535247
C35   C     C_3   0.263915 0.092972 0.283490 -0.535242
C36   C     C_3   0.236102 0.907021 0.783510 -0.535334
C37   C     C_3   0.561975 0.484604 0.819744 0.562791
C38   C     C_3   0.938022 0.515380 0.319768 0.562720
C39   C     C_3   0.061970 0.015358 0.180204 0.562771
C40   C     C_3   0.438034 0.984604 0.680246 0.562921
H17   H     H_    0.461535 0.434701 0.814748 0.004226
H18   H     H_    0.038475 0.565276 0.314799 0.004279
H19   H     H_    0.961393 0.065224 0.185113 0.004184
H20   H     H_    0.538523 0.934711 0.685238 0.004150
H21   H     H_    0.644757 0.368848 0.698877 0.159257
H22   H     H_    0.855269 0.631136 0.198899 0.159244
H23   H     H_    0.144709 0.131193 0.301067 0.159240
H24   H     H_    0.355334 0.868805 0.801082 0.159262
H25   H     H_    0.705164 0.467925 0.587500 0.187437
H26   H     H_    0.794814 0.532079 0.087507 0.187463
H27   H     H_    0.205053 0.032117 0.412496 0.187456
H28   H     H_    0.295019 0.967906 0.912505 0.187397
O21   O     O_3   0.767840 0.640213 0.840289 -0.628455
C41   C     C_3   0.703647 0.718122 0.810312 0.207884
H29   H     H_    0.600174 0.738513 0.859214 0.118784
H30   H     H_    0.632644 0.717651 0.745382 0.075059
C42   C     C_3   0.853973 0.781015 0.809133 -0.332612
H31   H     H_    0.920430 0.783727 0.876043 0.210830
H32   H     H_    0.953703 0.760833 0.757715 0.190334
C43   C     C_3   0.779606 0.866602 0.784731 -1.088479
H33   H     H_    0.641736 0.874574 0.810371 0.257938
H34   H     H_    0.784914 0.872666 0.710528 0.291250
H35   H     H_    0.855731 0.917300 0.817251 0.270530
O22   O     O_3   0.732139 0.359769 0.340265 -0.628457
C44   C     C_3   0.796340 0.281869 0.310266 0.207862
H36   H     H_    0.899749 0.261458 0.359198 0.118768
H37   H     H_    0.867440 0.282361 0.245362 0.075072
C45   C     C_3   0.645997 0.218979 0.309007 -0.332828
H38   H     H_    0.579550 0.216223 0.375918 0.210770
H39   H     H_    0.546261 0.239193 0.257600 0.190424
C46   C     C_3   0.720344 0.133400 0.284537 -1.087851
H40   H     H_    0.858324 0.125450 0.310098 0.257706
H41   H     H_    0.714924 0.127348 0.210320 0.291308
H42   H     H_    0.644331 0.082678 0.317124 0.270462
O23   O     O_3   0.267987 0.859778 0.159762 -0.628272
C47   C     C_3   0.203744 0.781890 0.189763 0.208053
H43   H     H_    0.100309 0.761494 0.140847 0.118685
H44   H     H_    0.132659 0.782387 0.254668 0.075009
C48   C     C_3   0.354039 0.718978 0.191005 -0.332859
H45   H     H_    0.420377 0.716156 0.124071 0.210773
H46   H     H_    0.453846 0.739208 0.242370 0.190484
C49   C     C_3   0.279653 0.633431 0.215550 -1.087996
H47   H     H_    0.141769 0.625452 0.189899 0.257735
H48   H     H_    0.284906 0.627478 0.289775 0.291367
H49   H     H_    0.355751 0.582673 0.183106 0.270585
O24   O     O_3   0.232027 0.140182 0.659728 -0.628314
C50   C     C_3   0.296271 0.218079 0.689707 0.208061
H50   H     H_    0.399775 0.238445 0.640816 0.118619
H51   H     H_    0.367279 0.217607 0.754638 0.074993
C51   C     C_3   0.145983 0.280999 0.690888 -0.332684
H52   H     H_    0.079666 0.283792 0.623943 0.210802
H53   H     H_    0.046155 0.260786 0.742245 0.190366
C52   C     C_3   0.220371 0.366553 0.715422 -1.088084
H54   H     H_    0.358263 0.374524 0.689785 0.257793
H55   H     H_    0.215101 0.372520 0.789645 0.291296
H56   H     H_    0.144275 0.417307 0.682973 0.270594
H57   H     H_    0.926568 0.488178 0.627593 0.161717
H58   H     H_    0.573411 0.511833 0.127598 0.161743
H59   H     H_    0.426464 0.011860 0.372409 0.161645
H60   H     H_    0.073610 0.988177 0.872402 0.161558
H61   H     H_    0.873310 0.363627 0.708934 0.215338
H62   H     H_    0.626734 0.636383 0.208940 0.215305
H63   H     H_    0.373269 0.136371 0.291048 0.215331
H64   H     H_    0.126744 0.863623 0.791076 0.215327
H65   H     H_    0.447370 0.516300 0.685575 0.139108
H66   H     H_    0.052623 0.483707 0.185594 0.139108
H67   H     H_    0.947330 0.983715 0.314384 0.139129
H68   H     H_    0.552710 0.016334 0.814400 0.139143
O25   O     O_3   0.548313 0.527995 0.903217 -0.639304
C53   C     C_3   0.371512 0.527960 0.939308 0.246002
H69   H     H_    0.384669 0.522794 0.013283 0.129810
H70   H     H_    0.286734 0.473394 0.919052 0.076133
C54   C     C_3   0.275278 0.610463 0.917128 -0.338262
H71   H     H_    0.372931 0.663184 0.917585 0.222068
H72   H     H_    0.216786 0.606325 0.848806 0.167356
C55   C     C_3   0.127408 0.630206 0.985152 -1.008934
H73   H     H_    0.069160 0.572478 0.015382 0.255993
H74   H     H_    0.019235 0.667809 0.953701 0.298969
H75   H     H_    0.185781 0.668156 0.039222 0.281505
O26   O     O_3   0.951663 0.471970 0.403230 -0.639288
C56   C     C_3   0.128459 0.471985 0.439334 0.245949
H76   H     H_    0.115292 0.477073 0.513313 0.129806
H77   H     H_    0.213204 0.526583 0.419149 0.076184
C57   C     C_3   0.224742 0.389513 0.417071 -0.338278
H78   H     H_    0.127124 0.336778 0.417466 0.222025
H79   H     H_    0.283229 0.393721 0.348755 0.167349
C58   C     C_3   0.372628 0.369728 0.485077 -1.008915
H80   H     H_    0.430847 0.427440 0.515366 0.256010
H81   H     H_    0.480824 0.332166 0.453589 0.299000
H82   H     H_    0.314290 0.331713 0.539103 0.281493
O27   O     O_3   0.048558 0.971887 0.096764 -0.639140
C59   C     C_3   0.871883 0.971893 0.060521 0.245381
H83   H     H_    0.885367 0.976411 0.986505 0.129906
H84   H     H_    0.787486 0.026811 0.080174 0.076818
C60   C     C_3   0.774989 0.889694 0.083305 -0.338823
H85   H     H_    0.872275 0.836816 0.083559 0.221855
H86   H     H_    0.716049 0.894490 0.151481 0.167306
C61   C     C_3   0.627578 0.869587 0.015152 -1.008203
H87   H     H_    0.569089 0.927182 0.984741 0.256027
H88   H     H_    0.519508 0.831905 0.046572 0.298878
H89   H     H_    0.686474 0.831598 0.961236 0.281469
O28   O     O_3   0.451587 0.028004 0.596776 -0.639250
C62   C     C_3   0.628335 0.027956 0.560624 0.245745
H90   H     H_    0.615030 0.023066 0.486626 0.129825
H91   H     H_    0.712921 0.973219 0.580617 0.076470
C63   C     C_3   0.724904 0.110318 0.583072 -0.338640
H92   H     H_    0.627428 0.163121 0.582982 0.221974
H93   H     H_    0.783688 0.105867 0.651312 0.167363
C64   C     C_3   0.872473 0.130228 0.514947 -1.008465
H94   H     H_    0.930978 0.072550 0.484723 0.256005
H95   H     H_    0.980504 0.167992 0.546314 0.298851
H96   H     H_    0.813693 0.168061 0.460881 0.281508

loop_
_geom_bond_atom_site_label_1
_geom_bond_atom_site_label_2
_geom_bond_distance
_ccdc_geom_bond_type
O17   V3    1.837602 S    
C39   H19   1.090665 S    
O27   C59   1.416301 S    
O1    C5    1.377000 A    
O24   C50   1.399137 S    
C20   C36   1.556556 S    
C21   H65   1.111330 S    
O19   V1    1.837570 S    
O13   V1    2.049507 S    
C29   C37   1.573645 S    
O3    C7    1.376988 A    
C46   H40   1.098565 S    
C10   C14   1.556551 S    
C1    C32   1.557815 S    
C10   C26   1.579529 S    
C32   C36   1.546911 S    
O15   V3    2.049516 S    
C42   C43   1.511731 S    
C31   C39   1.573771 S    
C56   H76   1.105676 S    
C3    C30   1.557842 S    
C58   H81   1.103907 S    
C33   H61   1.070424 S    
C47   H43   1.104896 S    
O7    C3    1.374828 A    
C44   H37   1.098497 S    
O21   C41   1.399157 S    
C17   H57   1.100503 S    
O9    V1    2.043759 S    
C57   H78   1.107442 S    
C18   H26   1.111426 S    
C62   H91   1.112760 S    
O4    C8    1.376961 A    
C30   C38   1.573673 S    
O23   C47   1.399127 S    
O1    V3    2.049504 S    
C19   H59   1.100448 S    
C45   H38   1.109822 S    
O2    V4    2.049486 S    
C14   H6    1.105989 S    
C39   O27   1.421918 S    
O3    V1    2.049544 S    
O28   C62   1.416339 S    
C19   H27   1.111428 S    
C42   H32   1.110245 S    
C18   C34   1.556512 S    
C17   C25   1.550149 S    
C1    O15   1.353003 A    
C24   C40   1.586102 S    
C2    O16   1.352982 A    
C53   C54   1.528642 S    
C19   C27   1.550095 S    
C30   C34   1.547032 S    
C52   H56   1.095943 S    
C15   C31   1.550986 S    
C20   C28   1.550069 S    
C29   C33   1.547009 S    
C51   H53   1.110261 S    
O14   V2    2.049575 S    
C40   O28   1.421876 S    
C60   C61   1.523430 S    
C11   C15   1.556589 S    
C36   H24   1.103906 S    
C59   C60   1.528805 S    
C40   H20   1.090610 S    
C19   C35   1.556533 S    
C2    C31   1.557840 S    
C16   H12   1.100178 S    
O11   C7    1.350625 A    
C34   H62   1.070402 S    
O12   C8    1.350640 A    
C41   H29   1.104971 S    
O10   V2    2.043674 S    
C13   H9    1.100185 S    
O22   C44   1.399141 S    
C56   H77   1.112497 S    
C22   H14   1.103095 S    
C42   H31   1.109755 S    
C58   H82   1.093442 S    
O5    V1    2.043675 S    
C48   H46   1.110261 S    
C44   C45   1.497397 S    
C17   C33   1.556548 S    
O7    V3    2.043701 S    
O8    V4    2.043690 S    
C47   C48   1.497346 S    
C21   C37   1.586087 S    
C12   H4    1.109924 S    
C60   H86   1.105189 S    
C47   H44   1.098465 S    
C62   C63   1.528764 S    
C37   O25   1.421863 S    
C58   H80   1.108948 S    
O18   V4    1.837601 S    
C18   C26   1.550139 S    
C41   C42   1.497328 S    
O11   V3    2.043687 S    
C43   H35   1.095851 S    
C10   O22   1.423057 S    
C55   H73   1.108924 S    
C64   H96   1.093544 S    
C11   H3    1.109903 S    
C62   H90   1.105807 S    
C50   H51   1.098470 S    
C14   C30   1.551075 S    
O5    C1    1.374845 A    
C38   H18   1.090474 S    
C23   H15   1.103129 S    
C60   H85   1.107520 S    
C37   H17   1.090509 S    
O8    C4    1.374816 A    
C43   H34   1.106621 S    
O9    C5    1.350617 A    
C46   H41   1.106827 S    
C34   H22   1.103922 S    
C54   C55   1.523445 S    
C41   H30   1.098453 S    
C23   C39   1.586166 S    
C33   H21   1.103942 S    
C35   H63   1.070447 S    
C22   C26   1.573515 S    
C14   H10   1.100128 S    
C36   H64   1.070487 S    
C35   H23   1.103824 S    
O6    V2    2.043763 S    
C4    C29   1.557883 S    
C17   H25   1.111428 S    
C52   H54   1.098430 S    
C53   H70   1.112492 S    
C12   C16   1.556487 S    
C51   C52   1.511801 S    
C54   H72   1.105179 S    
C49   H48   1.106772 S    
C50   H50   1.104916 S    
C56   C57   1.528649 S    
C59   H83   1.105802 S    
C13   C29   1.551100 S    
O16   V4    2.049535 S    
C48   C49   1.511765 S    
C38   O26   1.421876 S    
C3    O13   1.353043 A    
C8    C26   1.560764 S    
C10   H2    1.109959 S    
C55   H75   1.093403 S    
C12   O24   1.423023 S    
C21   H13   1.103119 S    
C9    O21   1.423074 S    
O6    C2    1.374879 A    
C61   H88   1.103875 S    
C48   H45   1.109802 S    
C22   H66   1.111326 S    
C21   C25   1.573515 S    
O12   V4    2.043695 S    
C44   H36   1.104994 S    
C23   C27   1.573470 S    
C45   C46   1.511807 S    
C24   C28   1.573430 S    
C9    C13   1.556550 S    
O26   C56   1.416358 S    
O10   C6    1.350578 A    
C63   C64   1.523414 S    
C55   H74   1.103887 S    
C51   H52   1.109822 S    
C49   H47   1.098430 S    
C50   C51   1.497369 S    
O20   V2    1.837570 S    
C32   C40   1.573693 S    
C12   C28   1.579478 S    
O2    C6    1.377022 A    
C31   C35   1.546948 S    
C15   H11   1.100112 S    
C18   H58   1.100526 S    
C15   H7    1.106014 S    
C49   H49   1.095963 S    
C20   H60   1.100339 S    
C57   H79   1.105178 S    
C43   H33   1.098288 S    
C59   H84   1.112883 S    
C45   H39   1.110254 S    
C16   C32   1.550997 S    
C46   H42   1.096192 S    
C57   C58   1.523442 S    
C64   H94   1.108930 S    
C9    H1    1.109963 S    
C5    C27   1.560849 S    
C61   H89   1.093631 S    
C22   C38   1.586086 S    
C6    C28   1.560819 S    
C7    C25   1.560793 S    
C11   O23   1.423011 S    
C24   H16   1.103144 S    
C9    C25   1.579541 S    
C4    O14   1.353074 A    
C52   H55   1.106752 S    
C13   H5    1.105966 S    
C53   H69   1.105696 S    
C11   C27   1.579438 S    
C24   H68   1.111324 S    
C64   H95   1.104000 S    
C63   H92   1.107527 S    
O25   C53   1.416363 S    
C20   H28   1.111457 S    
C63   H93   1.105218 S    
O4    V2    2.049474 S    
C16   H8    1.105950 S    
C61   H87   1.108938 S    
C54   H71   1.107449 S    
C23   H67   1.111336 S    
