data_mof_unit_31454.cif
_audit_creation_date              2012-12-10T18:33:40-0500
_audit_creation_method            fapswitch 2.2
_symmetry_space_group_name_H-M    P1
_symmetry_Int_Tables_number       1
_space_group_crystal_system       triclinic
_cell_length_a                    10.562964
_cell_length_b                    15.025836
_cell_length_c                    15.435393
_cell_angle_alpha                 81.205386
_cell_angle_beta                  89.919327
_cell_angle_gamma                 104.926322
_cell_volume                      2337.23415639

loop_
_atom_site_label
_atom_site_type_symbol
_atom_type_description
_atom_site_fract_x
_atom_site_fract_y
_atom_site_fract_z
_atom_type_partial_charge
C1    C     C_R   0.481633 0.440483 0.662998 0.928606
C2    C     C_R   0.519400 0.559542 0.337209 0.917153
C3    C     C_R   0.507286 0.469774 0.813500 -0.223408
C4    C     C_R   0.568914 0.538656 0.188377 -0.235278
C5    C     C_R   0.548972 0.451964 0.898385 0.056615
C6    C     C_R   0.589211 0.565697 0.097849 0.055483
C7    C     C_R   0.553810 0.359965 0.932561 0.049355
C8    C     C_R   0.593662 0.659174 0.061533 0.054016
C9    C     C_R   0.579943 0.523527 0.951190 0.094151
C10   C     C_R   0.593408 0.499359 0.042024 0.097116
C11   C     C_R   0.606158 0.408939 0.073790 -0.187541
C12   C     C_R   0.597605 0.618542 0.916185 -0.203089
C13   C     C_R   0.588649 0.341270 0.019738 -0.148071
C14   C     C_R   0.607095 0.685149 0.970323 -0.152503
C15   C     C_R   0.704364 0.845318 0.633060 0.004904
C16   C     C_R   0.290262 0.153216 0.370960 0.019964
C17   C     C_R   0.675742 0.757684 0.606485 0.048498
C18   C     C_R   0.328748 0.244156 0.389861 0.058246
C19   C     C_R   0.501538 0.790248 0.521359 -0.041936
C20   C     C_R   0.488187 0.206405 0.486798 -0.036687
C21   C     C_R   0.532739 0.882790 0.539139 -0.019478
C22   C     C_R   0.450391 0.112294 0.473684 -0.014332
C23   C     C_R   0.742401 0.501486 0.498093 0.939036
C24   C     C_R   0.257572 0.498452 0.501934 0.942256
C25   C     C_R   0.634047 0.908951 0.597907 0.080853
C26   C     C_R   0.350392 0.086601 0.413864 0.071044
C27   C     C_R   0.469173 0.950313 0.499016 0.084159
C28   C     C_R   0.508529 0.043413 0.517731 0.090388
C29   C     C_R   0.604379 0.064583 0.580083 -0.146083
C30   C     C_R   0.369861 0.928307 0.439139 -0.140257
C31   C     C_R   0.665308 0.998866 0.619118 -0.104897
C32   C     C_R   0.311739 0.994689 0.398092 -0.101546
C33   C     C_3   0.931538 0.423315 0.470583 -0.030084
C34   C     C_3   0.068259 0.576299 0.529379 -0.026363
C35   C     C_3   0.009653 0.423604 0.554413 -0.054036
C36   C     C_3   0.990200 0.576051 0.445499 -0.057692
C37   C     C_3   0.122475 0.497994 0.503248 -0.127876
C38   C     C_3   0.877399 0.501701 0.496701 -0.129329
C39   C     C_3   0.045753 0.498004 0.418646 -0.276844
C40   C     C_3   0.954106 0.501601 0.581255 -0.286975
C41   C     C_R   0.486940 0.403733 0.757390 -0.158891
C42   C     C_R   0.545031 0.598736 0.243067 -0.147464
C43   C     C_R   0.521059 0.288747 0.879570 0.136836
C44   C     C_R   0.579284 0.723463 0.116543 0.133163
C45   C     C_R   0.486121 0.310333 0.791735 0.136458
C46   C     C_R   0.549017 0.692239 0.207085 0.135950
H1    H     H_    0.565116 0.233059 0.528735 0.163700
H2    H     H_    0.422214 0.762560 0.481682 0.166928
H3    H     H_    0.635942 0.131781 0.600651 0.184956
H4    H     H_    0.333933 0.860084 0.421529 0.197101
H5    H     H_    0.086132 0.496194 0.352639 0.185355
H6    H     H_    0.914075 0.502956 0.647412 0.169961
H7    H     H_    0.599154 0.273627 0.048698 0.189662
H8    H     H_    0.617508 0.756021 0.938757 0.194449
H9    H     H_    0.563594 0.468038 0.217549 0.210379
H10   H     H_    0.488811 0.536255 0.789532 0.201575
H11   H     H_    0.632488 0.388745 0.140000 0.164883
H12   H     H_    0.605496 0.643904 0.846697 0.198562
H13   H     H_    0.739394 0.020952 0.665068 0.200339
H14   H     H_    0.236065 0.972080 0.353330 0.200418
N1    N     N_R   0.574200 0.731700 0.552740 -0.149506
N2    N     N_R   0.425800 0.268300 0.447260 -0.153503
O1    O     O_R   0.462600 0.383110 0.605620 -0.580777
O2    O     O_R   0.537400 0.616890 0.394380 -0.577152
O3    O     O_R   0.510210 0.531900 0.639510 -0.599054
O4    O     O_R   0.489790 0.468100 0.360490 -0.610826
O5    O     O_R   0.662240 0.425610 0.483080 -0.632055
O6    O     O_R   0.337760 0.574390 0.516920 -0.632458
O7    O     O_R   0.709860 0.574400 0.516970 -0.580175
O8    O     O_R   0.290140 0.425600 0.483030 -0.572971
Zn1   Zn    Zn3+2 0.468210 0.400660 0.477370 1.017819
Zn2   Zn    Zn3+2 0.531790 0.599340 0.522630 1.019167
C47   C     C_2   0.018212 0.339510 0.618190 0.991315
O9    O     O_2   0.918108 0.287245 0.655145 -0.600267
O10   O     O_R   0.139781 0.321816 0.636070 -0.780440
H15   H     H_    0.132288 0.263306 0.680404 0.364579
C48   C     C_2   0.981265 0.660085 0.381737 0.998601
O11   O     O_2   0.081319 0.712946 0.345289 -0.597573
O12   O     O_R   0.859365 0.676977 0.363240 -0.783577
H16   H     H_    0.866445 0.735429 0.318895 0.358186
C49   C     C_2   0.260816 0.312311 0.347790 1.007437
O13   O     O_2   0.154943 0.313794 0.378749 -0.605218
O14   O     O_R   0.309833 0.367180 0.267472 -0.805881
H17   H     H_    0.252671 0.409409 0.243782 0.338882
C50   C     C_2   0.761891 0.696740 0.633605 1.011683
O15   O     O_2   0.867436 0.710872 0.594255 -0.585688
O16   O     O_R   0.728487 0.628422 0.707833 -0.832346
H18   H     H_    0.798130 0.593517 0.721593 0.334401
I1    I     I_    0.856527 0.879094 0.724570 -0.245263
I2    I     I_    0.140141 0.119467 0.278021 -0.212280
C51   C     C_2   0.856793 0.339613 0.432859 1.004701
O17   O     O_2   0.850872 0.261009 0.470843 -0.599740
O18   O     O_R   0.794775 0.352472 0.353766 -0.795291
H19   H     H_    0.746430 0.291279 0.335162 0.343933
C52   C     C_2   0.142402 0.659768 0.567564 0.993772
O19   O     O_2   0.146501 0.738385 0.530509 -0.598537
O20   O     O_R   0.205331 0.646732 0.646246 -0.790074
H20   H     H_    0.252808 0.707889 0.665292 0.346616
I3    I     I_    0.495902 0.785462 0.283910 -0.260221
I4    I     I_    0.420893 0.198770 0.717376 -0.259294
I5    I     I_    0.524407 0.148197 0.931950 -0.201716
I6    I     I_    0.597156 0.867258 0.062435 -0.201070

loop_
_geom_bond_atom_site_label_1
_geom_bond_atom_site_label_2
_ccdc_geom_bond_type
C25   C31   A    
C39   H5    S    
C46   I3    S    
C26   C32   A    
O18   H19   S    
C34   C37   S    
C47   O9    D    
C23   O7    A    
C52   O19   D    
O16   H18   S    
C49   O13   D    
C24   O8    A    
C29   H3    S    
C50   O15   D    
C16   I2    S    
C33   C39   S    
C34   C40   S    
C28   C29   A    
C35   C37   S    
C19   N1    A    
C36   C48   S    
C33   C51   S    
C15   C25   A    
C51   O18   S    
C31   H13   S    
C18   C49   S    
C42   C46   A    
C23   O5    A    
C17   N1    A    
C3    C41   A    
O14   H17   S    
C44   C46   A    
C1    O3    A    
O8    Zn1   S    
C7    C43   A    
C9    C10   A    
O5    Zn1   S    
C48   O11   D    
C12   H12   S    
C48   O12   S    
C30   H4    S    
C38   C40   S    
C22   C28   A    
C27   C30   A    
C20   N2    A    
C47   O10   S    
C1    O1    A    
C49   O14   S    
C2    O2    A    
O20   H20   S    
C13   H7    S    
C50   O16   S    
C16   C26   A    
C34   C52   S    
C4    C6    A    
C51   O17   D    
C5    C7    A    
C44   I6    S    
C19   H2    S    
C18   N2    A    
C6    C8    A    
C3    C5    A    
C40   H6    S    
O7    Zn2   S    
O10   H15   S    
C43   I5    S    
C5    C9    A    
C15   I1    S    
C3    H10   S    
O4    Zn1   S    
C20   C22   A    
O6    Zn2   S    
C24   C37   S    
C16   C18   A    
C43   C45   A    
N1    Zn2   S    
C1    C41   S    
C14   H8    S    
C12   C14   A    
C4    H9    S    
C17   C50   S    
C32   H14   S    
O3    Zn2   S    
C15   C17   A    
C21   C25   A    
C35   C47   S    
C8    C14   A    
C19   C21   A    
C36   C39   S    
C8    C44   A    
O1    Zn1   S    
C2    O4    A    
C45   I4    S    
C6    C10   A    
C52   O20   S    
C23   C38   S    
C33   C38   S    
C36   C38   S    
C35   C40   S    
C37   C39   S    
C30   C32   A    
C11   C13   A    
C4    C42   A    
C2    C42   S    
C33   C35   S    
N2    Zn1   S    
C34   C36   S    
O2    Zn2   S    
C21   C27   A    
C9    C12   A    
C20   H1    S    
C10   C11   A    
C24   O6    A    
O12   H16   S    
C7    C13   A    
C29   C31   A    
C22   C26   A    
C27   C28   A    
C41   C45   A    
C11   H11   S    
