data_mof_unit_57678.cif
_audit_creation_date              2012-12-11T16:24:52-0500
_audit_creation_method            fapswitch 2.2
_symmetry_space_group_name_H-M    P1
_symmetry_Int_Tables_number       1
_space_group_crystal_system       triclinic
_cell_length_a                    22.612868
_cell_length_b                    30.523206
_cell_length_c                    18.698808
_cell_angle_alpha                 89.99183
_cell_angle_beta                  125.654316
_cell_angle_gamma                 89.303012
_cell_volume                      10485.7546297

loop_
_atom_site_label
_atom_site_type_symbol
_atom_type_description
_atom_site_fract_x
_atom_site_fract_y
_atom_site_fract_z
_atom_type_partial_charge
C1    C     C_R   0.926930 0.601980 0.074051 -0.121086
C2    C     C_R   0.109715 0.537555 0.437982 -0.265582
C3    C     C_R   0.358833 0.479537 0.422921 0.030840
C4    C     C_R   0.865826 0.012864 0.393699 0.015967
C5    C     C_R   0.146274 0.975368 0.626519 0.011881
C6    C     C_R   0.182359 0.012120 0.540996 0.017819
C7    C     C_R   0.871132 0.995149 0.269509 0.026934
C8    C     C_R   0.323306 0.496477 0.337038 0.063310
C9    C     C_R   0.694366 0.504948 0.629257 0.053756
C10   C     C_R   0.831584 0.001085 0.305612 0.047702
C11   C     C_R   0.199593 0.995878 0.621928 0.056126
C12   C     C_R   0.472108 0.486722 0.439341 0.091602
C13   C     C_R   0.597491 0.959299 0.724174 -0.267116
C14   C     C_R   0.548477 0.494678 0.500478 0.083647
C15   C     C_R   0.980455 0.006063 0.413480 0.090931
C16   C     C_R   0.056889 0.997062 0.477339 0.088429
C17   C     C_R   0.805117 0.537412 0.756383 -0.006009
C18   C     C_R   0.204866 0.462824 0.233965 0.038826
C19   C     C_R   0.204796 0.535361 0.237052 0.008270
C20   C     C_R   0.801979 0.465019 0.755634 0.036506
C21   C     C_R   0.302572 0.035679 0.754656 0.039460
C22   C     C_R   0.710630 0.963641 0.218290 0.028383
C23   C     C_R   0.709579 0.036464 0.216303 0.052915
C24   C     C_R   0.605495 0.039066 0.435887 -0.272048
C25   C     C_R   0.307878 0.963492 0.755455 0.023495
C26   C     C_R   0.044239 0.463287 0.244046 -0.171503
C27   C     C_R   0.009487 0.535832 0.797472 -0.142191
C28   C     C_R   0.009593 0.462797 0.798448 -0.135778
C29   C     C_R   0.043770 0.535856 0.244268 -0.103367
C30   C     C_R   0.542173 0.963358 0.243338 -0.151626
C31   C     C_R   0.512355 0.036293 0.801544 -0.140273
C32   C     C_R   0.511905 0.963196 0.800904 -0.147433
C33   C     C_R   0.543205 0.036018 0.243818 -0.120267
C34   C     C_R   0.857234 0.612800 0.000002 0.022143
C35   C     C_R   0.116547 0.456603 0.664455 0.068985
C36   C     C_R   0.103872 0.357407 0.001340 0.030396
C37   C     C_R   0.114259 0.636313 0.997535 0.054206
C38   C     C_R   0.859852 0.387388 0.005258 0.028803
C39   C     C_R   0.351665 0.104026 0.000398 0.035298
C40   C     C_R   0.597292 0.854497 0.999473 0.034787
C41   C     C_R   0.594220 0.144123 0.997169 0.051094
C42   C     C_R   0.393240 0.861306 0.004619 0.031451
C43   C     C_R   0.768901 0.502215 0.704247 -0.020042
C44   C     C_R   0.245827 0.498322 0.280209 -0.033040
C45   C     C_R   0.271524 0.998970 0.702162 -0.050499
C46   C     C_R   0.126097 0.537677 0.522527 0.066054
C47   C     C_R   0.754217 0.000112 0.249280 -0.063216
C48   C     C_R   0.059581 0.499184 0.296759 0.074783
C49   C     C_R   0.033248 0.498814 0.776947 0.070866
C50   C     C_R   0.557557 0.999548 0.295968 0.077445
C51   C     C_R   0.536939 0.999525 0.781664 0.077678
C52   C     C_R   0.096069 0.536927 0.721606 -0.246799
C53   C     C_R   0.108895 0.458174 0.436754 -0.266416
C54   C     C_R   0.597511 0.038656 0.724503 -0.269073
C55   C     C_R   0.607780 0.959703 0.437156 -0.259827
C56   C     C_R   0.076065 0.497764 0.740567 0.115425
C57   C     C_R   0.619032 0.958539 0.667522 0.068351
C58   C     C_R   0.095330 0.498230 0.392335 0.105272
C59   C     C_R   0.580187 0.999133 0.745882 0.115957
C60   C     C_R   0.592847 0.999382 0.391529 0.104786
C61   C     C_R   0.697824 0.380470 0.854805 0.130273
C62   C     C_R   0.669037 0.423231 0.835900 -0.150693
C63   C     C_R   0.625093 0.438166 0.748688 -0.117359
C64   C     C_R   0.611095 0.410913 0.680462 -0.081966
C65   C     C_R   0.639841 0.368345 0.699016 -0.142461
C66   C     C_R   0.682510 0.352968 0.785798 -0.192941
C67   C     C_R   0.231881 0.690492 0.154621 0.121387
C68   C     C_R   0.621905 0.039696 0.520516 0.064852
C69   C     C_R   0.174105 0.712273 0.149097 -0.146467
C70   C     C_R   0.177861 0.720468 0.225201 -0.118036
C71   C     C_R   0.239426 0.707438 0.307433 -0.092471
C72   C     C_R   0.297456 0.686255 0.313777 -0.120419
C73   C     C_R   0.293902 0.677834 0.237851 -0.191409
C74   C     C_R   0.260610 0.338115 0.107364 0.138544
C75   C     C_R   0.261156 0.373608 0.059761 -0.133715
C76   C     C_R   0.313027 0.406377 0.103283 -0.120672
C77   C     C_R   0.365226 0.403755 0.194304 -0.084979
C78   C     C_R   0.365657 0.368367 0.242005 -0.125163
C79   C     C_R   0.123262 0.496821 0.632368 0.020424
C80   C     C_R   0.313655 0.335611 0.198831 -0.182167
C81   C     C_R   0.764069 0.680940 0.865144 0.123400
C82   C     C_R   0.828841 0.702082 0.892382 -0.130953
C83   C     C_R   0.839984 0.716434 0.830146 -0.111922
C84   C     C_R   0.786356 0.710194 0.740457 -0.071660
C85   C     C_R   0.721378 0.689731 0.712843 -0.106737
C86   C     C_R   0.710026 0.675288 0.774856 -0.209909
C87   C     C_R   0.235513 0.846318 0.896569 0.134094
C88   C     C_R   0.235438 0.881261 0.945668 -0.121399
C89   C     C_R   0.178582 0.912202 0.905890 -0.128812
C90   C     C_R   0.127055 0.497263 0.560293 0.022601
C91   C     C_R   0.120537 0.908127 0.817359 -0.092532
C92   C     C_R   0.119998 0.873624 0.767896 -0.107439
C93   C     C_R   0.177468 0.843112 0.806893 -0.187356
C94   C     C_R   0.732504 0.151987 0.024360 0.144603
C95   C     C_R   0.799999 0.142712 0.104256 -0.161368
C96   C     C_R   0.840778 0.105833 0.112127 -0.110368
C97   C     C_R   0.814721 0.078209 0.040236 -0.104155
C98   C     C_R   0.747686 0.087270 0.960478 -0.111046
C99   C     C_R   0.706710 0.124077 0.952345 -0.132002
C100  C     C_R   0.750896 0.823883 0.123215 0.138539
C101  C     C_R   0.623308 0.998880 0.633541 0.020766
C102  C     C_R   0.766594 0.854145 0.079933 -0.129980
C103  C     C_R   0.830226 0.878590 0.127637 -0.143844
C104  C     C_R   0.878470 0.873354 0.218893 -0.096864
C105  C     C_R   0.863320 0.843437 0.262578 -0.124531
C106  C     C_R   0.799965 0.818674 0.215054 -0.189277
C107  C     C_R   0.193390 0.124009 0.832942 0.120655
C108  C     C_R   0.183750 0.152863 0.768140 -0.171081
C109  C     C_R   0.145082 0.139673 0.680398 -0.122205
C110  C     C_R   0.114603 0.098021 0.656458 -0.095056
C111  C     C_R   0.123409 0.069381 0.720400 -0.110993
C112  C     C_R   0.049984 0.380622 0.927310 -0.136601
C113  C     C_R   0.625406 0.999345 0.560135 0.019364
C114  C     C_R   0.163429 0.082015 0.808573 -0.155886
C115  C     C_R   0.908795 0.333080 0.167432 0.119321
C116  C     C_R   0.954573 0.308503 0.154261 -0.141118
C117  C     C_R   0.027842 0.301822 0.223576 -0.116828
C118  C     C_R   0.055449 0.318868 0.306745 -0.102739
C119  C     C_R   0.009706 0.342341 0.320887 -0.128386
C120  C     C_R   0.936512 0.349304 0.251661 -0.180249
C121  C     C_R   0.082987 0.681644 0.829440 0.115751
C122  C     C_R   0.065587 0.663289 0.750670 -0.184947
C123  C     C_R   0.998244 0.672157 0.671180 -0.114438
C124  C     C_R   0.118026 0.536846 0.665881 0.141145
C125  C     C_R   0.948025 0.700102 0.669452 -0.093201
C126  C     C_R   0.965326 0.719377 0.747130 -0.113380
C127  C     C_R   0.032524 0.710358 0.826822 -0.157726
C128  C     C_R   0.999909 0.285392 0.904861 0.129765
C129  C     C_R   0.963535 0.294320 0.943695 -0.123971
C130  C     C_R   0.887699 0.298972 0.891125 -0.116235
C131  C     C_R   0.848089 0.295826 0.799643 -0.106210
C132  C     C_R   0.884098 0.287126 0.760627 -0.106587
C133  C     C_R   0.959747 0.281460 0.813050 -0.183937
C134  C     C_R   0.822894 0.587920 0.126527 0.129766
C135  C     C_R   0.123416 0.457427 0.520060 0.148302
C136  C     C_R   0.819064 0.544956 0.096989 -0.132824
C137  C     C_R   0.854747 0.510416 0.157431 -0.103167
C138  C     C_R   0.894124 0.518410 0.247658 -0.077553
C139  C     C_R   0.898405 0.560993 0.277655 -0.110276
C140  C     C_R   0.862657 0.595635 0.217432 -0.188024
C141  C     C_R   0.489274 0.790043 0.137284 0.129500
C142  C     C_R   0.548512 0.783886 0.132698 -0.138504
C143  C     C_R   0.619572 0.788739 0.207975 -0.123963
C144  C     C_R   0.631936 0.799559 0.288219 -0.098382
C145  C     C_R   0.573232 0.804676 0.293750 -0.123880
C146  C     C_R   0.617250 0.038862 0.666620 0.145688
C147  C     C_R   0.502130 0.799330 0.218836 -0.182705
C148  C     C_R   0.505973 0.222234 0.971084 0.138817
C149  C     C_R   0.442952 0.234985 0.889148 -0.165365
C150  C     C_R   0.374678 0.232638 0.873896 -0.117051
C151  C     C_R   0.369070 0.218016 0.940555 -0.088503
C152  C     C_R   0.431659 0.205565 0.022440 -0.090525
C153  C     C_R   0.499916 0.207487 0.037703 -0.141846
C154  C     C_R   0.493145 0.787432 0.863741 0.122226
C155  C     C_R   0.433354 0.789598 0.868147 -0.135588
C156  C     C_R   0.363307 0.797357 0.791888 -0.118538
C157  C     C_R   0.622802 0.959408 0.520693 0.144372
C158  C     C_R   0.352641 0.803373 0.711014 -0.099513
C159  C     C_R   0.411855 0.800804 0.705955 -0.119606
C160  C     C_R   0.481773 0.792291 0.781803 -0.183246
C161  C     C_R   0.342005 0.095743 0.157760 0.123752
C162  C     C_R   0.335538 0.050258 0.143266 -0.135235
C163  C     C_R   0.373040 0.020868 0.214233 -0.105935
C164  C     C_R   0.417096 0.036512 0.300230 -0.079666
C165  C     C_R   0.424837 0.081566 0.315395 -0.110077
C166  C     C_R   0.387542 0.111130 0.244679 -0.188208
C167  C     C_R   0.130270 0.373510 0.674102 0.147824
C168  C     C_R   0.125576 0.416518 0.633356 0.005412
C169  C     C_R   0.180556 0.366930 0.765483 -0.171491
C170  C     C_R   0.184596 0.326721 0.804136 -0.115918
C171  C     C_R   0.139023 0.292618 0.751997 -0.099013
C172  C     C_R   0.089462 0.298633 0.661075 -0.119874
C173  C     C_R   0.085066 0.338837 0.622117 -0.162459
C174  C     C_R   0.142001 0.620264 0.535820 0.143942
C175  C     C_R   0.198983 0.626050 0.526843 -0.159652
C176  C     C_R   0.207849 0.666403 0.499065 -0.112914
C177  C     C_R   0.160234 0.701334 0.480464 -0.095072
C178  C     C_R   0.103720 0.695981 0.489753 -0.110919
C179  C     C_R   0.132863 0.577385 0.565609 0.000720
C180  C     C_R   0.094604 0.655663 0.517468 -0.165939
C181  C     C_R   0.631699 0.875360 0.674924 0.150346
C182  C     C_R   0.684484 0.867267 0.765186 -0.175490
C183  C     C_R   0.689504 0.826202 0.801687 -0.111655
C184  C     C_R   0.642299 0.792927 0.748351 -0.077293
C185  C     C_R   0.589689 0.800636 0.658695 -0.129295
C186  C     C_R   0.584349 0.841643 0.621938 -0.165851
C187  C     C_R   0.630394 0.122772 0.528393 0.150234
C188  C     C_R   0.686129 0.130901 0.518128 -0.163120
C189  C     C_R   0.689651 0.171441 0.486064 -0.122244
C190  C     C_R   0.627459 0.918579 0.635536 0.003096
C191  C     C_R   0.637890 0.204201 0.464440 -0.091856
C192  C     C_R   0.582586 0.196508 0.474998 -0.113766
C193  C     C_R   0.578868 0.156023 0.507080 -0.176964
C194  C     C_R   0.626422 0.079637 0.561971 -0.004183
C195  C     C_R   0.127737 0.417479 0.559934 -0.289479
C196  C     C_R   0.053505 0.616325 0.925513 -0.134275
C197  C     C_R   0.128000 0.576433 0.636760 -0.282912
C198  C     C_R   0.628503 0.919588 0.561421 -0.285976
C199  C     C_R   0.623460 0.078674 0.634634 -0.282470
C200  C     C_R   0.684909 0.335592 0.951172 -0.221755
C201  C     C_R   0.285358 0.694886 0.071917 -0.221663
C202  C     C_R   0.229793 0.260174 0.070161 -0.248410
C203  C     C_R   0.697924 0.687525 0.931367 -0.224113
C204  C     C_R   0.266842 0.768108 0.929040 -0.229647
C205  C     C_R   0.718110 0.232083 0.027752 -0.240637
C206  C     C_R   0.707852 0.748874 0.079745 -0.230557
C207  C     C_R   0.926791 0.402232 0.075901 -0.120083
C208  C     C_R   0.187960 0.172448 0.931970 -0.240540
C209  C     C_R   0.731259 0.361387 0.942896 0.018103
C210  C     C_R   0.227566 0.681419 0.073576 0.019720
C211  C     C_R   0.205378 0.303283 0.061573 0.010335
C212  C     C_R   0.751880 0.665740 0.930816 0.013597
C213  C     C_R   0.291456 0.810537 0.941285 -0.000529
C214  C     C_R   0.688969 0.190937 0.016171 0.009523
C215  C     C_R   0.689407 0.793323 0.070936 -0.004181
C216  C     C_R   0.226175 0.139415 0.923450 0.019181
C217  C     C_R   0.806763 0.363419 0.013588 -0.007973
C218  C     C_R   0.423640 0.096782 0.073780 -0.129714
C219  C     C_R   0.163061 0.666857 0.994438 -0.005764
C220  C     C_R   0.129571 0.312604 0.006020 0.002305
C221  C     C_R   0.797130 0.634219 0.997594 0.001675
C222  C     C_R   0.366151 0.818302 0.004740 -0.000399
C223  C     C_R   0.619339 0.187464 0.997573 -0.003081
C224  C     C_R   0.617525 0.807652 0.002821 -0.001657
C225  C     C_R   0.289298 0.120579 0.000665 -0.011662
C226  C     C_R   0.831385 0.340757 0.093912 0.016073
C227  C     C_R   0.154925 0.672697 0.913880 0.031087
C228  C     C_R   0.079616 0.278334 0.960302 0.019576
C229  C     C_R   0.546914 0.879824 0.926570 -0.142352
C230  C     C_R   0.784728 0.624526 0.062265 0.024259
C231  C     C_R   0.413921 0.783447 0.059354 0.010823
C232  C     C_R   0.578303 0.225234 0.987767 0.014130
C233  C     C_R   0.566694 0.776146 0.942344 0.010804
C234  C     C_R   0.298560 0.126665 0.082142 0.023742
C235  C     C_R   0.855833 0.398263 0.929370 -0.132184
C236  C     C_R   0.129711 0.614078 0.071966 -0.137850
C237  C     C_R   0.121493 0.380960 0.073862 -0.097515
C238  C     C_R   0.853564 0.599489 0.926622 -0.107977
C239  C     C_R   0.375833 0.883003 0.928968 -0.104986
C240  C     C_R   0.544409 0.120161 0.924894 -0.139637
C241  C     C_R   0.615401 0.120616 0.071193 -0.095038
C242  C     C_R   0.617025 0.879118 0.072497 -0.098740
C243  C     C_R   0.351618 0.095838 0.927138 -0.108528
C244  C     C_R   0.782304 0.317716 0.100924 -0.239207
C245  C     C_R   0.216139 0.680938 0.915782 -0.239373
C246  C     C_R   0.105824 0.235799 0.968197 -0.249748
C247  C     C_R   0.734313 0.650126 0.065440 -0.251611
C248  C     C_R   0.386944 0.741244 0.046343 -0.248663
C249  C     C_R   0.608076 0.266560 0.997259 -0.251152
C250  C     C_R   0.588510 0.732268 0.950615 -0.246470
C251  C     C_R   0.447217 0.884325 0.076639 -0.135741
C252  C     C_R   0.260232 0.160822 0.088983 -0.244768
C253  C     C_R   0.711555 0.311708 0.027531 0.100752
C254  C     C_R   0.278456 0.696725 0.992651 0.110023
C255  C     C_R   0.180488 0.226826 0.022185 0.116778
C256  C     C_R   0.692155 0.682121 0.001029 0.115446
C257  C     C_R   0.313327 0.733732 0.982938 0.119397
C258  C     C_R   0.678553 0.269727 0.019573 0.121261
C259  C     C_R   0.659430 0.718900 0.017108 0.109326
C260  C     C_R   0.208413 0.185231 0.014648 0.115890
C261  C     C_R   0.436660 0.501171 0.352966 -0.211228
C262  C     C_R   0.092449 0.457692 0.718503 -0.267351
C263  C     C_R   0.570345 0.518277 0.575643 -0.212220
C264  C     C_R   0.598555 0.480478 0.484326 -0.213185
C265  C     C_R   0.433306 0.473646 0.472616 -0.228782
C266  C     C_R   0.939894 0.017652 0.445712 -0.211093
C267  C     C_R   0.076417 0.974195 0.552816 -0.216242
C268  C     C_R   0.109696 0.013926 0.468928 -0.206596
C269  C     C_R   0.946436 0.996434 0.324889 -0.213384
C270  C     C_R   0.361981 0.505825 0.300724 0.020438
C271  C     C_R   0.642738 0.522875 0.641235 0.017737
C272  C     C_R   0.672274 0.486184 0.548425 0.033387
H1    H     H_    0.948510 0.607342 0.142227 0.113444
H2    H     H_    0.209877 0.685933 0.854212 0.125455
H3    H     H_    0.168797 0.059757 0.857240 0.107836
H4    H     H_    0.933523 0.294933 0.090274 0.103595
H5    H     H_    0.063172 0.283382 0.212835 0.106118
H6    H     H_    0.112178 0.313686 0.360351 0.099457
H7    H     H_    0.030935 0.355202 0.385423 0.104633
H8    H     H_    0.901701 0.367847 0.263176 0.116303
H9    H     H_    0.104401 0.642168 0.751377 0.102425
H10   H     H_    0.985176 0.657518 0.610925 0.103929
H11   H     H_    0.895941 0.707076 0.607860 0.095872
H12   H     H_    0.926787 0.741469 0.745517 0.100604
H13   H     H_    0.068064 0.209624 0.930829 0.133922
H14   H     H_    0.045218 0.725712 0.886384 0.107121
H15   H     H_    0.993872 0.297073 0.014473 0.104022
H16   H     H_    0.859538 0.304914 0.921210 0.111728
H17   H     H_    0.789491 0.299862 0.758989 0.101012
H18   H     H_    0.853336 0.284462 0.689814 0.109025
H19   H     H_    0.987121 0.274347 0.782267 0.116228
H20   H     H_    0.788428 0.538252 0.027226 0.109030
H21   H     H_    0.851921 0.477455 0.134331 0.112832
H22   H     H_    0.921822 0.491652 0.294373 0.109053
H23   H     H_    0.929522 0.567160 0.347615 0.116082
H24   H     H_    0.729012 0.645964 0.119028 0.129293
H25   H     H_    0.866630 0.628489 0.241606 0.112480
H26   H     H_    0.539964 0.774768 0.071655 0.117382
H27   H     H_    0.665096 0.783869 0.204256 0.113256
H28   H     H_    0.687011 0.803503 0.346263 0.098437
H29   H     H_    0.582818 0.812596 0.356105 0.105396
H30   H     H_    0.456992 0.803074 0.223893 0.114546
H31   H     H_    0.446736 0.246554 0.837201 0.110463
H32   H     H_    0.326143 0.242349 0.810558 0.112839
H33   H     H_    0.316334 0.216525 0.928966 0.107297
H34   H     H_    0.427274 0.194528 0.074171 0.109410
H35   H     H_    0.421663 0.714988 0.091077 0.131518
H36   H     H_    0.548034 0.197969 0.101598 0.099025
H37   H     H_    0.440557 0.784601 0.929846 0.116769
H38   H     H_    0.317207 0.798543 0.795413 0.112179
H39   H     H_    0.298436 0.809643 0.652187 0.101092
H40   H     H_    0.403524 0.805051 0.643186 0.110098
H41   H     H_    0.527146 0.789794 0.777005 0.123066
H42   H     H_    0.300660 0.037541 0.077105 0.107020
H43   H     H_    0.367645 0.985936 0.202571 0.108571
H44   H     H_    0.445703 0.013702 0.355125 0.114975
H45   H     H_    0.459589 0.093567 0.382047 0.117803
H46   H     H_    0.577467 0.295981 0.989580 0.131420
H47   H     H_    0.394440 0.145930 0.257800 0.110823
H48   H     H_    0.287550 0.497544 0.169210 0.122073
H49   H     H_    0.301528 0.550634 0.202820 0.110470
H50   H     H_    0.696692 0.523113 0.774942 0.115782
H51   H     H_    0.686443 0.573335 0.728048 0.106399
H52   H     H_    0.755788 0.500697 0.541395 0.104803
H53   H     H_    0.756342 0.448277 0.571294 0.121009
H54   H     H_    0.268107 0.481424 0.424901 0.119178
H55   H     H_    0.321590 0.436151 0.469123 0.095437
H56   H     H_    0.789943 0.044300 0.401452 0.102701
H57   H     H_    0.552209 0.709125 0.899982 0.135359
H58   H     H_    0.798227 0.989713 0.422443 0.110286
H59   H     H_    0.190942 0.928765 0.722836 0.137076
H60   H     H_    0.188340 0.980192 0.757082 0.119444
H61   H     H_    0.263268 0.053053 0.568579 0.094638
H62   H     H_    0.275378 0.000272 0.551628 0.110381
H63   H     H_    0.802609 0.960764 0.158778 0.117748
H64   H     H_    0.801877 0.015094 0.143189 0.126618
H65   H     H_    0.837462 0.576128 0.698599 0.108900
H66   H     H_    0.754219 0.588714 0.671635 0.100671
H67   H     H_    0.271662 0.410011 0.278657 0.120338
H68   H     H_    0.270246 0.168554 0.151700 0.125255
H69   H     H_    0.223183 0.415994 0.320735 0.085693
H70   H     H_    0.252648 0.593974 0.277927 0.107251
H71   H     H_    0.165734 0.593321 0.247898 0.105964
H72   H     H_    0.845185 0.404901 0.764140 0.108300
H73   H     H_    0.754326 0.406456 0.713803 0.117134
H74   H     H_    0.332936 0.083293 0.708417 0.091194
H75   H     H_    0.243031 0.084095 0.665272 0.115906
H76   H     H_    0.771269 0.911021 0.236107 0.131324
H77   H     H_    0.760286 0.919293 0.316649 0.095598
H78   H     H_    0.711531 0.091591 0.276112 0.078744
H79   H     H_    0.467151 0.511278 0.327797 0.128629
H80   H     H_    0.786884 0.083663 0.279185 0.111451
H81   H     H_    0.269628 0.918052 0.658449 0.099805
H82   H     H_    0.358241 0.913187 0.740731 0.110957
H83   H     H_    0.216472 0.392991 0.806759 0.118337
H84   H     H_    0.223101 0.321980 0.874520 0.115295
H85   H     H_    0.142161 0.261543 0.782040 0.098840
H86   H     H_    0.054252 0.272154 0.620762 0.108075
H87   H     H_    0.045865 0.343073 0.551685 0.107209
H88   H     H_    0.236514 0.599320 0.541456 0.119762
H89   H     H_    0.251758 0.670597 0.492169 0.104709
H90   H     H_    0.530764 0.531536 0.585303 0.135820
H91   H     H_    0.167193 0.732554 0.458972 0.095023
H92   H     H_    0.066899 0.723071 0.475377 0.104817
H93   H     H_    0.050291 0.651934 0.523838 0.104494
H94   H     H_    0.721910 0.892659 0.807022 0.116156
H95   H     H_    0.730194 0.820095 0.871184 0.111985
H96   H     H_    0.646357 0.761156 0.776291 0.104845
H97   H     H_    0.553101 0.774796 0.617646 0.107431
H98   H     H_    0.543176 0.847156 0.552317 0.109329
H99   H     H_    0.726689 0.105825 0.534845 0.116276
H100  H     H_    0.732539 0.177462 0.478015 0.106487
H101  H     H_    0.580519 0.464240 0.423364 0.125233
H102  H     H_    0.640672 0.235558 0.439584 0.097948
H103  H     H_    0.542524 0.221904 0.458211 0.103183
H104  H     H_    0.535430 0.150438 0.514387 0.105971
H105  H     H_    0.016720 0.368548 0.860724 0.109323
H106  H     H_    0.461685 0.462345 0.540147 0.126467
H107  H     H_    0.966651 0.026581 0.514088 0.128540
H108  H     H_    0.035664 0.958676 0.557157 0.130868
H109  H     H_    0.094399 0.029639 0.408292 0.125537
H110  H     H_    0.978026 0.988364 0.299898 0.122840
H111  H     H_    0.812182 0.391939 0.862301 0.118237
H112  H     H_    0.172104 0.620280 0.139333 0.114101
H113  H     H_    0.151301 0.368132 0.140074 0.111641
H114  H     H_    0.806555 0.600916 0.859126 0.123607
H115  H     H_    0.341082 0.871474 0.862218 0.114449
H116  H     H_    0.020517 0.626710 0.857937 0.118485
H117  H     H_    0.642196 0.134418 0.135951 0.096669
H118  H     H_    0.644461 0.866190 0.138454 0.118165
H119  H     H_    0.306636 0.097545 0.859530 0.137876
H120  H     H_    0.060213 0.429673 0.265533 0.107467
H121  H     H_    0.016186 0.569360 0.786485 0.101609
H122  H     H_    0.017042 0.428776 0.790283 0.095520
H123  H     H_    0.058693 0.569234 0.265980 0.083631
H124  H     H_    0.556535 0.929619 0.264690 0.095414
H125  H     H_    0.521356 0.070108 0.794743 0.092310
H126  H     H_    0.520132 0.929267 0.792987 0.097507
H127  H     H_    0.946385 0.403773 0.143682 0.122917
H128  H     H_    0.558842 0.069330 0.265570 0.086195
H129  H     H_    0.088353 0.567825 0.743214 0.118763
H130  H     H_    0.101701 0.427378 0.404281 0.119306
H131  H     H_    0.588939 0.069657 0.745383 0.113813
H132  H     H_    0.601548 0.928747 0.405503 0.116175
H133  H     H_    0.080230 0.427334 0.736462 0.132659
H134  H     H_    0.101462 0.568352 0.404882 0.133813
H135  H     H_    0.587522 0.928795 0.744268 0.132256
H136  H     H_    0.595622 0.069664 0.401607 0.136026
H137  H     H_    0.129824 0.386974 0.531736 0.130368
H138  H     H_    0.445593 0.101106 0.142083 0.116906
H139  H     H_    0.128688 0.606913 0.666546 0.132515
H140  H     H_    0.630320 0.889072 0.532973 0.134053
H141  H     H_    0.622185 0.109222 0.663392 0.137487
H142  H     H_    0.629601 0.330174 0.894131 0.132688
H143  H     H_    0.331486 0.710186 0.130003 0.127818
H144  H     H_    0.287802 0.253077 0.109191 0.129359
H145  H     H_    0.666405 0.713235 0.883220 0.121232
H146  H     H_    0.208641 0.763033 0.884967 0.137673
H147  H     H_    0.771604 0.234913 0.041419 0.134708
H148  H     H_    0.764143 0.738726 0.127466 0.132846
H149  H     H_    0.513202 0.869570 0.859088 0.117325
H150  H     H_    0.143564 0.189501 0.873701 0.125814
H151  H     H_    0.677976 0.444180 0.888019 0.110169
H152  H     H_    0.600332 0.470451 0.733835 0.118515
H153  H     H_    0.577274 0.422426 0.613089 0.113405
H154  H     H_    0.628284 0.347098 0.646081 0.111308
H155  H     H_    0.702387 0.319382 0.799314 0.114861
H156  H     H_    0.126120 0.722761 0.085885 0.106134
H157  H     H_    0.133040 0.736986 0.220424 0.107436
H158  H     H_    0.242214 0.713854 0.366238 0.094812
H159  H     H_    0.345069 0.676122 0.377527 0.109654
H160  H     H_    0.509761 0.131971 0.857640 0.093575
H161  H     H_    0.338936 0.660848 0.243819 0.116102
H162  H     H_    0.221493 0.375879 0.989054 0.108674
H163  H     H_    0.312899 0.433746 0.066382 0.112188
H164  H     H_    0.405496 0.429060 0.227814 0.111729
H165  H     H_    0.406084 0.366435 0.312533 0.110140
H166  H     H_    0.314272 0.308540 0.236724 0.109804
H167  H     H_    0.870658 0.707226 0.961683 0.109830
H168  H     H_    0.890172 0.732432 0.851518 0.101621
H169  H     H_    0.795026 0.721313 0.692321 0.092226
H170  H     H_    0.679804 0.685045 0.643376 0.106114
H171  H     H_    0.477070 0.875873 0.145342 0.117443
H172  H     H_    0.659529 0.659396 0.752722 0.117645
H173  H     H_    0.278327 0.883945 0.015304 0.107683
H174  H     H_    0.178915 0.938935 0.944145 0.106711
H175  H     H_    0.076219 0.931889 0.786864 0.103636
H176  H     H_    0.075219 0.870690 0.699114 0.109412
H177  H     H_    0.176051 0.816520 0.767596 0.110216
H178  H     H_    0.820610 0.163796 0.160490 0.110044
H179  H     H_    0.892519 0.098609 0.174001 0.113279
H180  H     H_    0.846371 0.049688 0.046451 0.107109
H181  H     H_    0.727568 0.065819 0.904929 0.120136
H182  H     H_    0.802404 0.297977 0.159441 0.131418
H183  H     H_    0.655104 0.130918 0.889969 0.098047
H184  H     H_    0.730841 0.857743 0.008973 0.108471
H185  H     H_    0.842345 0.901467 0.093741 0.113961
H186  H     H_    0.927571 0.892460 0.255709 0.112093
H187  H     H_    0.900855 0.839263 0.333205 0.109041
H188  H     H_    0.789891 0.794880 0.249589 0.104549
H189  H     H_    0.205500 0.185613 0.785486 0.104950
H190  H     H_    0.137943 0.161943 0.630788 0.108185
H191  H     H_    0.083875 0.088008 0.588345 0.111266
H192  H     H_    0.097914 0.037720 0.701290 0.114093
N1    N     N_R   0.963040 0.582050 0.045950 -0.044979
N2    N     N_R   0.082060 0.582000 0.045840 -0.044363
N3    N     N_R   0.082060 0.418000 0.045840 -0.040634
N4    N     N_R   0.917940 0.582000 0.954160 -0.039163
N5    N     N_R   0.417940 0.918000 0.954160 -0.040852
N6    N     N_R   0.582060 0.082000 0.045840 -0.039780
N7    N     N_R   0.582060 0.918000 0.045840 -0.040253
N8    N     N_R   0.417940 0.082000 0.954160 -0.039360
N9    N     N_R   0.858490 0.522630 0.835610 -0.054945
N10   N     N_R   0.141510 0.477370 0.164390 -0.050950
N11   N     N_R   0.141510 0.522630 0.164390 -0.061681
N12   N     N_R   0.036960 0.417950 0.954050 -0.041869
N13   N     N_R   0.858490 0.477370 0.835610 -0.062483
N14   N     N_R   0.358490 0.022630 0.835610 -0.060097
N15   N     N_R   0.641510 0.977370 0.164390 -0.052047
N16   N     N_R   0.641510 0.022630 0.164390 -0.058482
N17   N     N_R   0.358490 0.977370 0.835610 -0.057253
N18   N     N_R   0.022480 0.477420 0.164500 -0.040814
N19   N     N_R   0.977520 0.522580 0.835500 -0.041083
N20   N     N_R   0.977520 0.477420 0.835500 -0.041983
N21   N     N_R   0.022480 0.522580 0.164500 -0.041275
N22   N     N_R   0.522480 0.977420 0.164500 -0.040362
N23   N     N_R   0.036960 0.582050 0.954050 -0.039234
N24   N     N_R   0.477520 0.022580 0.835500 -0.042759
N25   N     N_R   0.477520 0.977420 0.835500 -0.044365
N26   N     N_R   0.522480 0.022580 0.164500 -0.043810
N27   N     N_3   0.326859 0.520298 0.211424 -0.220037
N28   N     N_3   0.661541 0.543514 0.720892 -0.226710
N29   N     N_3   0.723061 0.473799 0.529396 -0.218747
N30   N     N_3   0.322045 0.470166 0.463079 -0.214308
N31   N     N_3   0.827094 0.018296 0.432534 -0.217436
N32   N     N_3   0.160214 0.957605 0.706124 -0.222966
N33   N     N_3   0.237011 0.025708 0.529926 -0.216124
N34   N     N_R   0.963040 0.417950 0.045950 -0.041999
N35   N     N_3   0.835792 0.988038 0.177375 -0.226605
N36   N     N_3   0.806990 0.579529 0.724050 -0.213837
N37   N     N_3   0.220448 0.418280 0.263162 -0.224926
N38   N     N_3   0.215136 0.575947 0.280777 -0.213835
N39   N     N_3   0.797312 0.422720 0.720024 -0.230933
N40   N     N_3   0.295199 0.079492 0.723068 -0.219070
N41   N     N_3   0.733287 0.919659 0.248426 -0.223235
N42   N     N_3   0.730279 0.081127 0.239307 -0.219554
N43   N     N_3   0.307011 0.919770 0.726793 -0.227935
N44   N     N_R   0.463040 0.082050 0.045950 -0.043970
N45   N     N_R   0.536960 0.917950 0.954050 -0.041426
N46   N     N_R   0.536960 0.082050 0.954050 -0.038364
N47   N     N_R   0.463040 0.917950 0.045950 -0.040822
N48   N     N_R   0.917940 0.418000 0.954160 -0.041940
Ni1   Ni    Ni4+2 0.051820 0.551870 0.104030 0.201906
Ni2   Ni    Ni4+2 0.948180 0.448130 0.895970 0.206191
Ni3   Ni    Ni4+2 0.948180 0.551870 0.895970 0.215773
Ni4   Ni    Ni4+2 0.051820 0.448130 0.104030 0.212375
Ni5   Ni    Ni4+2 0.551820 0.051870 0.104030 0.202395
Ni6   Ni    Ni4+2 0.448180 0.948130 0.895970 0.205558
Ni7   Ni    Ni4+2 0.448180 0.051870 0.895970 0.210445
Ni8   Ni    Ni4+2 0.551820 0.948130 0.104030 0.214582

loop_
_geom_bond_atom_site_label_1
_geom_bond_atom_site_label_2
_ccdc_geom_bond_type
C31   H125  S    
C155  H37   S    
C126  C127  A    
C208  C260  A    
C102  H184  S    
N6    N46   A    
C101  C113  A    
N6    Ni5   S    
C18   N37   S    
C138  H22   S    
C112  N12   A    
C223  C232  A    
C211  C220  A    
C162  C163  A    
H52   N29   S    
C119  H7    S    
C120  H8    S    
C246  C255  A    
C143  C144  A    
C256  C259  S    
N7    N45   A    
N1    N4    A    
C108  C109  A    
H58   N31   S    
C116  H4    S    
C110  C111  A    
C79   C90   A    
C39   C218  A    
C98   H181  S    
C253  C258  S    
C184  H96   S    
C93   H177  S    
H77   N41   S    
C1    C34   A    
N11   Ni1   S    
C231  C248  A    
C39   C243  A    
C81   C86   A    
C71   H158  S    
C217  C226  A    
C205  C258  A    
C228  C246  A    
C22   C47   A    
C29   N21   A    
N3    Ni4   S    
C187  C193  A    
C229  H149  S    
C55   H132  S    
C26   N18   A    
C104  C105  A    
C233  C250  A    
H51   N28   S    
N22   Ni8   S    
C151  H33   S    
C191  C192  A    
C182  H94   S    
C130  H16   S    
C266  H107  S    
C38   C235  A    
C118  H6    S    
C144  C145  A    
C3    N30   S    
C33   C50   A    
C181  C182  A    
C124  C197  A    
C92   H176  S    
H50   N28   S    
C16   C268  A    
C75   C76   A    
C17   C43   A    
C52   H129  S    
C18   C44   A    
C213  C222  A    
C201  H143  S    
C226  C244  A    
C175  C176  A    
C202  H144  S    
C20   N13   A    
C265  H106  S    
H66   N36   S    
C148  C149  A    
C206  H148  S    
C154  C155  A    
C14   C264  A    
C160  H41   S    
C241  N6    A    
C9    C272  A    
C42   C251  A    
C5    C267  A    
C6    C268  A    
C158  C159  A    
C105  H187  S    
C148  C153  A    
C107  C108  A    
N18   Ni4   S    
C19   C44   A    
C252  C260  A    
H71   N38   S    
C105  C106  A    
C36   C237  A    
C75   H162  S    
C164  C165  A    
N34   Ni4   S    
C46   C179  A    
C20   N39   S    
C176  H89   S    
C17   N36   S    
C72   C73   A    
C205  H147  S    
C139  C140  A    
C121  C127  A    
N16   Ni5   S    
N18   N21   A    
N5    Ni6   S    
N4    Ni3   S    
C204  H146  S    
C200  C209  A    
C121  C227  S    
C74   C211  S    
H60   N32   S    
C209  C217  A    
C156  C158  A    
C130  C131  A    
H72   N39   S    
C52   C124  A    
N10   N11   A    
C197  H139  S    
C198  H140  S    
C247  H24   S    
N24   N25   A    
C21   N40   S    
C32   N25   A    
C69   C70   A    
C34   C238  A    
C122  H9    S    
C21   N14   A    
C210  C219  A    
N46   Ni7   S    
C88   C89   A    
C98   C99   A    
C155  C156  A    
C175  H88   S    
C113  C157  A    
C149  C150  A    
C41   C240  A    
N21   Ni1   S    
C53   C58   A    
C218  H138  S    
N34   N48   A    
C251  N47   A    
C53   C135  A    
C249  C258  A    
C15   C266  A    
C31   N24   A    
C97   C98   A    
C235  H111  S    
C167  C169  A    
C241  H117  S    
C85   C86   A    
N2    Ni1   S    
C154  C160  A    
N3    N12   A    
C225  C234  A    
C133  H19   S    
C250  H57   S    
C208  H150  S    
C193  H104  S    
H82   N43   S    
C199  H141  S    
N20   Ni2   S    
C13   C57   A    
C170  C171  A    
C201  C254  A    
N12   Ni2   S    
C17   N9    A    
C184  C185  A    
C157  C198  A    
C85   H170  S    
C189  C191  A    
C174  C175  A    
C8    C270  A    
C182  C183  A    
N19   N20   A    
C108  H189  S    
C149  H31   S    
C221  C230  A    
N2    N23   A    
H63   N35   S    
C89   C91   A    
C244  H182  S    
C142  H26   S    
C78   H165  S    
C247  C256  A    
C263  C271  A    
H70   N38   S    
C94   C95   A    
C261  H79   S    
C145  H29   S    
C83   H168  S    
C21   C45   A    
C54   C59   A    
C109  H190  S    
C70   H157  S    
C9    C43   S    
C23   C47   A    
C38   C207  A    
C131  H17   S    
C106  H188  S    
C125  H11   S    
C129  H15   S    
H48   N27   S    
C163  H43   S    
C14   C263  A    
C99   H183  S    
C91   C92   A    
C141  C147  A    
C254  C257  S    
N23   Ni3   S    
C111  H192  S    
C33   N26   A    
C41   C241  A    
C245  H2    S    
C159  H40   S    
C28   C49   A    
C150  H32   S    
C83   C84   A    
N8    N44   A    
C28   N20   A    
C35   C168  A    
C263  H90   S    
C41   C223  S    
N44   Ni5   S    
C148  C232  S    
C97   H180  S    
C272  N29   S    
C82   C83   A    
C152  H34   S    
N13   Ni2   S    
C25   C45   A    
C250  C259  A    
C10   C47   S    
C129  C130  A    
C172  H86   S    
C255  C260  S    
C185  H97   S    
N7    Ni8   S    
C31   C51   A    
C136  C137  A    
C243  N8    A    
C181  C186  A    
C140  H25   S    
C13   C59   A    
C170  H84   S    
C100  C106  A    
C267  H108  S    
C57   C101  A    
C79   C124  A    
N9    Ni3   S    
C167  C173  A    
C73   H161  S    
C189  H100  S    
C62   H151  S    
C71   C72   A    
C117  C118  A    
C236  H112  S    
C90   C135  A    
C84   H169  S    
C87   C93   A    
C35   C79   A    
C134  C230  S    
C33   H128  S    
C242  H118  S    
C102  C103  A    
C29   H123  S    
C77   H164  S    
C30   H124  S    
C214  C223  A    
C63   C64   A    
C112  H105  S    
C152  C153  A    
C22   N41   S    
C166  H47   S    
C150  C151  A    
C68   C194  A    
C232  C249  A    
C252  H68   S    
C40   C229  A    
C42   C222  S    
H53   N29   S    
C82   H167  S    
C207  H127  S    
C230  C247  A    
C27   C49   A    
C69   H156  S    
C104  H186  S    
C206  C215  A    
C7    C10   A    
C206  C259  A    
C103  H185  S    
C174  C180  A    
C158  H39   S    
N15   N16   A    
C196  N23   A    
C215  C224  A    
C161  C162  A    
C153  H36   S    
C143  H27   S    
H81   N43   S    
C77   C78   A    
C180  H93   S    
H65   N36   S    
C63   H152  S    
C5    C11   A    
N19   Ni3   S    
C123  C125  A    
C4    C266  A    
C24   C60   A    
C204  C213  A    
C220  C228  A    
C186  H98   S    
C270  N27   S    
C240  H160  S    
H75   N40   S    
C262  H133  S    
C218  N44   A    
C163  C164  A    
C168  C195  A    
N48   Ni2   S    
C271  N28   S    
C36   C112  A    
C229  N45   A    
C151  C152  A    
C70   C71   A    
C67   C73   A    
C22   N15   A    
C202  C211  A    
C240  N46   A    
C34   C221  S    
C26   C48   A    
C68   C113  A    
C54   C146  A    
C30   N22   A    
C30   C50   A    
C264  C272  A    
C74   C80   A    
C55   C60   A    
C128  C129  A    
C25   N43   S    
C38   C217  S    
C27   N19   A    
H59   N32   S    
N17   Ni6   S    
C25   N17   A    
C53   H130  S    
C145  C147  A    
N14   Ni7   S    
N9    N13   A    
C94   C214  S    
H55   N30   S    
C26   H120  S    
C23   N16   A    
C136  H20   S    
C7    N35   S    
C167  C168  S    
C173  H87   S    
H76   N41   S    
C239  N5    A    
C54   H131  S    
C2    H134  S    
C56   C262  A    
C169  H83   S    
C32   C51   A    
C62   C63   A    
C227  C245  A    
C159  C160  A    
C76   H163  S    
H67   N37   S    
H56   N31   S    
C61   C209  S    
C84   C85   A    
C178  H92   S    
C121  C122  A    
C235  N48   A    
C3    C8    A    
C244  C253  A    
C187  C194  S    
C251  H171  S    
C125  C126  A    
C132  H18   S    
N5    N47   A    
C37   C219  S    
C131  C132  A    
C6    C11   A    
C190  C198  A    
C203  C256  A    
C64   H153  S    
C237  N3    A    
C123  H10   S    
C178  C180  A    
C42   C239  A    
C2    C58   A    
C6    N33   S    
C48   C58   S    
C110  H191  S    
C46   C90   A    
C141  C231  S    
C245  C254  A    
C32   H126  S    
C216  C225  A    
H64   N35   S    
C64   C65   A    
C50   C60   S    
C187  C188  A    
C109  C110  A    
C139  H23   S    
C185  C186  A    
C154  C233  S    
C92   C93   A    
N22   N26   A    
C111  C114  A    
C78   C80   A    
C12   C261  A    
C88   H173  S    
C39   C225  S    
C138  C139  A    
C24   C68   A    
C135  C195  A    
H73   N39   S    
C55   C157  A    
C81   C212  S    
C19   N11   A    
C13   H135  S    
C87   C88   A    
C177  C178  A    
C103  C104  A    
C142  C143  A    
C204  C257  A    
C219  C227  A    
C128  C133  A    
C91   H175  S    
C115  C116  A    
C164  H44   S    
N45   Ni6   S    
C165  H45   S    
C171  C172  A    
C100  C215  S    
C165  C166  A    
C3    C265  A    
N24   Ni7   S    
C128  C228  S    
C169  C170  A    
C95   C96   A    
H80   N42   S    
C224  C233  A    
C36   C220  S    
C81   C82   A    
C107  C114  A    
C2    C46   A    
C40   C224  S    
H61   N33   S    
C95   H178  S    
C134  C140  A    
C15   C16   S    
C18   N10   A    
C116  C117  A    
C67   C210  S    
C162  H42   S    
C181  C190  S    
C146  C199  A    
C144  H28   S    
C12   C265  A    
C188  H99   S    
C117  H5    S    
C118  C119  A    
C61   C66   A    
N26   Ni5   S    
C161  C234  S    
C202  C255  A    
C132  C133  A    
H74   N40   S    
C9    C271  A    
C1    H1    S    
C161  C166  A    
C195  H137  S    
C65   H154  S    
C147  H30   S    
C208  C216  A    
H69   N37   S    
C127  H14   S    
C61   C62   A    
C192  H103  S    
H78   N42   S    
C239  H115  S    
N15   Ni8   S    
C4    N31   S    
C264  H101  S    
C212  C221  A    
C237  H113  S    
C101  C146  A    
H62   N33   S    
C74   C75   A    
C107  C216  S    
C29   C48   A    
C16   C267  A    
C37   C196  A    
C7    C269  A    
C76   C77   A    
C115  C226  S    
C234  C252  A    
C249  H46   S    
C134  C136  A    
C268  H109  S    
C179  C197  A    
N14   N17   A    
C242  N7    A    
C238  N4    A    
C19   N38   S    
C188  C189  A    
C67   C69   A    
C236  N2    A    
C183  C184  A    
C86   H172  S    
C5    N32   S    
N1    Ni1   S    
C194  C199  A    
C203  H145  S    
C96   C97   A    
C100  C102  A    
C87   C213  S    
C200  H142  S    
N47   Ni8   S    
C119  C120  A    
C261  C270  A    
C27   H121  S    
C243  H119  S    
C269  H110  S    
C176  C177  A    
C248  H35   S    
C12   C14   S    
C222  C231  A    
C65   C66   A    
C23   N42   S    
C203  C212  A    
C51   C59   S    
C4    C10   A    
C201  C210  A    
C20   C43   A    
C172  C173  A    
C37   C236  A    
C72   H159  S    
C191  H102  S    
C156  H38   S    
C24   H136  S    
H49   N27   S    
C96   H179  S    
C8    C44   S    
N8    Ni7   S    
C205  C214  A    
C89   H174  S    
C171  H85   S    
C238  H114  S    
C80   H166  S    
C49   C56   S    
C137  C138  A    
C200  C253  A    
N10   Ni4   S    
C192  C193  A    
C137  H21   S    
C35   C262  A    
C57   C190  A    
C141  C142  A    
C1    N1    A    
C94   C99   A    
C126  H12   S    
C114  H3    S    
C11   C45   S    
C248  C257  A    
C66   H155  S    
C28   H122  S    
C177  H91   S    
C115  C120  A    
C207  N34   A    
C196  H116  S    
C246  H13   S    
H54   N30   S    
C183  H95   S    
C122  C123  A    
C15   C269  A    
C174  C179  S    
C40   C242  A    
C52   C56   A    
N25   Ni6   S    
