data_mof_unit_20484.cif
_audit_creation_date              2012-10-26T18:43:30-0400
_audit_creation_method            fapswitch 2.2
_symmetry_space_group_name_H-M    P1
_symmetry_Int_Tables_number       1
_space_group_crystal_system       triclinic
_cell_length_a                    10.75816
_cell_length_b                    10.833522
_cell_length_c                    9.549932
_cell_angle_alpha                 90.870203
_cell_angle_beta                  90.7857
_cell_angle_gamma                 90.87082
_cell_volume                      1112.66762539

loop_
_atom_site_label
_atom_site_type_symbol
_atom_type_description
_atom_site_fract_x
_atom_site_fract_y
_atom_site_fract_z
_atom_type_partial_charge
C1    C     C_R   0.495365 0.262376 0.498955 0.561081
C2    C     C_R   0.461915 0.939855 0.627510 -0.034616
C3    C     C_3   0.538654 0.941262 0.762258 0.168746
C4    C     C_R   0.260021 0.497839 0.499094 0.607634
C5    C     C_3   0.548441 0.081127 0.750911 0.215277
C6    C     C_R   0.602355 0.538464 0.076714 0.111462
C7    C     C_R   0.402329 0.452372 0.071975 -0.027343
C8    C     C_R   0.402158 0.452656 0.923255 -0.007876
C9    C     C_R   0.604165 0.536111 0.929294 0.177827
C10   C     C_3   0.667314 0.660168 0.929756 0.128716
C11   C     C_3   0.660467 0.663043 0.088249 -0.218770
C12   C     C_3   0.878140 0.492162 0.500512 -0.003216
C13   C     C_R   0.494112 0.737889 0.501106 0.555452
C14   C     C_R   0.739980 0.494713 0.500491 0.567058
C15   C     C_3   0.073504 0.472078 0.648393 -0.180015
C16   C     C_3   0.930821 0.465503 0.649454 0.151610
C17   C     C_3   0.069169 0.616521 0.434334 0.111908
C18   C     C_3   0.071034 0.385450 0.403217 0.126255
C19   C     C_3   0.122283 0.494750 0.497748 0.036539
C20   C     C_3   0.369133 0.841542 0.874876 -0.117971
C21   C     C_3   0.570188 0.179449 0.965283 -0.085426
C22   C     C_3   0.843858 0.771266 0.872798 -0.168671
C23   C     C_3   0.926774 0.620463 0.452773 -0.270469
C24   C     C_3   0.888447 0.340481 0.840179 -0.119164
C25   C     C_3   0.138808 0.760488 0.610633 -0.117050
C26   C     C_3   0.134187 0.185415 0.350041 -0.117732
C27   C     C_3   0.926143 0.390402 0.397999 -0.185236
C28   C     C_R   0.468525 0.067198 0.623360 0.051481
C29   C     C_R   0.477486 0.129517 0.497476 -0.026591
C30   C     C_R   0.464744 0.061851 0.371656 -0.178358
C31   C     C_R   0.464032 0.933096 0.373961 -0.145507
C32   C     C_R   0.474519 0.870964 0.502274 -0.026454
Cu1   Cu    Cu3+1 0.499990 0.499980 0.640670 0.973481
Cu2   Cu    Cu3+1 0.500010 0.500020 0.359330 0.928254
H1    H     H_    0.895222 0.410659 0.289140 0.066900
H2    H     H_    0.610678 0.727914 0.874278 0.166695
H3    H     H_    0.752470 0.661367 0.142368 0.140247
H4    H     H_    0.898923 0.539689 0.720207 0.181635
H5    H     H_    0.898515 0.693113 0.528413 0.125714
H6    H     H_    0.105866 0.399604 0.294602 0.076211
H7    H     H_    0.106755 0.543531 0.724721 0.051464
H8    H     H_    0.384259 0.752814 0.819543 0.138555
H9    H     H_    0.296526 0.896996 0.822664 0.129592
H10   H     H_    0.334637 0.818945 0.980506 0.127668
H11   H     H_    0.634445 0.253441 0.929807 0.104228
H12   H     H_    0.082045 0.607031 0.319143 0.134062
H13   H     H_    0.623599 0.098978 0.003170 0.120552
H14   H     H_    0.517800 0.216642 0.055199 0.139095
H15   H     H_    0.322353 0.415246 0.866218 0.131362
H16   H     H_    0.946061 0.764821 0.886280 0.122687
H17   H     H_    0.811324 0.838417 0.953471 0.116896
H18   H     H_    0.824670 0.806163 0.766141 0.115743
H19   H     H_    0.595835 0.733950 0.128311 0.126489
H20   H     H_    0.815359 0.400135 0.884177 0.155116
H21   H     H_    0.980393 0.365932 0.887797 0.093550
H22   H     H_    0.866611 0.243985 0.869582 0.116448
H23   H     H_    0.882726 0.644889 0.351020 0.109686
H24   H     H_    0.052299 0.739843 0.667419 0.087221
H25   H     H_    0.155793 0.861435 0.621029 0.138421
H26   H     H_    0.218828 0.714690 0.660260 0.132499
H27   H     H_    0.216803 0.215086 0.289580 0.119635
H28   H     H_    0.051859 0.172071 0.279305 0.097662
H29   H     H_    0.155420 0.095041 0.397212 0.165898
H30   H     H_    0.884910 0.298963 0.424254 0.186409
H31   H     H_    0.463261 0.107533 0.271689 0.136983
H32   H     H_    0.462940 0.883101 0.274888 0.153894
H33   H     H_    0.630261 0.897697 0.749264 0.056405
H34   H     H_    0.643220 0.117584 0.726140 0.066511
H35   H     H_    0.322744 0.414690 0.125514 0.108706
H36   H     H_    0.112142 0.384393 0.688324 0.197586
N1    N     N_R   0.500800 0.500930 0.147930 -0.246803
N2    N     N_R   0.500800 0.500890 0.852020 -0.263765
O1    O     O_R   0.500000 0.319640 0.618810 -0.460237
O2    O     O_3   0.485051 0.145637 0.857412 -0.506635
O3    O     O_3   0.791222 0.651983 0.885879 -0.606542
O4    O     O_3   0.889215 0.347022 0.692644 -0.547395
O5    O     O_3   0.132731 0.729861 0.466895 -0.563134
O6    O     O_3   0.110158 0.271090 0.458653 -0.554554
O7    O     O_R   0.500010 0.319680 0.381230 -0.520333
O8    O     O_R   0.317690 0.499960 0.618790 -0.533830
O9    O     O_R   0.317700 0.500000 0.381210 -0.508950
O10   O     O_R   0.499990 0.680320 0.618770 -0.526305
O11   O     O_R   0.500000 0.680360 0.381190 -0.500109
O12   O     O_R   0.682300 0.500000 0.618790 -0.459493
O13   O     O_R   0.682310 0.500040 0.381210 -0.521756
O14   O     O_3   0.480774 0.909981 0.891022 -0.560899

loop_
_geom_bond_atom_site_label_1
_geom_bond_atom_site_label_2
_ccdc_geom_bond_type
C31   H32   S    
C2    C28   A    
C13   C32   S    
C9    N2    A    
C14   O12   A    
C6    C9    A    
C7    C8    A    
C24   H21   S    
C15   C19   S    
C12   C23   S    
C26   O6    S    
C25   O5    S    
C28   C29   A    
C26   H27   S    
C4    O8    A    
C7    N1    A    
C30   C31   A    
C24   H20   S    
C15   C16   S    
Cu2   N1    S    
C2    C32   A    
C18   C19   S    
C5    O2    S    
C11   H3    S    
C18   H6    S    
Cu1   N2    S    
C4    C19   S    
C4    O9    A    
C12   C16   S    
C20   O14   S    
Cu2   O9    S    
C9    C10   S    
C11   H19   S    
C22   H16   S    
C21   H14   S    
C3    O14   S    
C22   O3    S    
C5    H34   S    
C1    C29   S    
C20   H10   S    
C21   H11   S    
C6    N1    A    
C8    N2    A    
C12   C27   S    
C17   H12   S    
C15   H7    S    
C10   C11   S    
C6    C11   S    
C24   O4    S    
C27   H1    S    
C13   O10   A    
Cu2   O13   S    
C26   H29   S    
C29   C30   A    
Cu2   O7    S    
C5    C28   S    
C10   O3    S    
C31   C32   A    
C18   O6    S    
C17   O5    S    
Cu1   Cu2   S    
C17   C23   S    
Cu1   O1    S    
C25   H26   S    
C12   C14   S    
C1    O7    A    
C25   H24   S    
C20   H9    S    
C22   H18   S    
Cu1   O10   S    
C23   H23   S    
C15   H36   S    
C16   O4    S    
C3    H33   S    
C18   C27   S    
C14   O13   A    
C3    C5    S    
C7    H35   S    
C20   H8    S    
Cu1   O8    S    
C24   H22   S    
C13   O11   A    
C1    O1    A    
C2    C3    S    
C26   H28   S    
C23   H5    S    
C21   O2    S    
C17   C19   S    
Cu1   O12   S    
C30   H31   S    
C27   H30   S    
Cu2   O11   S    
C10   H2    S    
C25   H25   S    
C8    H15   S    
C16   H4    S    
C22   H17   S    
C21   H13   S    
