data_mof_unit_62684.cif
_audit_creation_date              2012-10-26T18:16:17-0400
_audit_creation_method            fapswitch 2.2
_symmetry_space_group_name_H-M    P1
_symmetry_Int_Tables_number       1
_space_group_crystal_system       triclinic
_cell_length_a                    26.096727
_cell_length_b                    25.927361
_cell_length_c                    26.258244
_cell_angle_alpha                 108.858885
_cell_angle_beta                  110.488482
_cell_angle_gamma                 108.543547
_cell_volume                      13760.9939033

loop_
_atom_site_label
_atom_site_type_symbol
_atom_type_description
_atom_site_fract_x
_atom_site_fract_y
_atom_site_fract_z
_atom_type_partial_charge
Br1   Br    Br    0.247113 0.673450 0.882277 -0.514424
Br2   Br    Br    0.136522 0.954818 0.780783 -0.540292
Br3   Br    Br    0.133622 0.321266 0.773797 -0.470547
Br4   Br    Br    0.997447 0.439311 0.801116 -0.459991
C1    C     C_R   0.414606 0.914758 0.999644 0.552159
C2    C     C_R   0.196750 0.662133 0.044677 -0.102210
C3    C     C_R   0.133496 0.633410 0.999134 -0.025385
C4    C     C_R   0.586452 0.000044 0.086487 0.536851
C5    C     C_R   0.116553 0.650576 0.952858 -0.117503
C6    C     C_R   0.162201 0.695772 0.952083 -0.117348
C7    C     C_R   0.225339 0.724001 0.997197 0.051098
C8    C     C_R   0.294359 0.035162 0.839606 -0.126554
C9    C     C_R   0.344517 0.039358 0.884930 -0.139827
C10   C     C_R   0.363992 0.995184 0.868931 -0.028864
C11   C     C_R   0.332340 0.945794 0.808002 -0.106395
C12   C     C_1   0.870645 0.000489 0.370500 -0.047860
C13   C     C_R   0.280678 0.940249 0.762677 0.272428
C14   C     C_R   0.263549 0.986481 0.778917 0.055527
C15   C     C_R   0.236803 0.007406 0.693191 -0.115230
C16   C     C_R   0.585124 0.085176 0.000072 0.548558
C17   C     C_R   0.195976 0.013814 0.648823 -0.142744
C18   C     C_R   0.137883 0.001737 0.643558 -0.009792
C19   C     C_R   0.120955 0.985397 0.683408 -0.090398
C20   C     C_R   0.161622 0.979087 0.727890 0.140140
C21   C     C_R   0.219062 0.989467 0.731749 0.049248
C22   C     C_R   0.716362 0.240125 0.051511 -0.118488
C23   C     C_R   0.287306 0.757313 0.948676 0.142016
C24   C     C_R   0.669962 0.194408 0.051111 -0.126216
C25   C     C_R   0.633527 0.133560 0.000278 0.016895
C26   C     C_R   0.643801 0.119220 0.949656 -0.125590
C27   C     C_R   0.689493 0.165204 0.949640 -0.117818
C28   C     C_R   0.415698 0.999254 0.916389 0.558216
C29   C     C_R   0.726152 0.225809 0.000655 0.030075
C30   C     C_R   0.759323 0.284760 0.949621 -0.118978
C31   C     C_R   0.804963 0.330853 0.949671 -0.127885
C32   C     C_R   0.866522 0.366183 0.000331 0.015536
C33   C     C_R   0.881702 0.355149 0.051172 -0.128484
C34   C     C_R   0.333751 0.804080 0.950141 -0.098335
C35   C     C_R   0.835768 0.309723 0.051545 -0.118270
C36   C     C_R   0.774430 0.274130 0.000647 0.029773
C37   C     C_R   0.007232 0.085244 0.592275 0.550451
C38   C     C_R   0.922830 0.000230 0.422743 0.522056
C39   C     C_R   0.010025 0.914821 0.424900 0.551168
C40   C     C_1   0.638853 0.000182 0.138921 -0.037444
C41   C     C_R   0.092267 0.001079 0.593789 0.555535
C42   C     C_R   0.998421 0.585432 0.084147 0.551062
C43   C     C_R   0.085441 0.585550 0.999840 0.572203
C44   C     C_R   0.002581 0.415620 0.915998 0.584368
C45   C     C_R   0.365522 0.865966 0.998436 -0.017687
C46   C     C_R   0.914577 0.414428 0.000108 0.548065
C47   C     C_R   0.955452 0.168636 0.694353 -0.127350
C48   C     C_R   0.953121 0.121996 0.646797 0.261794
C49   C     C_R   0.005982 0.134086 0.639127 -0.021288
C50   C     C_R   0.058507 0.193973 0.676942 -0.139088
C51   C     C_R   0.059641 0.240998 0.722827 0.165965
C52   C     C_1   0.681826 0.000284 0.181892 -0.028853
C53   C     C_R   0.007949 0.228153 0.731770 -0.017285
C54   C     C_R   0.002027 0.325532 0.770313 -0.044749
C55   C     C_R   0.000637 0.371628 0.814707 0.157826
C56   C     C_R   0.350169 0.880641 0.045434 -0.139000
C57   C     C_R   0.004468 0.368577 0.868539 0.026119
C58   C     C_R   0.010372 0.319677 0.877205 -0.154352
C59   C     C_R   0.011195 0.273578 0.832374 -0.109667
C60   C     C_R   0.007271 0.276594 0.779018 0.024569
C61   C     C_R   0.973551 0.756792 0.311108 0.274268
C62   C     C_R   0.978842 0.803837 0.360855 -0.102693
C63   C     C_R   0.007567 0.866159 0.374478 -0.030728
C64   C     C_1   0.733280 0.000396 0.233321 0.000181
C65   C     C_R   0.031876 0.881249 0.338200 -0.145164
C66   C     C_R   0.027567 0.834713 0.289033 -0.166457
C67   C     C_R   0.304239 0.833994 0.044510 -0.114476
C68   C     C_R   0.999280 0.772560 0.275694 0.021896
C69   C     C_R   0.969883 0.713849 0.164840 -0.139221
C70   C     C_R   0.968960 0.667837 0.118005 -0.131599
C71   C     C_R   0.997843 0.633193 0.132504 0.013066
C72   C     C_R   0.027075 0.644791 0.194229 -0.134154
C73   C     C_R   0.027249 0.690081 0.240689 -0.081744
C74   C     C_R   0.998743 0.724831 0.226267 0.038760
C75   C     C_1   0.776262 0.000473 0.276261 -0.001586
C76   C     C_1   0.827711 0.000526 0.327632 -0.034811
C77   C     C_3   0.195326 0.844844 0.687225 0.013271
C78   C     C_R   0.272624 0.772303 0.996315 0.044591
C79   C     C_3   0.207967 0.797013 0.703938 -0.275025
C80   C     C_3   0.147217 0.741350 0.683314 -0.457012
C81   C     C_3   0.862741 0.058396 0.551750 0.031879
C82   C     C_3   0.815608 0.080869 0.554414 -0.281778
C83   C     C_3   0.771512 0.069204 0.490530 -0.473516
C84   C     C_3   0.884095 0.661876 0.249059 0.012605
C85   C     C_3   0.838276 0.664965 0.272272 -0.271917
C86   C     C_3   0.770524 0.623339 0.218936 -0.476771
C87   C     C_3   0.336465 0.706975 0.067757 0.014134
C88   C     C_3   0.335054 0.655424 0.084616 -0.272448
C89   C     C_R   0.242934 0.706509 0.043376 0.277883
C90   C     C_3   0.374146 0.628440 0.066716 -0.462625
Cu1   Cu    Cu3+1 0.500810 0.955960 0.956750 0.947851
Cu2   Cu    Cu3+1 0.499190 0.044040 0.043250 0.943898
Cu3   Cu    Cu3+1 0.053200 0.044090 0.509100 0.951288
Cu4   Cu    Cu3+1 0.965100 0.955990 0.509100 0.962649
Cu5   Cu    Cu3+1 0.043250 0.499980 0.043240 0.941596
Cu6   Cu    Cu3+1 0.956750 0.499990 0.956740 0.990325
H1    H     H_    0.368678 0.077746 0.931940 0.148034
H2    H     H_    0.696754 0.153377 0.910161 0.113139
H3    H     H_    0.712044 0.257870 0.910127 0.112849
H4    H     H_    0.792249 0.338472 0.909882 0.130217
H5    H     H_    0.928867 0.382010 0.090831 0.128177
H6    H     H_    0.848196 0.301784 0.091144 0.113591
H7    H     H_    0.915443 0.158827 0.701067 0.130537
H8    H     H_    0.099266 0.204147 0.671511 0.171227
H9    H     H_    0.999263 0.327886 0.729041 0.164027
H10   H     H_    0.374101 0.927974 0.083254 0.140849
H11   H     H_    0.013396 0.316695 0.918284 0.128688
H12   H     H_    0.347177 0.911363 0.795495 0.143785
H13   H     H_    0.015192 0.235748 0.839322 0.133975
H14   H     H_    0.960162 0.791376 0.388603 0.140791
H15   H     H_    0.053845 0.928948 0.347536 0.143896
H16   H     H_    0.047303 0.847295 0.262009 0.125509
H17   H     H_    0.947566 0.740402 0.153182 0.110753
H18   H     H_    0.946316 0.659800 0.070763 0.130298
H19   H     H_    0.049553 0.618603 0.206598 0.129742
H20   H     H_    0.293248 0.845917 0.081409 0.138519
H21   H     H_    0.050051 0.698422 0.288052 0.144059
H22   H     H_    0.210560 0.650118 0.081282 0.138088
H23   H     H_    0.282120 0.016395 0.697714 0.136856
H24   H     H_    0.068047 0.629099 0.917269 0.161518
H25   H     H_    0.148368 0.708995 0.916431 0.152521
H26   H     H_    0.280775 0.070841 0.851155 0.150736
H27   H     H_    0.162969 0.821250 0.636150 0.163018
H28   H     H_    0.170532 0.861753 0.709825 0.168404
H29   H     H_    0.232367 0.780325 0.680870 0.182021
H30   H     H_    0.238579 0.819191 0.755171 0.166692
H31   H     H_    0.122519 0.756961 0.706580 0.172598
H32   H     H_    0.157938 0.707764 0.696302 0.174612
H33   H     H_    0.116137 0.717286 0.631962 0.153770
H34   H     H_    0.208770 0.026195 0.617712 0.136563
H35   H     H_    0.836461 0.008107 0.516446 0.168666
H36   H     H_    0.890924 0.082997 0.535075 0.113671
H37   H     H_    0.787643 0.055862 0.570761 0.179636
H38   H     H_    0.840959 0.131648 0.587840 0.158803
H39   H     H_    0.798516 0.094493 0.473677 0.156463
H40   H     H_    0.738168 0.086203 0.493976 0.157539
H41   H     H_    0.744430 0.018526 0.456380 0.152649
H42   H     H_    0.872992 0.612468 0.225401 0.160232
H43   H     H_    0.877271 0.677007 0.213032 0.124637
H44   H     H_    0.845453 0.649730 0.308013 0.180914
H45   H     H_    0.075867 0.976725 0.679364 0.166807
H46   H     H_    0.847159 0.713758 0.294017 0.158545
H47   H     H_    0.762106 0.638336 0.183041 0.151686
H48   H     H_    0.738554 0.626812 0.237169 0.155050
H49   H     H_    0.759874 0.573928 0.197185 0.151413
H50   H     H_    0.385969 0.743612 0.091290 0.160051
H51   H     H_    0.318086 0.688131 0.016656 0.167332
H52   H     H_    0.353676 0.674695 0.135595 0.178367
H53   H     H_    0.286042 0.617263 0.059687 0.170548
H54   H     H_    0.355722 0.608103 0.015713 0.178502
H55   H     H_    0.371972 0.591096 0.079243 0.159269
H56   H     H_    0.744095 0.286852 0.091095 0.111768
H57   H     H_    0.423811 0.665344 0.092053 0.149838
H58   H     H_    0.663029 0.206483 0.090783 0.130410
H59   H     H_    0.616129 0.072657 0.909837 0.131133
H60   H     H_    0.344869 0.791892 0.913380 0.162995
O1    O     O_R   0.436410 0.898530 0.963480 -0.509290
O2    O     O_R   0.962300 0.564250 0.026560 -0.513433
O3    O     O_R   0.100790 0.564260 0.036510 -0.514067
O4    O     O_R   0.435050 0.972920 0.036520 -0.504526
O5    O     O_R   0.027750 0.564260 0.963460 -0.491481
O6    O     O_R   0.037700 0.435720 0.973410 -0.510984
O7    O     O_R   0.964660 0.435720 0.900370 -0.465595
O8    O     O_R   0.972250 0.435710 0.036510 -0.515840
O9    O     O_R   0.899210 0.435710 0.963470 -0.513501
O10   O     O_R   0.563780 0.962800 0.026580 -0.484671
O11   O     O_R   0.562420 0.037190 0.099620 -0.490228
O12   O     O_R   0.970770 0.027100 0.572200 -0.460362
O13   O     O_R   0.564950 0.027080 0.963480 -0.507240
O14   O     O_R   0.563590 0.101470 0.036520 -0.509657
O15   O     O_R   0.437580 0.962810 0.900380 -0.515096
O16   O     O_R   0.436220 0.037200 0.973420 -0.505951
O17   O     O_R   0.045170 0.101500 0.572190 -0.516626
O18   O     O_3   0.251396 0.893512 0.701697 -0.575619
O19   O     O_3   0.899635 0.064222 0.609869 -0.546344
O20   O     O_3   0.946297 0.696027 0.299882 -0.577326
O21   O     O_3   0.304761 0.735311 0.089773 -0.578413
O22   O     O_R   0.983250 0.037240 0.445990 -0.486382
O23   O     O_R   0.908850 0.962840 0.446000 -0.501938
O24   O     O_R   0.047530 0.972970 0.446000 -0.505511
O25   O     O_R   0.973130 0.898570 0.446000 -0.511724
O26   O     O_R   0.109450 0.037230 0.572200 -0.504884
O27   O     O_R   0.035050 0.962830 0.572200 -0.508923
O28   O     O_R   0.035340 0.564250 0.099610 -0.515298

loop_
_geom_bond_atom_site_label_1
_geom_bond_atom_site_label_2
_ccdc_geom_bond_type
C13   O18   S    
C35   H6    S    
C20   C21   A    
C54   H9    S    
C69   C70   A    
C22   H56   S    
Cu1   Cu2   S    
C86   H47   S    
C83   H40   S    
Cu3   Cu4   S    
Cu3   O22   S    
C34   C45   A    
C73   C74   A    
C38   O22   A    
C8    C9    A    
C19   H45   S    
C15   H23   S    
C24   H58   S    
Cu4   O27   S    
C45   C56   A    
Cu2   O14   S    
C67   H20   S    
C53   C60   S    
Cu6   O7    S    
C30   C36   A    
C37   O17   A    
C24   C25   A    
C15   C17   A    
C77   O18   S    
C79   H29   S    
Cu4   O25   S    
C65   C66   A    
Cu1   O1    S    
C81   C82   S    
C26   C27   A    
C43   O5    A    
C41   O26   A    
C8    H26   S    
C39   O25   A    
C23   C34   A    
C39   O24   A    
C5    H24   S    
C3    C5    A    
C30   C31   A    
Cu4   O23   S    
Cu1   O15   S    
C42   C71   S    
C68   C74   S    
C82   H37   S    
C89   O21   S    
C16   O14   A    
C58   H11   S    
C16   O13   A    
C90   H55   S    
Cu2   O11   S    
C88   H52   S    
C32   C33   A    
C86   H48   S    
C69   C74   A    
C27   C29   A    
C88   H53   S    
C47   C53   A    
C6    H25   S    
Cu2   O16   S    
C5    C6    A    
C84   H43   S    
C4    O11   A    
C81   O19   S    
C67   C78   A    
C43   O3    A    
C7    C89   A    
C64   C75   T    
C62   C63   A    
C9    C10   A    
C77   H27   S    
C1    C45   S    
Cu3   O26   S    
C14   C21   S    
Br3   C51   S    
C86   H49   S    
C84   H42   S    
Cu5   O28   S    
C77   C79   S    
C4    O10   A    
C84   O20   S    
C16   C25   S    
C7    C78   S    
C54   C60   A    
C26   H59   S    
C70   H18   S    
C37   O12   A    
C80   H33   S    
C55   C57   A    
C29   C36   S    
C69   H17   S    
C70   C71   A    
C47   C48   A    
C72   H19   S    
C27   H2    S    
C56   H10   S    
C72   C73   A    
C79   H30   S    
C31   H4    S    
C10   C28   S    
C87   C88   S    
C82   C83   S    
C41   O27   A    
C56   C67   A    
C66   H16   S    
C54   C55   A    
C49   C50   A    
C80   H32   S    
C59   C60   A    
Cu6   O5    S    
C12   C76   T    
C31   C32   A    
C3    C43   S    
C28   O15   A    
C71   C72   A    
C1    O4    A    
C33   H5    S    
C25   C26   A    
C28   O16   A    
C40   C52   T    
C22   C29   A    
Cu3   O17   S    
C79   C80   S    
C90   H54   S    
C2    C89   A    
C58   C59   A    
C88   C90   S    
C13   C14   A    
C19   C20   A    
C83   H41   S    
C85   H46   S    
C37   C49   S    
C81   H35   S    
Cu5   O3    S    
C39   C63   S    
C90   H57   S    
C87   O21   S    
C77   H28   S    
C46   O8    A    
C2    H22   S    
C9    H1    S    
C61   C68   A    
C12   C38   S    
C17   H34   S    
C35   C36   A    
C32   C46   S    
C48   C49   A    
Cu3   O24   S    
Cu5   O8    S    
C11   C13   A    
C50   C51   A    
C65   H15   S    
C62   H14   S    
Cu6   O9    S    
C10   C11   A    
C11   H12   S    
C23   C78   A    
C4    C40   S    
C83   H39   S    
C87   H50   S    
C66   C68   A    
C2    C3    A    
C61   O20   S    
C38   O23   A    
C85   H44   S    
C80   H31   S    
C22   C24   A    
C30   H3    S    
Cu5   Cu6   S    
C50   H8    S    
C42   O28   A    
Cu5   O6    S    
C51   C53   A    
Cu1   O13   S    
C48   O19   S    
Cu4   O12   S    
C33   C35   A    
C52   C64   S    
C87   H51   S    
C44   C57   S    
C44   O7    A    
Br4   C55   S    
C46   O9    A    
C57   C58   A    
C15   C21   A    
Cu1   O10   S    
C73   H21   S    
C6    C7    A    
C82   H38   S    
C81   H36   S    
C34   H60   S    
C75   C76   S    
C59   H13   S    
Cu2   O4    S    
C18   C41   S    
C44   O6    A    
C84   C85   S    
C47   H7    S    
C61   C62   A    
C42   O2    A    
C8    C14   A    
Br1   C23   S    
C18   C19   A    
Cu6   O2    S    
Br2   C20   S    
C63   C65   A    
C85   C86   S    
C17   C18   A    
C1    O1    A    
