data_mof_unit_8921.cif
_audit_creation_date              2012-12-10T17:02:12-0500
_audit_creation_method            fapswitch 2.2
_symmetry_space_group_name_H-M    P1
_symmetry_Int_Tables_number       1
_space_group_crystal_system       triclinic
_cell_length_a                    10.635813
_cell_length_b                    10.725286
_cell_length_c                    10.129204
_cell_angle_alpha                 89.01864
_cell_angle_beta                  86.593367
_cell_angle_gamma                 89.887543
_cell_volume                      1153.24848952

loop_
_atom_site_label
_atom_site_type_symbol
_atom_type_description
_atom_site_fract_x
_atom_site_fract_y
_atom_site_fract_z
_atom_type_partial_charge
C1    C     C_R   0.503246 0.262984 0.500303 0.892676
C2    C     C_2   0.514228 0.131097 0.499006 -0.259452
C3    C     C_2   0.512535 0.596747 0.927205 -0.028168
C4    C     C_R   0.260183 0.505080 0.504398 0.936459
C5    C     C_2   0.472413 0.594907 0.072086 0.170336
C6    C     C_R   0.489569 0.736742 0.500081 0.804269
C7    C     C_R   0.739309 0.506690 0.495687 0.873442
C8    C     C_R   0.107440 0.706740 0.641091 0.423810
C9    C     C_R   0.033462 0.811354 0.675089 -0.316996
C10   C     C_R   0.918129 0.832098 0.620595 0.195309
C11   C     C_R   0.874119 0.743827 0.532458 0.143283
C12   C     C_R   0.058264 0.612295 0.560874 -0.026239
C13   C     C_R   0.933577 0.624842 0.524533 -0.051857
C14   C     C_3   0.130682 0.278790 0.427670 -0.407298
C15   C     C_3   0.097885 0.176197 0.530207 -0.862990
C16   C     C_3   0.425073 0.393646 0.901045 -0.162836
C17   C     C_3   0.285677 0.425470 0.930563 -0.836875
C18   C     C_3   0.399817 0.705001 0.128101 -0.324803
C19   C     C_3   0.301532 0.756357 0.037543 -0.950683
C20   C     C_3   0.843696 0.948023 0.659468 -0.418390
C21   C     C_3   0.727737 0.914189 0.748888 -0.883790
C22   C     C_3   0.794358 0.789935 0.422264 -0.422476
C23   C     C_R   0.126091 0.504603 0.515455 -0.117053
C24   C     C_3   0.873910 0.865315 0.318761 -0.882488
C25   C     C_R   0.064823 0.400718 0.464467 0.143031
C26   C     C_R   0.936669 0.407632 0.453180 -0.216629
C27   C     C_R   0.872473 0.516930 0.483649 -0.102244
C28   C     C_2   0.492855 0.935567 0.391487 -0.240641
C29   C     C_2   0.461020 0.868166 0.500322 0.296929
C30   C     C_2   0.484680 0.069241 0.391799 -0.114238
H1    H     H_    0.548485 0.084856 0.586055 0.185681
H2    H     H_    0.148275 0.088953 0.501869 0.277367
H3    H     H_    0.101640 0.249171 0.329342 0.205173
H4    H     H_    0.234514 0.286842 0.418858 0.222031
H5    H     H_    0.269203 0.459258 0.032929 0.249799
H6    H     H_    0.253357 0.497013 0.860084 0.304718
H7    H     H_    0.227470 0.340396 0.922210 0.220993
H8    H     H_    0.427420 0.321838 0.825425 0.218257
H9    H     H_    0.464345 0.342510 0.984354 0.124610
H10   H     H_    0.348197 0.798135 0.946465 0.254379
H11   H     H_    0.235376 0.682168 0.011516 0.276616
H12   H     H_    0.541201 0.685039 0.881133 0.128060
H13   H     H_    0.246431 0.830900 0.089299 0.256941
H14   H     H_    0.348772 0.678439 0.222683 0.261048
H15   H     H_    0.467758 0.780305 0.144038 0.190130
H16   H     H_    0.231553 0.756152 0.763620 0.326325
H17   H     H_    0.664032 0.852226 0.697431 0.264074
H18   H     H_    0.756494 0.866058 0.840317 0.259466
H19   H     H_    0.675419 0.000294 0.777153 0.248348
H20   H     H_    0.902042 0.012760 0.714665 0.207960
H21   H     H_    0.815141 0.001110 0.571223 0.206665
H22   H     H_    0.813413 0.898953 0.239841 0.247744
H23   H     H_    0.571667 0.444348 0.108820 0.151955
H24   H     H_    0.917190 0.947422 0.363449 0.259050
H25   H     H_    0.949843 0.805890 0.273246 0.267679
H26   H     H_    0.751733 0.713854 0.368932 0.233158
H27   H     H_    0.716940 0.848798 0.462819 0.199351
H28   H     H_    0.401988 0.866655 0.686474 0.340738
H29   H     H_    0.068352 0.879457 0.741739 0.152341
H30   H     H_    0.885826 0.326567 0.422028 0.142849
H31   H     H_    0.536325 0.894086 0.303441 0.123782
H32   H     H_    0.458825 0.116388 0.301526 0.160587
H33   H     H_    0.126810 0.204260 0.629029 0.267030
H34   H     H_    0.995207 0.157328 0.535775 0.242840
N1    N     N_2   0.501340 0.501330 0.852150 -0.085667
N2    N     N_2   0.501380 0.501360 0.147810 -0.225256
O1    O     O_R   0.499980 0.319060 0.613040 -0.637540
O2    O     O_3   0.397896 0.922675 0.608377 -0.776618
O3    O     O_R   0.500020 0.319100 0.386900 -0.621615
O4    O     O_R   0.316750 0.499980 0.613090 -0.544246
O5    O     O_R   0.316790 0.500020 0.386950 -0.646560
O6    O     O_R   0.499980 0.680900 0.613100 -0.607584
O7    O     O_R   0.500020 0.680940 0.386960 -0.662247
O8    O     O_R   0.683210 0.499980 0.613050 -0.601457
O9    O     O_R   0.683250 0.500020 0.386910 -0.626528
O10   O     O_3   0.221773 0.692004 0.695992 -0.764565
Zn1   Zn    Zn3+2 0.499970 0.499970 0.650990 0.960951
Zn2   Zn    Zn3+2 0.500030 0.500030 0.349010 0.907785

loop_
_geom_bond_atom_site_label_1
_geom_bond_atom_site_label_2
_ccdc_geom_bond_type
C24   H22   S    
C22   H26   S    
O7    Zn2   S    
C3    H12   S    
C14   H4    S    
O6    Zn1   S    
C16   N1    S    
C17   H6    S    
C18   H14   S    
C8    C9    A    
C20   H21   S    
C29   O2    S    
C9    C10   A    
C11   C22   S    
O1    Zn1   S    
C2    C30   D    
C8    C12   A    
C21   H18   S    
C28   H31   S    
C6    C29   S    
C22   H27   S    
C4    O4    A    
C26   C27   A    
C15   H34   S    
C1    O3    A    
C15   H2    S    
C17   H7    S    
C12   C13   A    
C24   H25   S    
C6    O6    A    
H23   N2    S    
C11   C13   A    
C12   C23   A    
O3    Zn2   S    
C3    N1    D    
C10   C20   S    
C14   H3    S    
C21   H19   S    
H16   O10   S    
C28   C29   D    
C1    O1    A    
C28   C30   S    
C1    C2    S    
C7    O8    A    
C30   H32   S    
C14   C25   S    
O4    Zn1   S    
N2    Zn2   S    
O9    Zn2   S    
C22   C24   S    
N1    Zn1   S    
C19   H10   S    
C16   H9    S    
C24   H24   S    
C4    O5    A    
C18   H15   S    
C3    C5    S    
C8    O10   S    
C23   C25   A    
C7    C27   S    
C20   C21   S    
C6    O7    A    
C20   H20   S    
C18   C19   S    
C10   C11   A    
H28   O2    S    
C4    C23   S    
C15   H33   S    
C14   C15   S    
C5    N2    D    
C7    O9    A    
C5    C18   S    
C17   H5    S    
C9    H29   S    
C25   C26   A    
C16   H8    S    
C26   H30   S    
O5    Zn2   S    
C13   C27   A    
C19   H11   S    
C16   C17   S    
C19   H13   S    
C2    H1    S    
C21   H17   S    
O8    Zn1   S    
