data_mof_unit_34760.cif
_audit_creation_date              2013-03-05T16:10:47-0500
_audit_creation_method            fapswitch 2.2
_symmetry_space_group_name_H-M    P1
_symmetry_Int_Tables_number       1
_space_group_crystal_system       triclinic
_cell_length_a                    22.425579
_cell_length_b                    7.092386
_cell_length_c                    19.392746
_cell_angle_alpha                 90.160655
_cell_angle_beta                  99.522884
_cell_angle_gamma                 90.175292
_cell_volume                      3041.89689601

loop_
_atom_site_label
_atom_site_type_symbol
_atom_site_description
_atom_site_fract_x
_atom_site_fract_y
_atom_site_fract_z
_atom_type_partial_charge
O1    O     O_R   0.443980 0.494320 0.557430 -0.582190
O2    O     O_R   0.556020 0.994320 0.442570 -0.566536
O3    O     O_R   0.441210 0.822520 0.414610 -0.582492
O4    O     O_R   0.558790 0.322520 0.585390 -0.594850
C1    C     C_R   0.426607 0.654606 0.388836 1.036724
C2    C     C_R   0.573479 0.155908 0.611186 1.033476
O5    O     O_R   0.436920 0.823940 0.555180 -0.574923
O6    O     O_R   0.563080 0.323940 0.444820 -0.587705
O7    O     O_R   0.551700 0.995760 0.584140 -0.578821
O8    O     O_R   0.448300 0.495760 0.415860 -0.597006
C3    C     C_R   0.421764 0.655334 0.575053 1.003138
C4    C     C_R   0.578294 0.155398 0.425002 0.998592
O9    O     O_3   0.537660 0.661290 0.509340 -0.266400
O10   O     O_3   0.462340 0.161290 0.490660 -0.275279
V1    V     V_3+5 0.493010 0.935560 0.498270 1.273932
V2    V     V_3+5 0.506990 0.435560 0.501730 1.251339
C5    C     C_R   0.756117 0.936527 0.212272 -0.247061
C6    C     C_R   0.243857 0.437126 0.787818 -0.238789
H1    H     H_    0.761483 0.808078 0.183563 0.178856
H2    H     H_    0.238474 0.309163 0.816604 0.179741
C7    C     C_R   0.793138 0.092049 0.204308 0.119054
C8    C     C_R   0.206830 0.592124 0.795661 0.118136
C9    C     C_R   0.786655 0.257547 0.241952 -0.134981
C10   C     C_R   0.213338 0.756995 0.757929 -0.143047
H3    H     H_    0.814770 0.379331 0.236504 0.135021
H4    H     H_    0.185223 0.878376 0.763287 0.135416
C11   C     C_R   0.743839 0.267610 0.287027 -0.123301
C12   C     C_R   0.256182 0.766950 0.712884 -0.112887
H5    H     H_    0.739647 0.397586 0.315298 0.179747
H6    H     H_    0.260394 0.896446 0.684545 0.180808
C13   C     C_R   0.706632 0.112502 0.295578 -0.031710
C14   C     C_R   0.293394 0.612356 0.704453 -0.033136
C15   C     C_R   0.712965 0.943653 0.257817 0.343507
C16   C     C_R   0.287037 0.444133 0.742304 0.336676
C17   C     C_1   0.838186 0.080766 0.158182 0.077121
C18   C     C_1   0.161768 0.580931 0.841774 0.079302
C19   C     C_1   0.661589 0.131904 0.341633 0.152198
C20   C     C_1   0.338462 0.631695 0.658418 0.153923
C21   C     C_1   0.623855 0.145148 0.379840 -0.173113
C22   C     C_1   0.376207 0.644946 0.620222 -0.168084
C23   C     C_1   0.876056 0.071523 0.120044 -0.238489
C24   C     C_1   0.123902 0.571696 0.879922 -0.237543
C25   C     C_R   0.636032 0.225155 0.801738 0.043154
C26   C     C_R   0.368760 0.585362 0.197181 0.043909
H7    H     H_    0.553272 0.286651 0.732581 0.143419
H8    H     H_    0.454248 0.566194 0.265773 0.145897
C27   C     C_R   0.616981 0.152188 0.677598 -0.258982
C28   C     C_R   0.383425 0.641211 0.322423 -0.258318
C29   C     C_R   0.911090 0.069181 0.758747 0.037578
C30   C     C_R   0.089836 0.541064 0.240984 0.034999
C31   C     C_R   0.873961 0.089525 0.694162 -0.150680
C32   C     C_R   0.127991 0.532017 0.305289 -0.143156
C33   C     C_R   0.811588 0.105696 0.689598 -0.082005
C34   C     C_R   0.190059 0.558259 0.309946 -0.074545
C35   C     C_R   0.783555 0.094346 0.749558 0.122568
C36   C     C_R   0.216229 0.602334 0.250500 0.119840
C37   C     C_R   0.821853 0.086520 0.816031 0.039324
C38   C     C_R   0.177729 0.599670 0.184100 0.040876
C39   C     C_R   0.719118 0.108730 0.745588 -0.070299
C40   C     C_R   0.280245 0.630352 0.254604 -0.071137
C41   C     C_R   0.695954 0.154058 0.807901 -0.073349
C42   C     C_R   0.305429 0.615583 0.191818 -0.072599
C43   C     C_R   0.734102 0.132024 0.873692 0.338169
C44   C     C_R   0.266176 0.626070 0.126311 0.340839
C45   C     C_R   0.795732 0.097561 0.876667 -0.288271
C46   C     C_R   0.203587 0.619651 0.123562 -0.287882
C47   C     C_R   0.676867 0.085277 0.681812 0.291509
C48   C     C_R   0.320469 0.667189 0.318935 0.292662
C49   C     C_R   0.598425 0.228226 0.736827 -0.235261
C50   C     C_R   0.406205 0.593220 0.262182 -0.248975
C51   C     C_R   0.885803 0.070787 0.820554 -0.202873
C52   C     C_R   0.114122 0.572259 0.179476 -0.203220
H9    H     H_    0.786498 0.136659 0.638608 0.167828
H10   H     H_    0.217068 0.533433 0.360406 0.169839
H11   H     H_    0.893526 0.096693 0.646723 0.138457
H12   H     H_    0.109744 0.500204 0.352341 0.139714
H13   H     H_    0.823384 0.081713 0.927651 0.144764
H14   H     H_    0.175143 0.627737 0.072776 0.146182
O11   O     O_R   0.051730 0.724670 0.084120 -0.586686
O12   O     O_R   0.948270 0.224670 0.915880 -0.585271
O13   O     O_R   0.063080 0.393540 0.944820 -0.583902
O14   O     O_R   0.936920 0.893540 0.055180 -0.586745
C53   C     C_R   0.078228 0.562166 0.924948 0.961064
C54   C     C_R   0.921752 0.062111 0.075045 0.961606
O15   O     O_R   0.058800 0.395030 0.085390 -0.585050
O16   O     O_R   0.941200 0.895030 0.914610 -0.587017
O17   O     O_R   0.943980 0.223310 0.057440 -0.581498
O18   O     O_R   0.056020 0.723310 0.942560 -0.584919
C55   C     C_R   0.072838 0.563974 0.111271 0.931155
C56   C     C_R   0.927098 0.063199 0.888744 0.930874
O19   O     O_3   0.962360 0.556290 0.990650 -0.272937
O20   O     O_3   0.037640 0.056290 0.009350 -0.273293
V3    V     V_3+5 0.006980 0.281990 0.001730 1.199791
V4    V     V_3+5 0.993020 0.781990 0.998270 1.196531
N1    N     N_R   0.676395 0.779271 0.264535 0.227626
O21   O     O_R   0.656972 0.743318 0.322752 -0.412575
O22   O     O_R   0.666734 0.655336 0.214262 -0.380251
N2    N     N_R   0.323610 0.280279 0.735711 0.227693
O23   O     O_R   0.343142 0.243666 0.677570 -0.415141
O24   O     O_R   0.333167 0.157377 0.786016 -0.377643
N3    N     N_R   0.710530 0.127430 0.938145 0.233072
O25   O     O_R   0.739780 0.210595 0.993559 -0.386522
O26   O     O_R   0.667148 0.010211 0.945020 -0.367450
N4    N     N_R   0.288490 0.659669 0.062177 0.233465
O27   O     O_R   0.265055 0.569676 0.005518 -0.386752
O28   O     O_R   0.323082 0.805017 0.057232 -0.367379
C57   C     C_1   0.613219 0.316103 0.858866 0.215634
N5    N     N_1   0.594760 0.389581 0.904338 0.000974
C58   C     C_1   0.396681 0.525407 0.138751 0.219214
N6    N     N_1   0.419276 0.476836 0.092230 -0.000381
N7    N     N_R   0.692155 0.976003 0.624710 0.217612
O29   O     O_R   0.717624 0.812012 0.636521 -0.384402
O30   O     O_R   0.680361 0.038422 0.560886 -0.442895
N8    N     N_R   0.298828 0.751937 0.377511 0.215867
O31   O     O_R   0.315202 0.686744 0.440420 -0.449139
O32   O     O_R   0.262928 0.896729 0.367999 -0.385879
C59   C     C_1   0.975607 0.053355 0.760613 0.038542
N9    N     N_1   0.027258 0.040648 0.762213 -0.083568
C60   C     C_1   0.025756 0.511123 0.238968 0.042417
N10   N     N_1   0.974459 0.487084 0.237249 -0.084181

loop_
_geom_bond_atom_site_label_1
_geom_bond_atom_site_label_2
_geom_bond_distance
_ccdc_geom_bond_type
C43   C45   1.396066 A    
N3    O25   1.301482 A    
O14   V4    1.971627 S    
C35   C39   1.438261 A    
C11   H5    1.083483 S    
C18   C24   1.216743 T    
N7    O29   1.301435 A    
O1    C3    1.314057 A    
C54   O17   1.314215 A    
C43   N3    1.435809 S    
O2    C4    1.313662 A    
C2    O7    1.308540 A    
N4    O28   1.301512 A    
N8    O31   1.301148 A    
O5    C3    1.318130 A    
C31   H11   1.084030 S    
C40   C42   1.428171 A    
O6    V2    1.971662 S    
C41   C43   1.422982 A    
C30   C52   1.408580 A    
C27   C49   1.392617 A    
C42   C44   1.423068 A    
O16   V4    2.003635 S    
C39   C47   1.437081 A    
C34   H10   1.077472 S    
O15   V3    1.997136 S    
C38   C46   1.400107 A    
C29   C59   1.445997 S    
N1    O21   1.301162 A    
C29   C31   1.392650 A    
C30   C32   1.392517 A    
C57   N5    1.157621 T    
C13   C15   1.421644 A    
C26   C50   1.395104 A    
C14   C20   1.461370 S    
C26   C58   1.445846 S    
O5    V1    1.971058 S    
C53   O18   1.314714 A    
C25   C49   1.394746 A    
C5    C15   1.414896 A    
C15   N1    1.441931 S    
C27   C47   1.415369 A    
N4    O27   1.301468 A    
O13   C53   1.318199 A    
C32   C34   1.391727 A    
O18   V4    1.960247 S    
C9    C11   1.403185 A    
C33   C35   1.412751 A    
C46   H14   1.082977 S    
C1    C28   1.480409 S    
C34   C36   1.412777 A    
C39   C41   1.428309 A    
C45   H13   1.083011 S    
C2    C27   1.481801 S    
C11   C13   1.405371 A    
C30   C60   1.446088 S    
C12   C14   1.405363 A    
O11   V4    1.988037 S    
O4    C2    1.306256 A    
O16   C56   1.314303 A    
C37   C45   1.399891 A    
O15   C55   1.314829 A    
O3    C1    1.309756 A    
C23   C54   1.453287 S    
H7    C49   1.085792 S    
C5    C7    1.402707 A    
C36   C40   1.437731 A    
C31   C33   1.391970 A    
C14   C16   1.421663 A    
O4    V2    2.003434 S    
O19   V3    2.185243 S    
O13   V3    1.971022 S    
O6    C4    1.317689 A    
O20   V4    2.178709 S    
N7    O30   1.301284 A    
O1    V2    1.960421 S    
C25   C57   1.445924 S    
C37   C51   1.426968 A    
O2    V1    1.959868 S    
C6    C16   1.414908 A    
C44   C46   1.396351 A    
C47   N7    1.437660 S    
N2    O24   1.301605 A    
C35   C37   1.427168 A    
C8    C10   1.401125 A    
O3    V1    1.996939 S    
C25   C41   1.423239 A    
C44   N4    1.435607 S    
C6    C8    1.402683 A    
C33   H9    1.077272 S    
C24   C53   1.453265 S    
C10   C12   1.403168 A    
C28   C50   1.392093 A    
C32   H12   1.084028 S    
N8    O32   1.301423 A    
C60   N10   1.157417 T    
N1    O22   1.301603 A    
C7    C17   1.458141 S    
C8    C18   1.458118 S    
O14   C54   1.317866 A    
C28   C48   1.414849 A    
C26   C42   1.423712 A    
C16   N2    1.441961 S    
C4    C21   1.453436 S    
C7    C9    1.401137 A    
O7    V1    1.988718 S    
C1    O8    1.304931 A    
C19   C21   1.217137 T    
O8    V2    1.992450 S    
C59   N9    1.157386 T    
O19   V4    1.736465 S    
C20   C22   1.217122 T    
C52   C55   1.484625 S    
C10   H4    1.083490 S    
C38   C52   1.427015 A    
C51   C56   1.484819 S    
O17   V3    1.959694 S    
C12   H6    1.083484 S    
O20   V3    1.741101 S    
C5    H1    1.083683 S    
C36   C38   1.426823 A    
C6    H2    1.083676 S    
C9    H3    1.083491 S    
O12   C56   1.313207 A    
C3    C22   1.453431 S    
C17   C23   1.216750 T    
H8    C50   1.085763 S    
C13   C19   1.461394 S    
C40   C48   1.436208 A    
N3    O26   1.301542 A    
N2    O23   1.301155 A    
C29   C51   1.408279 A    
O9    V2    1.736742 S    
O10   V1    1.741379 S    
O11   C55   1.313188 A    
O12   V3    1.984475 S    
C58   N6    1.157565 T    
C48   N8    1.437905 S    
