data_mof_unit_51728.cif
_audit_creation_date              2012-10-26T20:31:23-0400
_audit_creation_method            fapswitch 2.2
_symmetry_space_group_name_H-M    P1
_symmetry_Int_Tables_number       1
_space_group_crystal_system       triclinic
_cell_length_a                    11.669656
_cell_length_b                    10.84182
_cell_length_c                    9.693488
_cell_angle_alpha                 91.296886
_cell_angle_beta                  90.033081
_cell_angle_gamma                 92.029641
_cell_volume                      1225.33856503

loop_
_atom_site_label
_atom_site_type_symbol
_atom_type_description
_atom_site_fract_x
_atom_site_fract_y
_atom_site_fract_z
_atom_type_partial_charge
C1    C     C_R   0.496963 0.263127 0.498636 0.600679
C2    C     C_R   0.439889 0.412112 0.070686 0.422171
C3    C     C_R   0.440330 0.411647 0.924362 0.442866
C4    C     C_R   0.284416 0.499535 0.499943 0.523338
C5    C     C_R   0.554712 0.592820 0.930032 0.071498
C6    C     C_3   0.676450 0.645524 0.926745 -0.095991
C7    C     C_3   0.677409 0.642004 0.086377 0.018699
C8    C     C_R   0.496253 0.736641 0.501220 0.572405
C9    C     C_R   0.715524 0.499817 0.499973 0.596743
C10   C     C_1   0.162537 0.498968 0.499808 0.024035
C11   C     C_1   0.059861 0.498567 0.499705 0.017016
C12   C     C_R   0.489352 0.129957 0.496563 0.023961
C13   C     C_1   0.939929 0.498456 0.499654 0.050549
C14   C     C_1   0.837304 0.498877 0.499751 0.095742
C15   C     C_R   0.547202 0.066346 0.595025 0.004186
C16   C     C_2   0.764575 0.553627 0.141228 0.625217
C17   C     C_2   0.680101 0.768184 0.158567 0.585159
C18   C     C_2   0.749649 0.141368 0.656967 0.647085
C19   C     C_2   0.764953 0.567177 0.856697 0.617730
C20   C     C_R   0.419474 0.060847 0.401079 0.278342
C21   C     C_R   0.415355 0.929169 0.405071 0.225626
C22   C     C_R   0.483934 0.868877 0.503333 -0.020551
C23   C     C_R   0.543539 0.942310 0.599529 -0.015703
C24   C     C_3   0.632250 0.939590 0.710030 0.095832
C25   C     C_3   0.637168 0.082559 0.704260 0.281242
C26   C     C_R   0.555978 0.591346 0.075006 0.095867
Cu1   Cu    Cu3+1 0.499990 0.499980 0.640670 1.052652
Cu2   Cu    Cu3+1 0.500010 0.500020 0.359330 1.070989
H1    H     H_    0.680096 0.740337 0.887698 0.118704
H2    H     H_    0.351500 0.347339 0.221013 0.377634
H3    H     H_    0.347171 0.346995 0.774101 0.351900
H4    H     H_    0.821742 0.397421 0.811256 0.349710
H5    H     H_    0.597062 0.901745 0.807344 0.156480
H6    H     H_    0.310233 0.064793 0.248240 0.402406
H7    H     H_    0.805707 0.377442 0.175395 0.351987
H8    H     H_    0.732805 0.874097 0.322189 0.365882
H9    H     H_    0.319907 0.784125 0.355821 0.340344
H10   H     H_    0.785806 0.886827 0.740206 0.363023
H11   H     H_    0.646467 0.121403 0.899914 0.362446
H12   H     H_    0.914909 0.184574 0.703214 0.343761
N1    N     N_R   0.500710 0.500930 0.147930 -0.273997
N2    N     N_R   0.500710 0.500890 0.852020 -0.261972
O1    O     O_R   0.500000 0.319640 0.618810 -0.470000
O2    O     O_2   0.859798 0.593020 0.176978 -0.467084
O3    O     O_R   0.739618 0.426255 0.140219 -0.625894
O4    O     O_2   0.626465 0.852435 0.110926 -0.510518
O5    O     O_R   0.740184 0.787360 0.282616 -0.621695
O6    O     O_3   0.343030 0.863924 0.314628 -0.662070
O7    O     O_3   0.731545 0.884000 0.661335 -0.667579
O8    O     O_3   0.593610 0.139825 0.823403 -0.624686
O9    O     O_2   0.757868 0.187773 0.543373 -0.532873
O10   O     O_R   0.844533 0.142631 0.745054 -0.681663
O11   O     O_3   0.377296 0.318098 0.130444 -0.591322
O12   O     O_R   0.500010 0.319680 0.381230 -0.453213
O13   O     O_3   0.379655 0.316052 0.859342 -0.595857
O14   O     O_2   0.846730 0.617861 0.799775 -0.500127
O15   O     O_R   0.755649 0.438179 0.859856 -0.614897
O16   O     O_R   0.337190 0.499990 0.618790 -0.538069
O17   O     O_R   0.337200 0.500030 0.381210 -0.538459
O18   O     O_R   0.499990 0.680320 0.618770 -0.499626
O19   O     O_R   0.500000 0.680360 0.381190 -0.481135
O20   O     O_R   0.662800 0.499970 0.618790 -0.467110
O21   O     O_R   0.662810 0.500010 0.381210 -0.470151
O22   O     O_3   0.353020 0.123752 0.310236 -0.641663

loop_
_geom_bond_atom_site_label_1
_geom_bond_atom_site_label_2
_ccdc_geom_bond_type
C16   O3    S    
C20   O22   S    
C8    C22   S    
C1    O12   A    
C3    N2    A    
C6    C7    S    
C25   O8    S    
Cu1   O20   S    
C8    O18   A    
C18   O9    D    
C2    O11   S    
C17   O5    S    
H11   O8    S    
C16   O2    D    
C24   H5    S    
C12   C15   A    
C8    O19   A    
C23   C24   S    
C21   O6    S    
Cu2   O19   S    
C12   C20   A    
C15   C23   A    
C2    C3    A    
C18   O10   S    
H10   O7    S    
C18   C25   S    
C13   C14   T    
C24   C25   S    
H9    O6    S    
C6    C19   S    
C11   C13   S    
Cu1   N2    S    
C1    C12   S    
C7    C26   S    
H4    O15   S    
C4    O17   A    
C21   C22   A    
C7    C16   S    
C19   O14   D    
H6    O22   S    
Cu1   O18   S    
C5    C6    S    
H2    O11   S    
C15   C25   S    
C10   C11   T    
C2    N1    A    
C4    C10   S    
C9    O20   A    
H7    O3    S    
Cu2   O21   S    
Cu1   O1    S    
Cu2   N1    S    
C24   O7    S    
C6    H1    S    
C5    N2    A    
C17   O4    D    
H8    O5    S    
Cu2   O17   S    
C4    O16   A    
Cu1   Cu2   S    
C9    C14   S    
Cu2   O12   S    
C22   C23   A    
H3    O13   S    
C20   C21   A    
H12   O10   S    
C9    O21   A    
C3    O13   S    
C1    O1    A    
C19   O15   S    
C5    C26   A    
C26   N1    A    
C7    C17   S    
Cu1   O16   S    
