data_mof_unit_23872.cif
_audit_creation_date              2012-12-10T17:36:46-0500
_audit_creation_method            fapswitch 2.2
_symmetry_space_group_name_H-M    P1
_symmetry_Int_Tables_number       1
_space_group_crystal_system       triclinic
_cell_length_a                    10.632476
_cell_length_b                    12.355043
_cell_length_c                    13.359639
_cell_angle_alpha                 116.802689
_cell_angle_beta                  77.344525
_cell_angle_gamma                 100.711757
_cell_volume                      1520.7218808

loop_
_atom_site_label
_atom_site_type_symbol
_atom_type_description
_atom_site_fract_x
_atom_site_fract_y
_atom_site_fract_z
_atom_type_partial_charge
C1    C     C_R   0.509288 0.854054 0.287176 0.822362
C2    C     C_3   0.017132 0.012890 0.599214 -0.129302
C3    C     C_3   0.934905 0.904991 0.517746 -0.205169
C4    C     C_3   0.877213 0.996618 0.497125 -0.023952
C5    C     C_R   0.428426 0.261135 0.028867 0.439598
C6    C     C_R   0.457082 0.225967 0.832699 -0.156560
C7    C     C_R   0.565070 0.813602 0.084408 -0.381917
C8    C     C_R   0.595527 0.734624 0.969683 0.414364
C9    C     C_R   0.574141 0.608943 0.934700 0.430895
C10   C     C_R   0.502924 0.560346 0.011911 -0.106088
C11   C     C_R   0.471507 0.641114 0.128358 0.036653
C12   C     C_R   0.740270 0.998188 0.498262 0.810441
C13   C     C_R   0.467665 0.433364 0.978709 0.042653
C14   C     C_R   0.433462 0.387272 0.061723 0.060406
C15   C     C_R   0.397200 0.466980 0.174118 -0.231529
C16   C     C_R   0.402957 0.590512 0.203810 -0.165085
C17   C     C_R   0.463660 0.350707 0.865776 -0.255245
C18   C     C_R   0.436942 0.180995 0.914319 -0.267428
C19   C     C_R   0.510973 0.768573 0.165408 -0.147715
C20   C     C_R   0.722600 0.354710 0.345253 -0.333909
C21   C     C_R   0.333207 0.766810 0.654221 0.628302
C22   C     C_R   0.311485 0.676986 0.696350 0.262834
C23   C     C_R   0.477378 0.144753 0.712340 0.827164
C24   C     C_R   0.370875 0.568833 0.633114 -0.338818
C25   C     C_R   0.462815 0.553789 0.536256 -0.035373
C26   C     C_R   0.494187 0.652740 0.504778 0.167552
C27   C     C_R   0.533118 0.448397 0.476303 0.029417
C28   C     C_R   0.643983 0.450762 0.396194 0.159024
C29   C     C_R   0.675914 0.549204 0.368138 -0.296315
C30   C     C_R   0.600610 0.646478 0.419105 -0.133637
C31   C     C_R   0.499547 0.340680 0.493447 0.029744
C32   C     C_R   0.686272 0.253020 0.368063 0.048131
C33   C     C_R   0.259850 0.000716 0.499712 0.789574
C34   C     C_3   0.984286 0.985946 0.397325 0.510448
C35   C     C_3   0.043366 0.893351 0.415922 -0.242758
C36   C     C_3   0.123350 0.001572 0.497755 -0.034009
C37   C     C_3   0.066143 0.094492 0.477336 -0.242721
C38   C     C_3   0.957317 0.104324 0.578469 -0.232707
Cu1   Cu    Cu3+1 0.529830 0.098270 0.475420 0.940825
Cu2   Cu    Cu3+1 0.470170 0.901730 0.524580 0.957369
H1    H     H_    0.081888 0.807971 0.348640 0.133601
H2    H     H_    0.463632 0.382165 0.802478 0.215888
H3    H     H_    0.589540 0.910544 0.111007 0.183368
H4    H     H_    0.351926 0.643347 0.286446 0.174123
H5    H     H_    0.745906 0.178508 0.329508 0.139438
H6    H     H_    0.759599 0.550763 0.305408 0.149471
H7    H     H_    0.810950 0.358010 0.287704 0.145243
H8    H     H_    0.413526 0.329378 0.549384 0.119738
H9    H     H_    0.351607 0.501676 0.666667 0.154821
H10   H     H_    0.632520 0.717127 0.391705 0.207975
H11   H     H_    0.122669 0.172380 0.462388 0.143323
H12   H     H_    0.916738 0.187754 0.646877 0.141687
H13   H     H_    0.035296 0.029393 0.683566 0.134314
H14   H     H_    0.877719 0.827554 0.532848 0.171009
H15   H     H_    0.432134 0.084078 0.889659 0.199490
H16   H     H_    0.356195 0.433242 0.237695 0.171306
N1    N     N_R   0.575030 0.246270 0.438190 -0.188578
N2    N     N_R   0.425760 0.754330 0.561190 -0.274211
O1    O     O_R   0.537510 0.972500 0.318130 -0.577159
O2    O     O_R   0.487140 0.806530 0.359650 -0.621186
O3    O     O_R   0.708330 0.082950 0.479220 -0.574961
O4    O     O_R   0.657960 0.916980 0.520740 -0.605778
O5    O     O_R   0.512860 0.193470 0.640350 -0.595454
O6    O     O_R   0.462490 0.027500 0.681870 -0.528410
O7    O     O_R   0.342040 0.083020 0.479260 -0.598799
O8    O     O_R   0.291670 0.917050 0.520780 -0.563246
O9    O     O_3   0.624110 0.536678 0.823414 -0.595689
C39   C     C_3   0.731542 0.480454 0.818603 0.051280
H17   H     H_    0.719935 0.383823 0.755379 0.181231
H18   H     H_    0.739097 0.479075 0.900082 0.110844
C40   C     C_3   0.856967 0.542587 0.778494 -0.292327
H19   H     H_    0.842106 0.560832 0.708034 0.254620
H20   H     H_    0.882625 0.630116 0.850229 0.220703
C41   C     C_3   0.968608 0.463346 0.735491 -0.958910
H21   H     H_    0.981769 0.436308 0.801066 0.256804
H22   H     H_    0.059252 0.514574 0.714075 0.273946
H23   H     H_    0.949618 0.381078 0.656964 0.254398
O10   O     O_3   0.652614 0.777182 0.889401 -0.717006
H24   H     H_    0.671834 0.866593 0.927678 0.317520
O11   O     O_3   0.279758 0.877692 0.713040 -0.580835
C42   C     C_3   0.147296 0.872975 0.761290 0.091181
H25   H     H_    0.118379 0.965737 0.791507 0.141915
H26   H     H_    0.132078 0.860186 0.840047 0.198091
C43   C     C_3   0.057510 0.782705 0.677099 -0.440864
H27   H     H_    0.080589 0.794186 0.597161 0.241386
H28   H     H_    0.071442 0.687653 0.656317 0.219149
C44   C     C_3   0.915978 0.803043 0.728198 -0.862669
H29   H     H_    0.894204 0.796234 0.810194 0.276296
H30   H     H_    0.851647 0.733707 0.669229 0.273442
H31   H     H_    0.895263 0.894697 0.744461 0.248018
O12   O     O_3   0.954973 0.963523 0.290992 -0.629540
C45   C     C_3   0.055179 0.016822 0.233496 0.069968
H32   H     H_    0.064574 0.954820 0.141434 0.169736
H33   H     H_    0.152216 0.027027 0.257687 0.139777
C46   C     C_3   0.018267 0.138736 0.250635 -0.402085
H34   H     H_    0.936280 0.120819 0.204531 0.218811
H35   H     H_    0.987072 0.195542 0.342252 0.223245
C47   C     C_3   0.130426 0.209378 0.205867 -0.852627
H36   H     H_    0.211492 0.233347 0.254684 0.278500
H37   H     H_    0.098489 0.294927 0.216161 0.238784
H38   H     H_    0.163554 0.154106 0.114314 0.279808
O13   O     O_3   0.240138 0.699275 0.802165 -0.762136
H39   H     H_    0.241071 0.630556 0.821136 0.332226
O14   O     O_3   0.420746 0.214530 0.106782 -0.641948
C48   C     C_3   0.546429 0.222639 0.130805 0.053418
H40   H     H_    0.533806 0.200046 0.204080 0.192641
H41   H     H_    0.595676 0.317019 0.157053 0.147255
C49   C     C_3   0.631536 0.131397 0.030445 -0.374296
H42   H     H_    0.575389 0.040457 0.999383 0.232261
H43   H     H_    0.658694 0.160073 0.960209 0.212748
C50   C     C_3   0.756844 0.123026 0.063038 -0.962796
H44   H     H_    0.814102 0.213482 0.093716 0.260200
H45   H     H_    0.816163 0.058441 0.987644 0.255586
H46   H     H_    0.735213 0.089330 0.129628 0.253404

loop_
_geom_bond_atom_site_label_1
_geom_bond_atom_site_label_2
_ccdc_geom_bond_type
C44   H29   S    
Cu2   O2    S    
C34   C37   S    
C32   H5    S    
C46   H34   S    
C43   C44   S    
C42   H25   S    
C46   C47   S    
C33   O7    A    
C7    C8    A    
C48   H41   S    
C11   C19   A    
C29   C30   A    
C41   H22   S    
C28   C29   A    
C43   H28   S    
C1    O1    A    
C37   H11   S    
C3    H14   S    
C38   H12   S    
C15   C16   A    
Cu1   N1    S    
C33   C36   S    
Cu2   O4    S    
C49   H42   S    
C34   C35   S    
C17   H2    S    
C34   O12   S    
C35   C36   S    
C39   H17   S    
C41   H23   S    
C7    H3    S    
C4    C12   S    
C9    C10   A    
C16   H4    S    
C23   O5    A    
C30   H10   S    
C5    O14   S    
Cu2   O8    S    
C21   C22   A    
C8    O10   S    
Cu1   O7    S    
C32   N1    A    
C6    C18   A    
O14   C48   S    
C42   H26   S    
C33   O8    A    
Cu1   O3    S    
C48   C49   S    
C4    C34   S    
C1    C19   S    
Cu2   N2    S    
C41   H21   S    
C27   C31   A    
O9    C39   S    
C24   C25   A    
C1    O2    A    
O12   C45   S    
C40   H20   S    
O10   H24   S    
C8    C9    A    
C5    C18   A    
C20   C28   A    
C25   C26   A    
C10   C13   A    
C45   C46   S    
C9    O9    S    
C37   C38   S    
C12   O4    A    
C11   C16   A    
C2    C38   S    
C3    C35   S    
Cu1   O1    S    
C45   H33   S    
C50   H45   S    
C43   H27   S    
C26   N2    A    
C5    C14   A    
C18   H15   S    
C23   O6    A    
C4    C38   S    
C26   C30   A    
C7    C19   A    
C31   H8    S    
C44   H30   S    
C22   C24   A    
C3    C4    S    
Cu1   Cu2   S    
C42   C43   S    
C20   C32   A    
C2    C36   S    
C24   H9    S    
C6    C17   A    
C36   C37   S    
C50   H44   S    
O11   C42   S    
C2    H13   S    
C22   O13   S    
C40   C41   S    
C46   H35   S    
C25   C27   A    
C47   H38   S    
Cu1   O5    S    
C48   H40   S    
C47   H37   S    
Cu2   O6    S    
C49   C50   S    
C13   C17   A    
C29   H6    S    
C15   H16   S    
C31   N1    A    
C2    C3    S    
C40   H19   S    
C12   O3    A    
C39   C40   S    
C6    C23   S    
C21   O11   S    
C45   H32   S    
C49   H43   S    
C50   H46   S    
O13   H39   S    
C35   H1    S    
C20   H7    S    
C10   C11   A    
C21   N2    A    
C39   H18   S    
C47   H36   S    
C44   H31   S    
C27   C28   A    
C14   C15   A    
C13   C14   A    
