data_mof_unit_20190.cif
_audit_creation_date              2012-12-10T20:51:26-0500
_audit_creation_method            fapswitch 2.2
_symmetry_space_group_name_H-M    P1
_symmetry_Int_Tables_number       1
_space_group_crystal_system       triclinic
_cell_length_a                    17.426592
_cell_length_b                    8.931954
_cell_length_c                    8.105712
_cell_angle_alpha                 90.00969
_cell_angle_beta                  89.922427
_cell_angle_gamma                 89.941611
_cell_volume                      1261.68075982

loop_
_atom_site_label
_atom_site_type_symbol
_atom_type_description
_atom_site_fract_x
_atom_site_fract_y
_atom_site_fract_z
_atom_type_partial_charge
C1    C     C_R   0.500029 0.217981 0.499976 0.925840
C2    C     C_R   0.845425 0.338612 0.463570 0.611157
C3    C     C_R   0.771656 0.590623 0.599906 -0.290268
C4    C     C_R   0.234464 0.357025 0.445114 -0.308719
C5    C     C_R   0.227298 0.599380 0.589191 -0.183894
C6    C     C_R   0.767503 0.360648 0.432356 -0.164087
C7    C     C_R   0.730196 0.486885 0.502530 -0.333987
C8    C     C_R   0.270094 0.489003 0.503418 -0.332052
C9    C     C_R   0.885458 0.440304 0.561066 -0.216768
C10   C     C_R   0.114961 0.442637 0.561583 -0.218322
C11   C     C_1   0.966138 0.428380 0.572867 0.243620
C12   C     C_R   0.500055 0.782017 0.499993 0.994720
C13   C     C_1   0.034340 0.429029 0.572981 0.241190
C14   C     C_2   0.734910 0.726540 0.671926 1.108079
C15   C     C_2   0.277904 0.238121 0.357537 1.056731
C16   C     C_2   0.262263 0.742359 0.646788 1.048137
C17   C     C_2   0.726827 0.246546 0.332061 1.013848
C18   C     C_1   0.500065 0.065196 0.499932 -0.109263
C19   C     C_1   0.500070 0.934821 0.499960 -0.077880
C20   C     C_R   0.353111 0.498772 0.500177 0.965980
C21   C     C_R   0.646967 0.496443 0.499897 0.902753
C22   C     C_R   0.849464 0.565334 0.628943 0.629137
C23   C     C_R   0.156679 0.334573 0.475951 0.624495
C24   C     C_R   0.149300 0.574131 0.617629 0.607827
F1    F     F_    0.891139 0.665618 0.717864 -0.560414
F2    F     F_    0.121095 0.209342 0.418997 -0.572235
F3    F     F_    0.105569 0.679975 0.693628 -0.549765
F4    F     F_    0.883154 0.220629 0.394723 -0.563878
H1    H     H_    0.683708 0.787836 0.458481 0.297310
H2    H     H_    0.296891 0.365980 0.156390 0.323670
H3    H     H_    0.261746 0.910449 0.813261 0.365062
H4    H     H_    0.708204 0.027440 0.287840 0.351627
N1    N     N_1   0.500000 0.500000 0.073640 0.007134
N2    N     N_1   0.500000 0.500000 0.926360 -0.005157
O1    O     O_R   0.500000 0.285350 0.636850 -0.613293
O2    O     O_R   0.685936 0.817393 0.578997 -0.774205
O3    O     O_2   0.284200 0.114584 0.420419 -0.509382
O4    O     O_R   0.310162 0.263609 0.202142 -0.745698
O5    O     O_2   0.315409 0.798792 0.570355 -0.620179
O6    O     O_R   0.233558 0.814019 0.787383 -0.685375
O7    O     O_2   0.686334 0.284350 0.216333 -0.589302
O8    O     O_R   0.737838 0.094593 0.365885 -0.702529
O9    O     O_R   0.500000 0.714650 0.363150 -0.623231
O10   O     O_R   0.500000 0.714650 0.636850 -0.602313
O11   O     O_R   0.500000 0.285350 0.363150 -0.592892
O12   O     O_R   0.389120 0.500000 0.636930 -0.618291
O13   O     O_R   0.610880 0.500000 0.363070 -0.576277
O14   O     O_R   0.610880 0.500000 0.636930 -0.608895
O15   O     O_R   0.389120 0.500000 0.363070 -0.609317
O16   O     O_2   0.748226 0.761099 0.814796 -0.485875
Zn1   Zn    Zn3+2 0.500000 0.500000 0.682780 1.055298
Zn2   Zn    Zn3+2 0.500000 0.500000 0.317220 1.070124

loop_
_geom_bond_atom_site_label_1
_geom_bond_atom_site_label_2
_ccdc_geom_bond_type
C5    C8    A    
C15   O4    S    
C6    C7    A    
C10   C23   A    
C20   O15   A    
C11   C13   T    
O11   Zn2   S    
C24   F3    S    
C4    C8    A    
C21   O14   A    
O15   Zn2   S    
C4    C15   S    
C5    C24   A    
N1    N2    T    
N2    Zn1   S    
C5    C16   S    
C12   O10   A    
C14   O16   D    
N1    Zn2   S    
O1    Zn1   S    
C9    C11   S    
H1    O2    S    
C1    O11   A    
C1    C18   S    
C8    C20   S    
C3    C14   S    
C16   O6    S    
O10   Zn1   S    
C12   C19   S    
C12   O9    A    
C3    C7    A    
C14   O2    S    
O9    Zn2   S    
C17   O7    D    
C9    C22   A    
C16   O5    D    
H3    O6    S    
C1    O1    A    
C18   C19   T    
C23   F2    S    
O13   Zn2   S    
C4    C23   A    
C6    C17   S    
H4    O8    S    
C17   O8    S    
C15   O3    D    
C3    C22   A    
C2    F4    S    
H2    O4    S    
C10   C24   A    
C7    C21   S    
C2    C9    A    
O12   Zn1   S    
C22   F1    S    
O14   Zn1   S    
C20   O12   A    
C2    C6    A    
C21   O13   A    
C10   C13   S    
