data_mof_unit_47431.cif
_audit_creation_date              2012-12-10T17:49:39-0500
_audit_creation_method            fapswitch 2.2
_symmetry_space_group_name_H-M    P1
_symmetry_Int_Tables_number       1
_space_group_crystal_system       triclinic
_cell_length_a                    14.705298
_cell_length_b                    14.646262
_cell_length_c                    15.849275
_cell_angle_alpha                 76.622474
_cell_angle_beta                  102.365189
_cell_angle_gamma                 115.211538
_cell_volume                      2978.58709814

loop_
_atom_site_label
_atom_site_type_symbol
_atom_type_description
_atom_site_fract_x
_atom_site_fract_y
_atom_site_fract_z
_atom_type_partial_charge
C1    C     C_R   0.880239 0.311673 0.514965 0.856781
C2    C     C_3   0.099264 0.492827 0.069869 0.999056
C3    C     C_3   0.000840 0.500353 0.083516 -0.188169
C4    C     C_3   0.993333 0.600597 0.027314 0.273859
C5    C     C_3   0.995569 0.601199 0.929599 -0.458005
C6    C     C_1   0.002312 0.499801 0.176088 0.106315
C7    C     C_1   0.998932 0.501403 0.824705 0.206039
C8    C     C_1   0.999039 0.501161 0.749093 -0.071374
C9    C     C_R   0.813625 0.202126 0.522081 -0.220006
C10   C     C_R   0.188327 0.795477 0.460521 -0.332795
C11   C     C_R   0.786389 0.022654 0.568178 0.438006
C12   C     C_R   0.999731 0.500396 0.659592 0.805470
C13   C     C_R   0.850301 0.126777 0.564424 0.497509
C14   C     C_R   0.712131 0.173189 0.485692 -0.276511
C15   C     C_R   0.644864 0.069922 0.491854 -0.053636
C16   C     C_R   0.681812 0.994147 0.536967 -0.255879
C17   C     C_R   0.540693 0.040834 0.457264 0.037700
C18   C     C_R   0.470822 0.939822 0.483017 -0.154088
C19   C     C_R   0.509948 0.864900 0.524016 0.557008
C20   C     C_R   0.613349 0.891511 0.549430 0.565441
C21   C     C_R   0.504897 0.108407 0.395029 -0.142766
C22   C     C_R   0.402930 0.078863 0.362176 -0.157731
C23   C     C_R   0.119870 0.688043 0.483172 0.853708
C24   C     C_R   0.332398 0.984140 0.394655 -0.003135
C25   C     C_R   0.364854 0.916177 0.460140 0.015536
C26   C     C_R   0.229589 0.956221 0.361503 -0.312225
C27   C     C_R   0.158593 0.860527 0.391244 0.548230
C28   C     C_R   0.289487 0.828865 0.501168 0.420148
C29   C     C_R   0.717078 0.667611 0.350957 -0.314798
C30   C     C_R   0.796450 0.635399 0.374070 0.783086
C31   C     C_R   0.716133 0.514670 0.491221 0.007921
C32   C     C_R   0.634846 0.547724 0.473379 -0.040287
C33   C     C_R   0.635943 0.624293 0.400315 -0.092359
C34   C     C_R   0.000649 0.500086 0.340575 0.795491
C35   C     C_R   0.553384 0.507935 0.524839 -0.204924
C36   C     C_R   0.464649 0.530066 0.492105 -0.096598
C37   C     C_R   0.469589 0.610515 0.419578 0.445335
C38   C     C_R   0.558204 0.659675 0.378214 0.485782
C39   C     C_R   0.560197 0.452642 0.610472 0.552182
C40   C     C_R   0.479403 0.411634 0.658659 0.639956
C41   C     C_R   0.388027 0.421302 0.623217 -0.253238
C42   C     C_R   0.377425 0.476640 0.538377 -0.098044
C43   C     C_R   0.306343 0.374940 0.671842 -0.266033
C44   C     C_R   0.216126 0.386788 0.638252 0.748225
C45   C     C_3   0.097652 0.492467 0.971577 0.334300
C46   C     C_R   0.277888 0.471255 0.502873 0.639777
C47   C     C_3   0.905765 0.408606 0.952513 1.013548
C48   C     C_3   0.907354 0.406372 0.051829 0.044503
C49   C     C_1   0.002063 0.499832 0.251513 -0.193784
C50   C     C_3   0.999353 0.500850 0.917356 -0.249756
Cu1   Cu    Cu3+1 0.081750 0.475690 0.522550 1.080720
Cu2   Cu    Cu3+1 0.918250 0.524310 0.477450 1.020883
H1    H     H_    0.918188 0.600358 0.031114 0.151789
H2    H     H_    0.379014 0.131172 0.311823 0.138638
H3    H     H_    0.685635 0.233118 0.456559 0.180672
H4    H     H_    0.100905 0.420238 0.964110 0.158924
H5    H     H_    0.555123 0.182525 0.366256 0.125197
H6    H     H_    0.204831 0.006675 0.309578 0.179459
H7    H     H_    0.719788 0.726709 0.294729 0.223271
H8    H     H_    0.716987 0.450896 0.540813 0.220546
H9    H     H_    0.312562 0.331374 0.736550 0.238629
H10   H     H_    0.917170 0.335172 0.087688 0.146185
H11   H     H_    0.062275 0.668001 0.905111 0.260588
H12   H     H_    0.927193 0.610627 0.889376 0.212189
N1    N     N_R   0.795410 0.560790 0.443550 -0.255602
N2    N     N_R   0.204590 0.439170 0.556520 -0.292683
O1    O     O_R   0.977910 0.338120 0.529720 -0.503715
O2    O     O_R   0.839850 0.379180 0.491640 -0.616062
O3    O     O_R   0.069060 0.479460 0.639610 -0.512878
O4    O     O_R   0.931000 0.520530 0.601530 -0.576562
O5    O     O_R   0.160150 0.620820 0.508360 -0.528387
O6    O     O_R   0.022090 0.661880 0.470280 -0.512342
O7    O     O_R   0.069000 0.479470 0.398470 -0.570081
O8    O     O_R   0.930940 0.520540 0.360390 -0.530347
F1    F     F_    0.105904 0.403575 0.118730 -0.716378
F2    F     F_    0.182461 0.572371 0.940070 -0.594195
F3    F     F_    0.184303 0.574053 0.098635 -0.577299
F4    F     F_    0.645171 0.815298 0.587962 -0.584085
O9    O     O_3   0.313538 0.776976 0.581806 -0.521056
C51   C     C_3   0.283085 0.802891 0.648732 0.066610
H13   H     H_    0.268964 0.737510 0.703401 0.199039
H14   H     H_    0.210543 0.814084 0.628517 0.092248
C52   C     C_3   0.367427 0.897866 0.682449 -0.368561
H15   H     H_    0.439060 0.885482 0.702197 0.251381
H16   H     H_    0.380020 0.965054 0.629590 0.214059
C53   C     C_3   0.340116 0.920714 0.760624 -0.807233
H17   H     H_    0.269433 0.934853 0.741832 0.249999
H18   H     H_    0.402381 0.989964 0.783310 0.274703
H19   H     H_    0.329238 0.855583 0.815339 0.278066
F5    F     F_    0.061949 0.830903 0.350459 -0.623924
O10   O     O_3   0.823367 0.948627 0.610253 -0.509216
C54   C     C_3   0.893522 0.946494 0.562428 0.130660
H20   H     H_    0.934736 0.901433 0.606301 0.174881
H21   H     H_    0.952368 0.023552 0.543366 0.158317
C55   C     C_3   0.840358 0.894660 0.481255 -0.427757
H22   H     H_    0.785707 0.815494 0.501154 0.285053
H23   H     H_    0.797972 0.937818 0.436169 0.220640
C56   C     C_3   0.917477 0.891099 0.432508 -0.774897
H24   H     H_    0.976048 0.968994 0.415802 0.245227
H25   H     H_    0.878750 0.860730 0.370700 0.293338
H26   H     H_    0.954790 0.840808 0.473362 0.274668
F6    F     F_    0.946735 0.153844 0.606181 -0.621000
F7    F     F_    0.450880 0.763630 0.531634 -0.559653
F8    F     F_    0.571420 0.745722 0.318168 -0.695644
O11   O     O_3   0.250209 0.483139 0.413591 -0.600750
C57   C     C_3   0.208603 0.386826 0.384961 0.050937
H27   H     H_    0.149661 0.388799 0.328317 0.213340
H28   H     H_    0.169581 0.321502 0.434955 0.120240
C58   C     C_3   0.289879 0.367846 0.353829 -0.391740
H29   H     H_    0.329596 0.434583 0.305789 0.242132
H30   H     H_    0.346329 0.358218 0.410230 0.200784
C59   C     C_3   0.243446 0.271792 0.311090 -0.823029
H31   H     H_    0.205970 0.203575 0.358845 0.240401
H32   H     H_    0.304022 0.261034 0.288353 0.245534
H33   H     H_    0.186974 0.279033 0.253767 0.303062
F9    F     F_    0.138617 0.342117 0.687065 -0.588739
F10   F     F_    0.490934 0.361361 0.741214 -0.594351
F11   F     F_    0.874834 0.678976 0.326322 -0.617441
F12   F     F_    0.817389 0.415734 0.904846 -0.556104
O12   O     O_3   0.398554 0.654309 0.403635 -0.525036
C60   C     C_3   0.365024 0.677469 0.313296 0.210769
H34   H     H_    0.281886 0.633575 0.301092 0.188617
H35   H     H_    0.397629 0.654943 0.268149 0.159148
C61   C     C_3   0.383265 0.790857 0.290320 -0.331594
H36   H     H_    0.332028 0.804782 0.323376 0.205044
H37   H     H_    0.462556 0.838967 0.314146 0.271887
C62   C     C_3   0.362478 0.822909 0.191907 -0.810028
H38   H     H_    0.416903 0.815297 0.157828 0.290861
H39   H     H_    0.371449 0.903964 0.177986 0.244168
H40   H     H_    0.284027 0.774608 0.166386 0.288583
F13   F     F_    0.648337 0.447022 0.653520 -0.611392
F14   F     F_    0.906940 0.317993 0.941070 -0.664472
O13   O     O_3   0.815591 0.408823 0.065038 -0.546206
C63   C     C_3   0.771601 0.335179 0.136200 0.093218
H41   H     H_    0.727047 0.364629 0.162702 0.169455
H42   H     H_    0.828927 0.323441 0.191288 0.110357
C64   C     C_3   0.699726 0.233504 0.105475 -0.284508
H43   H     H_    0.641744 0.246490 0.052004 0.265311
H44   H     H_    0.743038 0.202124 0.079558 0.243143
C65   C     C_3   0.646518 0.155531 0.180336 -0.912883
H45   H     H_    0.703063 0.140481 0.234233 0.258853
H46   H     H_    0.595318 0.082594 0.156316 0.277484
H47   H     H_    0.600547 0.184099 0.205958 0.251964
O14   O     O_3   0.075832 0.688469 0.055232 -0.543767
C66   C     C_3   0.046825 0.737586 0.105577 0.092409
H48   H     H_    0.113519 0.773484 0.153106 0.178465
H49   H     H_    0.985262 0.683877 0.145237 0.156598
C67   C     C_3   0.016195 0.821368 0.046716 -0.398180
H50   H     H_    0.079560 0.875853 0.009576 0.245241
H51   H     H_    0.948889 0.786764 0.999147 0.227717
C68   C     C_3   0.990882 0.879461 0.100501 -0.758577
H52   H     H_    0.926575 0.826615 0.137156 0.284443
H53   H     H_    0.969039 0.939725 0.056248 0.261694
H54   H     H_    0.057810 0.916338 0.147514 0.265145

loop_
_geom_bond_atom_site_label_1
_geom_bond_atom_site_label_2
_ccdc_geom_bond_type
C10   C27   A    
C12   O3    A    
C4    H1    S    
C41   C42   A    
C36   C42   A    
C55   H22   S    
C65   H47   S    
C9    C14   A    
C3    C6    S    
C63   C64   S    
C59   H32   S    
C66   H48   S    
C55   C56   S    
C7    C8    T    
C22   H2    S    
C25   C28   A    
C64   H44   S    
C26   C27   A    
C29   C30   A    
C39   F13   S    
C45   F2    S    
C36   C37   A    
C24   C26   A    
C46   N2    A    
Cu2   O8    S    
C58   H30   S    
C53   H18   S    
C57   H27   S    
C15   C16   A    
C46   O11   S    
C29   C33   A    
C3    C48   S    
C1    O2    A    
C5    H11   S    
C27   F5    S    
C15   C17   A    
C18   C19   A    
C42   C46   A    
C68   H54   S    
C28   O9    S    
C9    C13   A    
C60   C61   S    
C38   F8    S    
C19   F7    S    
C35   C36   A    
C45   H4    S    
C47   C48   S    
C68   H52   S    
C67   C68   S    
Cu2   O2    S    
C8    C12   S    
C47   F12   S    
C14   H3    S    
C21   C22   A    
C41   C43   A    
C18   C25   A    
Cu1   O5    S    
C51   C52   S    
C59   H31   S    
C66   H49   S    
C47   C50   S    
C2    C45   S    
C64   C65   S    
Cu1   Cu2   S    
C32   C35   A    
C23   O5    A    
C48   O13   S    
C1    C9    S    
C65   H45   S    
C51   H14   S    
C58   C59   S    
O10   C54   S    
C53   H17   S    
O14   C66   S    
C63   H42   S    
C30   F11   S    
C54   C55   S    
C17   C21   A    
C5    H12   S    
Cu1   N2    S    
C31   H8    S    
C35   C39   A    
C43   C44   A    
C62   H39   S    
C21   H5    S    
C37   C38   A    
Cu2   O6    S    
C11   C16   A    
C48   H10   S    
C52   H15   S    
C16   C20   A    
C54   H21   S    
C17   C18   A    
C60   H34   S    
Cu1   O1    S    
C24   C25   A    
C26   H6    S    
C44   N2    A    
C34   O8    A    
C61   C62   S    
C40   C41   A    
C52   H16   S    
C56   H25   S    
O13   C63   S    
C22   C24   A    
C5    C50   S    
C3    C4    S    
C39   C40   A    
C66   C67   S    
O12   C60   S    
C43   H9    S    
C61   H37   S    
O11   C57   S    
C10   C28   A    
C31   N1    A    
C12   O4    A    
C34   C49   S    
C23   O6    A    
C31   C32   A    
Cu1   O7    S    
C7    C50   S    
C67   H51   S    
C51   H13   S    
C53   H19   S    
C4    O14   S    
C55   H23   S    
C63   H41   S    
C65   H46   S    
C10   C23   S    
C56   H26   S    
C64   H43   S    
C33   C38   A    
C20   F4    S    
C47   F14   S    
C32   C33   A    
C19   C20   A    
C2    C3    S    
C62   H40   S    
C2    F3    S    
C58   H29   S    
C11   C13   A    
C37   O12   S    
C57   H28   S    
C45   C50   S    
C54   H20   S    
C1    O1    A    
C40   F10   S    
C67   H50   S    
C68   H53   S    
C6    C49   T    
C60   H35   S    
C30   N1    A    
Cu2   O4    S    
Cu2   N1    S    
C34   O7    A    
O9    C51   S    
C11   O10   S    
C4    C5    S    
C52   C53   S    
C44   F9    S    
C56   H24   S    
C29   H7    S    
C14   C15   A    
Cu1   O3    S    
C13   F6    S    
C59   H33   S    
C2    F1    S    
C62   H38   S    
C61   H36   S    
C57   C58   S    
