data_mof_unit_35688.cif
_audit_creation_date              2012-12-10T20:39:13-0500
_audit_creation_method            fapswitch 2.2
_symmetry_space_group_name_H-M    P1
_symmetry_Int_Tables_number       1
_space_group_crystal_system       triclinic
_cell_length_a                    19.124364
_cell_length_b                    10.686938
_cell_length_c                    9.920937
_cell_angle_alpha                 89.556304
_cell_angle_beta                  91.035268
_cell_angle_gamma                 90.994438
_cell_volume                      2026.95763324

loop_
_atom_site_label
_atom_site_type_symbol
_atom_type_description
_atom_site_fract_x
_atom_site_fract_y
_atom_site_fract_z
_atom_type_partial_charge
C1    C     C_R   0.502531 0.260032 0.500223 0.897429
C2    C     C_R   0.854418 0.504686 0.491245 -0.135452
C3    C     C_R   0.531042 0.063628 0.616693 -0.001901
C4    C     C_R   0.365955 0.500081 0.499409 0.936943
C5    C     C_R   0.514951 0.128892 0.498389 -0.098905
C6    C     C_R   0.514088 0.065746 0.374741 -0.154620
C7    C     C_R   0.514576 0.936596 0.374156 -0.146151
C8    C     C_R   0.515824 0.871384 0.497325 -0.129255
C9    C     C_R   0.531806 0.935382 0.616051 0.025359
C10   C     C_3   0.500636 0.925619 0.753688 0.216245
C11   C     C_3   0.499575 0.068637 0.753763 -0.299180
C12   C     C_R   0.290661 0.500405 0.500926 -0.043770
C13   C     C_R   0.438406 0.498164 0.068728 0.040393
C14   C     C_R   0.560024 0.517372 0.075319 -0.137551
C15   C     C_R   0.560167 0.521804 0.932487 0.031316
C16   C     C_R   0.502968 0.739895 0.499496 0.886546
C17   C     C_R   0.438719 0.496514 0.926735 0.145233
C18   C     C_3   0.380303 0.402917 0.916051 0.099321
C19   C     C_3   0.379791 0.401852 0.070724 0.241739
C20   C     C_R   0.634091 0.503017 0.500840 0.880628
C21   C     C_R   0.256636 0.413913 0.584490 -0.302631
C22   C     C_R   0.184509 0.417098 0.599738 -0.008567
C23   C     C_R   0.930120 0.505129 0.498828 0.297437
C24   C     C_R   0.146338 0.506522 0.524219 -0.026439
C25   C     C_R   0.180994 0.594539 0.442452 -0.262086
C26   C     C_R   0.253653 0.593201 0.431547 0.452697
C27   C     C_2   0.546268 0.131696 0.858373 1.076403
C28   C     C_2   0.626455 0.560583 0.871665 0.988459
C29   C     C_2   0.312200 0.449966 0.124616 0.948985
C30   C     C_2   0.152204 0.330653 0.700006 0.937586
C31   C     C_R   0.070440 0.505693 0.520543 0.352023
C32   C     C_R   0.818272 0.421598 0.575628 -0.172224
C33   C     C_R   0.746150 0.424385 0.580542 -0.228950
C34   C     C_R   0.709512 0.510735 0.501726 -0.228139
C35   C     C_R   0.745307 0.597083 0.417509 0.440863
C36   C     C_R   0.817796 0.590987 0.408595 0.470341
H1    H     H_    0.287145 0.346008 0.640874 0.194348
H2    H     H_    0.507134 0.114497 0.279550 0.203258
H3    H     H_    0.594594 0.899935 0.832675 0.369789
H4    H     H_    0.567252 0.159335 0.055669 0.328693
H5    H     H_    0.729638 0.529970 0.855072 0.352665
H6    H     H_    0.359674 0.235289 0.858468 0.356768
H7    H     H_    0.239735 0.584944 0.118530 0.356941
H8    H     H_    0.157610 0.166433 0.801258 0.362009
H9    H     H_    0.446868 0.266903 0.103346 0.377557
H10   H     H_    0.255626 0.742330 0.317772 0.345984
H11   H     H_    0.665583 0.704392 0.381175 0.326295
H12   H     H_    0.507947 0.889011 0.278620 0.207265
H13   H     H_    0.896138 0.635687 0.294110 0.337412
H14   H     H_    0.447655 0.881031 0.753328 0.153497
H15   H     H_    0.445504 0.104086 0.750148 0.166172
H16   H     H_    0.608289 0.531982 0.132020 0.192979
H17   H     H_    0.333205 0.442137 0.864522 0.116412
H18   H     H_    0.151304 0.663261 0.385712 0.156907
H19   H     H_    0.846072 0.355614 0.639447 0.199267
H20   H     H_    0.718739 0.357863 0.644533 0.218551
N1    N     N_R   0.035594 0.614920 0.521267 -0.149795
N2    N     N_R   0.966341 0.614584 0.511353 -0.132968
N3    N     N_R   0.964895 0.395876 0.498247 -0.133531
N4    N     N_R   0.034168 0.396260 0.507836 -0.124530
N5    N     N_R   0.499530 0.499140 0.142800 -0.119692
N6    N     N_R   0.499530 0.499180 0.857150 -0.111059
O1    O     O_R   0.500010 0.316790 0.614690 -0.574949
O2    O     O_2   0.595099 0.199676 0.824422 -0.616278
O3    O     O_R   0.532810 0.112393 0.994886 -0.781960
O4    O     O_2   0.629886 0.657577 0.805933 -0.589136
O5    O     O_R   0.686610 0.491553 0.898278 -0.790049
O6    O     O_3   0.401913 0.290513 0.860810 -0.738957
O7    O     O_2   0.278168 0.385919 0.203251 -0.563754
O8    O     O_R   0.287255 0.565909 0.080779 -0.821890
O9    O     O_2   0.099793 0.360646 0.759861 -0.598595
O10   O     O_R   0.183653 0.216342 0.730142 -0.797511
O11   O     O_3   0.398689 0.286744 0.130547 -0.692257
O12   O     O_R   0.500000 0.316760 0.385350 -0.613563
O13   O     O_3   0.289530 0.682633 0.357435 -0.753633
O14   O     O_3   0.711656 0.687840 0.341772 -0.693206
O15   O     O_3   0.850558 0.670796 0.318426 -0.681795
O16   O     O_R   0.398140 0.500000 0.614710 -0.633894
O17   O     O_R   0.398130 0.499970 0.385370 -0.562043
O18   O     O_R   0.500000 0.683240 0.614650 -0.588834
O19   O     O_R   0.499990 0.683210 0.385310 -0.614755
O20   O     O_R   0.601870 0.500030 0.614630 -0.591119
O21   O     O_R   0.601860 0.500000 0.385290 -0.629101
O22   O     O_3   0.545840 0.872044 0.851069 -0.676620
Zn1   Zn    Zn3+2 0.500000 0.500020 0.653130 1.047882
Zn2   Zn    Zn3+2 0.500000 0.499980 0.346870 1.014703

loop_
_geom_bond_atom_site_label_1
_geom_bond_atom_site_label_2
_ccdc_geom_bond_type
C23   N2    A    
C24   C25   A    
C20   O20   A    
C35   C36   A    
C3    C11   S    
C30   O9    D    
C15   C28   S    
C7    C8    A    
H5    O5    S    
C23   N3    A    
C3    C9    A    
C1    O12   A    
C2    C32   A    
H11   O14   S    
C34   C35   A    
C36   O15   S    
C5    C6    A    
C18   O6    S    
H9    O11   S    
C18   C19   S    
C18   H17   S    
C14   H16   S    
C8    C9    A    
C6    H2    S    
C4    C12   S    
C9    C10   S    
C32   H19   S    
O19   Zn2   S    
C20   C34   S    
C33   H20   S    
N3    N4    A    
C8    C16   S    
C21   C22   A    
O1    Zn1   S    
H6    O6    S    
C1    O1    A    
H10   O13   S    
C26   O13   S    
C29   O7    D    
N6    Zn1   S    
C35   O14   S    
C13   C19   S    
C19   O11   S    
C28   O5    S    
C33   C34   A    
C25   H18   S    
C4    O17   A    
N5    Zn2   S    
C25   C26   A    
C14   N5    A    
C12   C21   A    
C12   C26   A    
C16   O18   A    
C31   N4    A    
C28   O4    D    
C4    O16   A    
O18   Zn1   S    
C27   O3    S    
C17   N6    A    
C11   C27   S    
C17   C18   S    
C21   H1    S    
O12   Zn2   S    
O16   Zn1   S    
H7    O8    S    
H4    O3    S    
C1    C5    S    
C10   H14   S    
C29   O8    S    
C2    C36   A    
C22   C30   S    
C3    C5    A    
H3    O22   S    
C30   O10   S    
C6    C7    A    
O20   Zn1   S    
C13   C17   A    
C10   C11   S    
C7    H12   S    
C31   N1    A    
C24   C31   S    
C32   C33   A    
N1    N2    A    
C10   O22   S    
C16   O19   A    
C15   N6    A    
H13   O15   S    
H8    O10   S    
C22   C24   A    
C11   H15   S    
C27   O2    D    
O21   Zn2   S    
C13   N5    A    
C20   O21   A    
C2    C23   S    
C14   C15   A    
O17   Zn2   S    
C19   C29   S    
