data_mof_unit_50721.cif
_audit_creation_date              2012-12-11T15:48:52-0500
_audit_creation_method            fapswitch 2.2
_symmetry_space_group_name_H-M    P1
_symmetry_Int_Tables_number       1
_space_group_crystal_system       triclinic
_cell_length_a                    10.981642
_cell_length_b                    10.980252
_cell_length_c                    18.864284
_cell_angle_alpha                 90.791723
_cell_angle_beta                  90.907095
_cell_angle_gamma                 60.770995
_cell_volume                      1984.75748808

loop_
_atom_site_label
_atom_site_type_symbol
_atom_type_description
_atom_site_fract_x
_atom_site_fract_y
_atom_site_fract_z
_atom_type_partial_charge
C1    C     C_R   0.238460 0.647094 0.610042 0.529825
C2    C     C_R   0.585986 0.126529 0.704975 -0.095626
C3    C     C_R   0.576375 0.130733 0.777662 0.257547
C4    C     C_R   0.652948 0.619345 0.602093 0.544874
C5    C     C_3   0.920261 0.107179 0.789844 -0.195699
C6    C     C_3   0.916096 0.114088 0.710011 -0.241456
C7    C     C_R   0.672936 0.165492 0.671531 -0.068158
C8    C     C_R   0.169763 0.679341 0.833237 -0.020814
C9    C     C_R   0.156171 0.579731 0.793186 -0.058971
C10   C     C_R   0.166931 0.574789 0.719400 -0.061887
C11   C     C_R   0.189939 0.783489 0.724444 0.213861
C12   C     C_3   0.747985 0.513603 0.796288 0.035910
C13   C     C_R   0.195685 0.776288 0.798094 0.217264
C14   C     C_3   0.252750 0.428035 0.799628 0.165067
C15   C     C_3   0.260994 0.420294 0.719398 0.138634
C16   C     C_R   0.629493 0.226871 0.601823 0.532958
C17   C     C_R   0.185590 0.674749 0.683129 -0.077268
C18   C     C_R   0.662846 0.681249 0.172083 -0.028554
C19   C     C_R   0.764212 0.565672 0.207764 0.036642
C20   C     C_R   0.767158 0.554389 0.279971 -0.015630
C21   C     C_R   0.568650 0.784443 0.288481 -0.117253
C22   C     C_R   0.564744 0.796035 0.213924 0.190356
C23   C     C_3   0.694637 0.669391 0.814588 0.092321
C24   C     C_3   0.812532 0.414965 0.195116 0.472719
C25   C     C_3   0.816973 0.400406 0.275197 0.205397
C26   C     C_R   0.663858 0.658905 0.321554 -0.073750
C27   C     C_R   0.665073 0.134954 0.179423 0.007497
C28   C     C_R   0.217090 0.651529 0.402870 0.580886
C29   C     C_R   0.541729 0.164008 0.212168 0.102097
C30   C     C_R   0.530307 0.185324 0.284102 -0.031751
C31   C     C_R   0.774738 0.116064 0.294930 -0.174611
C32   C     C_R   0.784089 0.103628 0.221382 -0.133975
C33   C     C_3   0.396533 0.279847 0.197342 0.467388
C34   C     C_3   0.669659 0.642340 0.678260 0.002655
C35   C     C_3   0.387247 0.311144 0.276545 0.148453
C36   C     C_R   0.644398 0.166371 0.326224 -0.016637
C37   C     C_R   0.055538 0.727159 0.194698 0.003332
C38   C     C_R   0.087243 0.820006 0.230561 0.039890
C39   C     C_R   0.122906 0.802813 0.300811 -0.025542
C40   C     C_R   0.642498 0.622679 0.392663 0.544893
C41   C     C_R   0.080766 0.607050 0.306375 -0.104627
C42   C     C_R   0.043226 0.625437 0.233943 -0.125527
C43   C     C_3   0.196290 0.859759 0.213502 0.131983
C44   C     C_3   0.234050 0.842839 0.290853 -0.148291
C45   C     C_3   0.778962 0.689553 0.691594 -0.249894
C46   C     C_R   0.131794 0.689918 0.338500 0.036144
C47   C     C_R   0.701436 0.097421 0.894605 0.558853
C48   C     C_R   0.719782 0.685432 0.890133 0.565826
C49   C     C_R   0.115476 0.708513 0.905217 0.574194
C50   C     C_R   0.678536 0.101491 0.105294 0.576433
C51   C     C_R   0.697280 0.692663 0.098561 0.518030
C52   C     C_R   0.616160 0.228048 0.395851 0.564039
C53   C     C_R   0.029465 0.745836 0.118785 0.556661
C54   C     C_3   0.537894 0.752186 0.792027 0.186529
C55   C     C_3   0.527883 0.752364 0.710155 0.156924
C56   C     C_3   0.717431 0.501830 0.717643 -0.219030
C57   C     C_3   0.780196 0.721781 0.771267 -0.245308
C58   C     C_R   0.676499 0.147381 0.820995 0.035795
C59   C     C_R   0.766422 0.182032 0.786584 -0.005127
C60   C     C_R   0.762066 0.194551 0.712878 -0.018739
Cr1   Cr    Cr6+3 0.392960 0.397920 0.502240 1.022626
Cr2   Cr    Cr6+3 0.398340 0.708480 0.501250 1.010007
Cr3   Cr    Cr6+3 0.708670 0.393570 0.496460 1.004540
Cr4   Cr    Cr6+3 0.937650 0.938540 0.007610 1.023540
Cr5   Cr    Cr6+3 0.625330 0.937370 0.994520 1.099376
Cr6   Cr    Cr6+3 0.937940 0.625230 0.001190 1.065483
H1    H     H_    0.889582 0.671383 0.790519 0.112593
H2    H     H_    0.340352 0.754196 0.300734 0.131136
H3    H     H_    0.209869 0.941792 0.318912 0.184155
H4    H     H_    0.378177 0.940217 0.797761 0.422999
H5    H     H_    0.814278 0.417098 0.694001 0.151605
H6    H     H_    0.425511 0.172969 0.843901 0.388183
H7    H     H_    0.959627 0.000839 0.810673 0.190593
H8    H     H_    0.963602 0.174347 0.688028 0.167335
H9    H     H_    0.944602 0.012742 0.683997 0.132094
H10   H     H_    0.152829 0.923752 0.652123 0.335849
H11   H     H_    0.484220 0.697273 0.813430 0.136142
H12   H     H_    0.883933 0.605436 0.675384 0.147368
H13   H     H_    0.277517 0.825905 0.876789 0.341117
H14   H     H_    0.423535 0.445556 0.806836 0.333513
H15   H     H_    0.207067 0.347252 0.638633 0.340907
H16   H     H_    0.489567 0.868977 0.319566 0.158355
H17   H     H_    0.431372 0.893994 0.139379 0.345579
H18   H     H_    0.963813 0.248514 0.154578 0.370362
H19   H     H_    0.712210 0.410176 0.110664 0.344816
H20   H     H_    0.449260 0.720150 0.695907 0.142169
H21   H     H_    0.945352 0.293062 0.350221 0.327871
H22   H     H_    0.882778 0.074421 0.197123 0.203989
H23   H     H_    0.511221 0.109213 0.674546 0.221851
H24   H     H_    0.212393 0.308301 0.175274 0.366952
H25   H     H_    0.467027 0.401422 0.161085 0.334718
H26   H     H_    0.474645 0.432212 0.279558 0.317056
H27   H     H_    0.082846 0.520954 0.334687 0.152651
H28   H     H_    0.015092 0.554488 0.207770 0.175985
H29   H     H_    0.155424 0.998159 0.141423 0.344081
H30   H     H_    0.411027 0.912081 0.649439 0.365380
H31   H     H_    0.281493 0.783350 0.178771 0.137549
H32   H     H_    0.736295 0.836026 0.779180 0.181171
H33   H     H_    0.754478 0.783728 0.659964 0.159346
H34   H     H_    0.962639 0.170441 0.815645 0.175239
H35   H     H_    0.863604 0.452407 0.804584 0.150751
H36   H     H_    0.740323 0.418122 0.881079 0.344436
H37   H     H_    0.633973 0.472489 0.711847 0.145255
H38   H     H_    0.202482 0.372197 0.823889 0.192224
H39   H     H_    0.366185 0.386445 0.697618 0.144443
H40   H     H_    0.740617 0.371570 0.296253 0.122673
H41   H     H_    0.865164 0.099682 0.326056 0.148929
H42   H     H_    0.304948 0.299428 0.304165 0.166283
O1    O     O_R   0.507380 0.255700 0.581440 -0.543197
O2    O     O_R   0.837170 0.593410 0.915250 -0.553053
O3    O     O_R   0.065200 0.635530 0.931570 -0.484427
O4    O     O_R   0.280320 0.527350 0.578930 -0.519853
O5    O     O_R   0.068260 0.828890 0.091840 -0.528401
O6    O     O_R   0.798870 0.057410 0.079340 -0.532255
O7    O     O_R   0.584930 0.080350 0.076780 -0.446862
O8    O     O_R   0.626960 0.809650 0.067060 -0.505712
O9    O     O_R   0.816040 0.596610 0.076510 -0.494143
O10   O     O_R   0.045610 0.638500 0.081060 -0.458539
O11   O     O_3   0.833640 0.833710 0.001100 -0.312471
O12   O     O_R   0.524480 0.695810 0.424040 -0.506301
O13   O     O_R   0.260510 0.739590 0.584590 -0.529231
O14   O     O_R   0.532300 0.695080 0.573820 -0.502464
O15   O     O_R   0.744840 0.503500 0.576370 -0.526756
O16   O     O_R   0.699120 0.276560 0.571960 -0.498659
O17   O     O_R   0.498940 0.256500 0.419860 -0.495478
O18   O     O_R   0.272500 0.528080 0.429150 -0.467569
O19   O     O_R   0.252060 0.740380 0.423010 -0.537736
O20   O     O_3   0.471963 0.887919 0.819867 -0.600456
O21   O     O_3   0.469099 0.112838 0.802401 -0.607665
O22   O     O_3   0.206780 0.890065 0.696569 -0.684732
O23   O     O_R   0.736390 0.504290 0.414790 -0.524068
O24   O     O_3   0.218765 0.872716 0.834631 -0.675256
O25   O     O_3   0.377686 0.402905 0.834407 -0.723939
O26   O     O_3   0.194296 0.349607 0.690657 -0.702877
O27   O     O_3   0.461122 0.917645 0.184886 -0.628310
O28   O     O_3   0.943343 0.346043 0.162394 -0.638474
O29   O     O_3   0.710961 0.390818 0.161789 -0.780726
O30   O     O_3   0.953597 0.321751 0.301721 -0.672590
O31   O     O_3   0.308466 0.227776 0.174784 -0.593859
O32   O     O_3   0.385560 0.387174 0.152780 -0.643529
O33   O     O_3   0.384934 0.437915 0.292975 -0.700053
O34   O     O_R   0.691300 0.277290 0.422170 -0.523472
O35   O     O_3   0.138196 0.999377 0.192938 -0.674177
O36   O     O_3   0.489858 0.885659 0.683237 -0.667733
O37   O     O_3   0.681201 0.459158 0.838250 -0.740242
O38   O     O_3   0.499990 0.499990 0.499980 -0.254419
O39   O     O_R   0.089400 0.825690 0.930570 -0.506164
O40   O     O_R   0.818460 0.054440 0.929850 -0.514039
O41   O     O_R   0.606060 0.077150 0.915510 -0.480088
O42   O     O_R   0.646550 0.806680 0.917570 -0.439045

loop_
_geom_bond_atom_site_label_1
_geom_bond_atom_site_label_2
_ccdc_geom_bond_type
C48   O2    A    
C21   C26   A    
C34   C56   S    
C8    C13   A    
C48   O42   A    
C27   C29   A    
C3    O21   S    
C41   C42   A    
C43   O35   S    
C2    C7    A    
C9    C14   S    
Cr1   O1    S    
Cr3   O16   S    
C6    H9    S    
C15   O26   S    
C23   C48   S    
H29   O35   S    
C12   C23   S    
C45   C57   S    
C37   C38   A    
Cr4   O11   S    
C30   C35   S    
C33   O31   S    
C18   C19   A    
C10   C15   S    
C31   C36   A    
H36   O37   S    
C5    C6    S    
C20   C25   S    
C57   H32   S    
C10   C17   A    
C32   H22   S    
C29   C33   S    
C37   C42   A    
C49   O39   A    
C50   O7    A    
Cr5   O42   S    
C35   H42   S    
C33   C35   S    
C47   O40   A    
H10   O22   S    
C13   O24   S    
H24   O31   S    
C47   O41   A    
C28   O18   A    
C8    C9    A    
Cr6   O9    S    
C18   C51   S    
C41   C46   A    
C45   H12   S    
Cr4   O5    S    
Cr3   O23   S    
Cr6   O3    S    
C9    C10   A    
Cr3   O38   S    
H17   O27   S    
C36   C52   S    
C27   C50   S    
C49   O3    A    
C54   H11   S    
C37   C53   S    
C24   O28   S    
C34   C55   S    
C42   H28   S    
C21   C22   A    
Cr4   O40   S    
C5    H7    S    
Cr5   O7    S    
C57   H1    S    
C53   O5    A    
C25   H40   S    
C6    H8    S    
C1    O4    A    
C38   C39   A    
C4    C34   S    
Cr4   O6    S    
C5    C59   S    
C6    C60   S    
H15   O26   S    
C24   C25   S    
C45   H33   S    
C53   O10   A    
C25   O30   S    
C58   C59   A    
C54   O20   S    
C52   O34   A    
H14   O25   S    
C4    O15   A    
C50   O6    A    
C12   O37   S    
C2    H23   S    
Cr1   O38   S    
C59   C60   A    
C29   C30   A    
H30   O36   S    
C14   H38   S    
C31   C32   A    
C5    H34   S    
C56   H5    S    
C28   C46   S    
H6    O21   S    
Cr5   O11   S    
C4    O14   A    
C44   H3    S    
C34   C45   S    
Cr6   O2    S    
H26   O33   S    
C16   O1    A    
C12   C56   S    
C35   O33   S    
C39   C46   A    
C7    C16   S    
C40   O12   A    
C40   O23   A    
Cr6   O11   S    
C43   C44   S    
Cr2   O38   S    
Cr5   O8    S    
C38   C43   S    
C44   H2    S    
H21   O30   S    
C11   O22   S    
H19   O29   S    
C7    C60   A    
Cr2   O14   S    
C23   C54   S    
H4    O20   S    
C23   C57   S    
C54   C55   S    
H18   O28   S    
C55   O36   S    
C27   C32   A    
C18   C22   A    
C31   H41   S    
C43   H31   S    
C56   H37   S    
C11   C17   A    
Cr3   O15   S    
C52   O17   A    
C28   O19   A    
C39   C44   S    
C14   O25   S    
C24   O29   S    
C1    C17   S    
C51   O8    A    
C30   C36   A    
C22   O27   S    
C41   H27   S    
C15   H39   S    
C19   C20   A    
C19   C24   S    
C16   O16   A    
Cr2   O12   S    
Cr4   O39   S    
C47   C58   S    
C11   C13   A    
C26   C40   S    
Cr2   O19   S    
C20   C26   A    
C55   H20   S    
H13   O24   S    
C51   O9    A    
Cr3   O34   S    
C2    C3    A    
Cr5   O41   S    
C1    O13   A    
H25   O32   S    
C3    C58   A    
C12   H35   S    
Cr1   O18   S    
C21   H16   S    
Cr6   O10   S    
C14   C15   S    
Cr1   O17   S    
C33   O32   S    
Cr1   O4    S    
C8    C49   S    
Cr2   O13   S    
