data_mof_unit_18608.cif
_audit_creation_date              2013-03-05T15:42:25-0500
_audit_creation_method            fapswitch 2.2
_symmetry_space_group_name_H-M    P1
_symmetry_Int_Tables_number       1
_space_group_crystal_system       triclinic
_cell_length_a                    13.046981
_cell_length_b                    10.910064
_cell_length_c                    9.653809
_cell_angle_alpha                 88.934641
_cell_angle_beta                  96.60802
_cell_angle_gamma                 90.910546
_cell_volume                      1364.66020348

loop_
_atom_site_label
_atom_site_type_symbol
_atom_site_description
_atom_site_fract_x
_atom_site_fract_y
_atom_site_fract_z
_atom_type_partial_charge
O1    O     O_R   0.500020 0.321960 0.617050 -0.589191
O2    O     O_R   0.499980 0.321920 0.382890 -0.567382
C1    C     C_R   0.505265 0.264715 0.503105 0.716869
O3    O     O_R   0.349010 0.500000 0.598060 -0.544754
O4    O     O_R   0.348980 0.499950 0.363910 -0.488136
C2    C     C_R   0.300324 0.506109 0.472903 0.846212
Cu1   Cu    Cu3+1 0.500020 0.500020 0.638640 0.941346
Cu2   Cu    Cu3+1 0.499980 0.499980 0.361360 1.018710
O5    O     O_R   0.500020 0.678080 0.617110 -0.583646
O6    O     O_R   0.499980 0.678040 0.382950 -0.580044
O7    O     O_R   0.651020 0.500050 0.636090 -0.588896
O8    O     O_R   0.650990 0.500000 0.401940 -0.536973
C3    C     C_R   0.498534 0.734626 0.498345 0.806768
C4    C     C_R   0.699429 0.498362 0.526435 0.849503
C5    C     C_R   0.812154 0.501239 0.542457 -0.200999
C6    C     C_R   0.186916 0.516995 0.454713 -0.317178
C7    C     C_R   0.022520 0.472690 0.321933 -0.229379
C8    C     C_R   0.128345 0.488472 0.326374 0.262300
C9    C     C_R   0.135624 0.551675 0.569670 0.387524
C10   C     C_R   0.027352 0.536803 0.564026 -0.079490
C11   C     C_R   0.972048 0.491800 0.439463 -0.122724
C12   C     C_R   0.865775 0.469585 0.430910 0.415556
C13   C     C_R   0.865682 0.543281 0.666355 -0.402410
C14   C     C_R   0.972872 0.565983 0.678364 0.500236
H1    H     H_    0.822573 0.561651 0.752669 0.174702
H2    H     H_    0.979309 0.447261 0.223774 0.222311
C15   C     C_2   0.532621 0.934476 0.398685 -0.114433
C16   C     C_2   0.489884 0.865960 0.493580 -0.250150
H3    H     H_    0.570559 0.892191 0.317585 0.152028
H4    H     H_    0.445364 0.906238 0.568332 0.161669
C17   C     C_2   0.523884 0.068063 0.396940 -0.267053
C18   C     C_2   0.522896 0.132061 0.514446 0.288857
H5    H     H_    0.516187 0.113417 0.295596 0.143149
C19   C     C_2   0.427791 0.448432 0.912370 -0.183331
N1    N     N_2   0.498860 0.498660 0.846770 -0.319284
H6    H     H_    0.358929 0.413924 0.851197 0.205681
H7    H     H_    0.567344 0.522408 0.904126 0.189004
C20   C     C_2   0.437073 0.431053 0.069973 0.565266
N2    N     N_2   0.498840 0.498630 0.152900 -0.308165
H8    H     H_    0.540891 0.566727 0.109592 0.151423
O9    O     O_3   0.813453 0.422939 0.309562 -0.574054
C21   C     C_3   0.801660 0.294739 0.326378 0.091841
H9    H     H_    0.763636 0.270621 0.421121 0.131530
H10   H     H_    0.878088 0.249557 0.333863 0.142181
C22   C     C_3   0.734041 0.244854 0.200426 -0.777564
H11   H     H_    0.770463 0.264850 0.103865 0.247929
H12   H     H_    0.724069 0.144077 0.212415 0.192885
H13   H     H_    0.656920 0.287911 0.191176 0.251279
O10   O     O_3   0.560881 0.077572 0.642163 -0.557839
C23   C     C_3   0.493152 0.090852 0.745498 0.078856
H14   H     H_    0.410379 0.085652 0.701377 0.109733
H15   H     H_    0.508927 0.178532 0.800862 0.178872
C24   C     C_3   0.513535 0.989625 0.855664 -0.839172
H16   H     H_    0.593602 0.998400 0.908133 0.254264
H17   H     H_    0.458916 0.997035 0.935135 0.195742
H18   H     H_    0.503567 0.897974 0.807788 0.259542
O11   O     O_3   0.369623 0.351540 0.129312 -0.485863
C25   C     C_3   0.370874 0.233995 0.070387 0.068313
H19   H     H_    0.451196 0.199532 0.076220 0.101606
H20   H     H_    0.335668 0.234598 0.960003 0.127999
C26   C     C_3   0.307242 0.145186 0.150427 -0.733038
H21   H     H_    0.224095 0.167084 0.129074 0.269184
H22   H     H_    0.318533 0.049875 0.117277 0.185422
H23   H     H_    0.330616 0.151628 0.264268 0.237972
O12   O     O_3   0.026348 0.611875 0.800780 -0.508804
C27   C     C_3   0.968847 0.699331 0.865207 0.077979
H24   H     H_    0.917546 0.651448 0.933763 0.156867
H25   H     H_    0.922259 0.758851 0.787340 0.122086
C28   C     C_3   0.041367 0.782905 0.956339 -0.755661
H26   H     H_    0.089337 0.839091 0.890888 0.227633
H27   H     H_    0.995695 0.845669 0.013708 0.192933
H28   H     H_    0.091866 0.727836 0.033168 0.291757
N3    N     N_R   0.173462 0.478112 0.198296 0.175420
O13   O     O_R   0.142056 0.391295 0.112278 -0.350209
O14   O     O_R   0.222850 0.571807 0.151474 -0.356320
O15   O     O_3   0.192307 0.593659 0.690074 -0.497939
C29   C     C_3   0.216319 0.719281 0.671415 0.147692
H29   H     H_    0.144893 0.774663 0.663291 0.134328
H30   H     H_    0.255620 0.736440 0.576188 0.090339
C30   C     C_3   0.288877 0.762200 0.796396 -0.745598
H31   H     H_    0.363829 0.714976 0.800170 0.264835
H32   H     H_    0.302292 0.862657 0.787848 0.170182
H33   H     H_    0.255275 0.741039 0.894705 0.279362

loop_
_geom_bond_atom_site_label_1
_geom_bond_atom_site_label_2
_geom_bond_distance
_ccdc_geom_bond_type
C27   H25   1.115987 S    
C15   H3    1.086603 S    
N3    O13   1.301235 A    
C9    C10   1.414262 A    
Cu1   Cu2   2.676755 S    
C29   H29   1.113093 S    
Cu1   O7    1.973072 S    
C7    H2    1.083799 S    
C9    O15   1.385274 S    
N1    H7    1.027704 S    
C28   H26   1.109557 S    
C30   H33   1.109328 S    
O4    C2    1.293189 A    
O7    C4    1.294151 A    
C22   H13   1.110795 S    
C27   C28   1.520339 S    
C25   H20   1.110760 S    
C28   H27   1.110728 S    
C19   N1    1.291203 D    
O9    C21   1.413071 S    
C22   H12   1.110569 S    
C26   H22   1.110629 S    
O5    C3    1.290138 A    
C5    C12   1.401148 A    
C10   C14   1.423303 A    
C23   H15   1.109295 S    
C13   C14   1.408308 A    
C17   H5    1.083082 S    
C3    C16   1.438553 S    
Cu2   N2    2.011103 S    
C24   H18   1.108864 S    
C25   C26   1.522929 S    
C5    C13   1.395248 A    
C27   H24   1.112160 S    
C19   C20   1.520885 S    
C11   C12   1.397059 A    
N3    O14   1.301292 A    
C26   H21   1.109662 S    
C21   H10   1.113659 S    
O3    Cu1   1.964078 S    
C23   H14   1.115342 S    
C24   H17   1.110374 S    
C23   C24   1.523830 S    
C15   C17   1.463323 S    
O15   C29   1.413906 S    
C30   H32   1.110181 S    
N2    H8    1.027645 S    
C25   H19   1.113961 S    
C22   H11   1.110613 S    
C7    C11   1.396260 A    
O1    C1    1.284124 A    
C21   C22   1.521667 S    
C26   H23   1.109418 S    
C20   O11   1.388669 S    
C17   C18   1.344471 D    
Cu2   O8    1.964078 S    
C7    C8    1.384531 A    
C29   H30   1.114509 S    
C6    C8    1.415865 A    
C14   O12   1.398287 S    
O3    C2    1.299800 A    
O8    C4    1.291867 A    
O10   C23   1.417507 S    
C8    N3    1.436275 S    
C21   H9    1.115000 S    
C28   H28   1.108482 S    
C29   C30   1.521582 S    
Cu1   O5    1.949887 S    
O1    Cu1   1.957645 S    
Cu1   N1    2.010824 S    
O2    Cu2   1.949887 S    
C30   H31   1.109131 S    
O6    C3    1.285800 A    
O4    Cu2   1.973072 S    
C24   H16   1.110783 S    
C16   H4    1.080574 S    
O2    C1    1.302742 A    
O11   C25   1.413647 S    
C20   N2    1.299415 D    
C6    C9    1.420273 A    
C19   H6    1.083091 S    
C13   H1    1.080973 S    
C1    C18   1.469136 S    
C18   O10   1.400243 S    
C2    C6    1.476241 S    
C12   O9    1.387228 S    
C10   C11   1.420821 A    
Cu2   O6    1.957645 S    
O12   C27   1.418544 S    
C15   C16   1.337071 D    
C4    C5    1.460916 S    
