data_mof_unit_16146.cif
_audit_creation_date              2012-12-10T17:31:58-0500
_audit_creation_method            fapswitch 2.2
_symmetry_space_group_name_H-M    P1
_symmetry_Int_Tables_number       1
_space_group_crystal_system       triclinic
_cell_length_a                    12.149535
_cell_length_b                    11.531719
_cell_length_c                    12.772415
_cell_angle_alpha                 91.899557
_cell_angle_beta                  94.229408
_cell_angle_gamma                 86.443554
_cell_volume                      1780.43544871

loop_
_atom_site_label
_atom_site_type_symbol
_atom_type_description
_atom_site_fract_x
_atom_site_fract_y
_atom_site_fract_z
_atom_type_partial_charge
Br1   Br    Br    0.742656 0.307138 0.318184 -0.444253
Br2   Br    Br    0.255917 0.704925 0.670499 -0.447896
C1    C     C_R   0.477382 0.507341 0.299815 0.880100
C2    C     C_R   0.975805 0.545395 0.531889 0.019384
C3    C     C_R   0.499776 0.282280 0.499567 0.979457
C4    C     C_R   0.500208 0.717717 0.500225 0.861312
C5    C     C_1   0.499517 0.161705 0.499605 -0.097055
C6    C     C_1   0.500452 0.838284 0.500115 -0.122621
C7    C     C_1   0.499730 0.059408 0.499747 0.045752
C8    C     C_1   0.500212 0.940584 0.499961 0.044600
C9    C     C_R   0.537052 0.509642 0.811571 -0.045065
C10   C     C_R   0.460425 0.521106 0.187707 -0.135402
C11   C     C_R   0.361945 0.458384 0.027479 -0.065642
C12   C     C_R   0.522617 0.498371 0.699939 0.963765
C13   C     C_R   0.585587 0.639524 0.957245 0.021562
C14   C     C_R   0.369060 0.471589 0.135592 -0.214253
C15   C     C_R   0.591996 0.605320 0.852721 -0.274536
C16   C     C_R   0.535386 0.579526 0.132021 -0.085827
C17   C     C_R   0.471529 0.447201 0.872525 -0.049577
C18   C     C_R   0.523757 0.573696 0.021424 0.129024
C19   C     C_R   0.450688 0.492867 0.972560 0.043905
C20   C     C_2   0.439344 0.327262 0.839322 0.491714
C21   C     C_2   0.630710 0.634167 0.189820 0.547624
C22   C     C_2   0.257005 0.418359 0.975537 0.413126
C23   C     C_R   0.046705 0.624398 0.586407 -0.109472
C24   C     C_2   0.628723 0.753998 0.989010 0.485137
C25   C     C_2   0.812579 0.598972 0.640436 0.501595
C26   C     C_2   0.190610 0.339345 0.415878 0.522432
C27   C     C_2   0.002758 0.734306 0.636118 0.483701
C28   C     C_2   0.986931 0.342392 0.292675 0.469829
C29   C     C_R   0.949704 0.401484 0.390025 -0.167216
C30   C     C_R   0.162430 0.606966 0.582370 0.325060
C31   C     C_R   0.835716 0.406973 0.404846 0.360901
C32   C     C_R   0.140569 0.447532 0.461372 0.063087
C33   C     C_R   0.859787 0.544237 0.546415 0.056002
C34   C     C_R   0.022588 0.464083 0.460072 -0.085984
H1    H     H_    0.633784 0.658164 0.801112 0.146454
H2    H     H_    0.964481 0.254577 0.271811 0.101317
H3    H     H_    0.305424 0.438331 0.179343 0.223792
H4    H     H_    0.402278 0.273634 0.893583 0.075046
H5    H     H_    0.618086 0.687359 0.260133 0.067812
H6    H     H_    0.202135 0.371313 0.019787 0.115032
H7    H     H_    0.699032 0.783890 0.952005 0.091976
H8    H     H_    0.738722 0.656056 0.633335 0.097390
H9    H     H_    0.166899 0.256234 0.441507 0.019384
H10   H     H_    0.036488 0.763365 0.712823 0.130573
N1    N     N_R   0.792200 0.479100 0.480660 -0.167855
N2    N     N_R   0.207800 0.520900 0.519340 -0.140437
O1    O     O_R   0.578300 0.494420 0.341180 -0.594871
O2    O     O_2   0.724358 0.615896 0.161861 -0.532094
O3    O     O_2   0.228204 0.442194 0.884757 -0.523842
O4    O     O_2   0.582248 0.818905 0.051530 -0.565944
O5    O     O_2   0.855958 0.579152 0.727837 -0.574592
O6    O     O_2   0.252444 0.341328 0.345239 -0.548879
O7    O     O_2   0.930644 0.795474 0.589663 -0.569566
O8    O     O_2   0.039639 0.393663 0.232906 -0.514771
O9    O     O_R   0.421700 0.505580 0.658820 -0.552705
O10   O     O_R   0.390690 0.507830 0.353590 -0.568336
O11   O     O_R   0.609310 0.492170 0.646410 -0.646318
O12   O     O_R   0.593810 0.327740 0.493800 -0.578350
O13   O     O_R   0.406190 0.672260 0.506200 -0.573076
O14   O     O_R   0.406190 0.341150 0.506220 -0.593355
O15   O     O_R   0.593810 0.658850 0.493780 -0.660387
O16   O     O_2   0.458665 0.284089 0.753566 -0.589816
Zn1   Zn    Zn3+2 0.625270 0.491050 0.491710 1.002114
Zn2   Zn    Zn3+2 0.374730 0.508950 0.508290 1.060033

loop_
_geom_bond_atom_site_label_1
_geom_bond_atom_site_label_2
_ccdc_geom_bond_type
C4    O15   A    
C3    O14   A    
C25   O5    D    
C28   O8    D    
C24   O4    D    
C22   H6    S    
C7    C8    S    
C27   H10   S    
C32   C34   A    
C21   H5    S    
C20   H4    S    
O9    Zn2   S    
C21   O2    D    
C33   N1    A    
C23   C30   A    
O15   Zn1   S    
C2    C23   A    
C1    O1    A    
C2    C33   A    
Br1   C31   S    
C15   H1    S    
N1    Zn1   S    
O11   Zn1   S    
C12   O11   A    
C30   N2    A    
C9    C17   A    
C13   C18   A    
O1    Zn1   S    
C25   C33   S    
C22   O3    D    
C25   H8    S    
C4    O13   A    
Br2   C30   S    
C17   C19   A    
C2    C34   A    
C24   H7    S    
C16   C18   A    
C26   C32   S    
C23   C27   S    
C28   C29   S    
C31   N1    A    
C9    C12   S    
C26   H9    S    
C32   N2    A    
C29   C31   A    
O14   Zn2   S    
C14   H3    S    
C11   C19   A    
C16   C21   S    
C1    O10   A    
C5    C7    T    
C17   C20   S    
C18   C19   A    
C28   H2    S    
C6    C8    T    
C11   C14   A    
C10   C16   A    
C13   C15   A    
C12   O9    A    
C26   O6    D    
C3    C5    S    
C9    C15   A    
C13   C24   S    
C4    C6    S    
C1    C10   S    
C27   O7    D    
C3    O12   A    
N2    Zn2   S    
C29   C34   A    
C20   O16   D    
O13   Zn2   S    
O10   Zn2   S    
C10   C14   A    
C11   C22   S    
O12   Zn1   S    
