data_mof_unit_20678.cif
_audit_creation_date              2012-12-10T18:02:09-0500
_audit_creation_method            fapswitch 2.2
_symmetry_space_group_name_H-M    P1
_symmetry_Int_Tables_number       1
_space_group_crystal_system       triclinic
_cell_length_a                    10.927039
_cell_length_b                    9.640394
_cell_length_c                    23.497204
_cell_angle_alpha                 90.000061
_cell_angle_beta                  92.400809
_cell_angle_gamma                 90.000015
_cell_volume                      2473.04540463

loop_
_atom_site_label
_atom_site_type_symbol
_atom_type_description
_atom_site_fract_x
_atom_site_fract_y
_atom_site_fract_z
_atom_type_partial_charge
C1    C     C_R   0.262338 0.499987 0.500337 0.834045
C2    C     C_R   0.737661 0.499987 0.499663 0.834045
C3    C     C_R   0.586533 0.596249 0.244191 -0.098716
C4    C     C_R   0.413466 0.596247 0.755809 -0.098716
C5    C     C_R   0.586366 0.584057 0.303095 -0.265123
C6    C     C_R   0.413633 0.584056 0.696904 -0.265123
C7    C     C_R   0.496759 0.504862 0.328743 -0.096665
C8    C     C_R   0.503241 0.504862 0.671257 -0.096665
C9    C     C_R   0.404901 0.439384 0.294574 0.220978
C10   C     C_R   0.595100 0.439386 0.705426 0.220979
C11   C     C_R   0.414072 0.436136 0.234836 -0.022404
C12   C     C_R   0.585929 0.436139 0.765164 -0.022405
C13   C     C_R   0.502485 0.521673 0.209286 0.276751
C14   C     C_R   0.497515 0.521673 0.790714 0.276749
C15   C     C_R   0.063604 0.374273 0.500630 -0.094968
C16   C     C_R   0.936401 0.625555 0.499337 -0.116997
C17   C     C_R   0.936396 0.374273 0.499369 -0.094965
C18   C     C_R   0.063599 0.625555 0.500664 -0.116994
C19   C     C_R   0.871717 0.499931 0.499292 -0.048889
C20   C     C_R   0.128283 0.499931 0.500708 -0.048889
C21   C     C_R   0.424669 0.073662 0.462977 0.008998
C22   C     C_R   0.575947 0.925589 0.536944 0.029447
C23   C     C_R   0.575331 0.073663 0.537023 0.009000
C24   C     C_R   0.424053 0.925588 0.463056 0.029448
C25   C     C_R   0.497008 0.500638 0.391204 0.858045
C26   C     C_R   0.502992 0.500638 0.608796 0.858046
C27   C     C_R   0.601917 0.581553 0.880917 0.602206
C28   C     C_R   0.398081 0.581550 0.119083 0.602209
C29   C     C_R   0.390812 0.521904 0.879570 0.629486
C30   C     C_R   0.609187 0.521907 0.120430 0.629485
C31   C     C_R   0.386903 0.549359 0.938535 -0.099506
C32   C     C_R   0.613097 0.549362 0.061465 -0.099508
C33   C     C_R   0.499171 0.562450 0.969928 -0.044579
C34   C     C_R   0.500828 0.562450 0.030072 -0.044580
C35   C     C_R   0.609467 0.576112 0.941198 -0.093363
C36   C     C_R   0.390532 0.576110 0.058802 -0.093361
C37   C     C_R   0.276164 0.564277 0.966970 0.394759
C38   C     C_R   0.723835 0.564283 0.033029 0.394761
C39   C     C_R   0.278409 0.585793 0.026379 -0.147834
C40   C     C_R   0.721590 0.585798 0.973621 -0.147832
Cu1   Cu    Cu3+1 0.500000 0.640660 0.500000 0.980053
Cu2   Cu    Cu3+1 0.500000 0.359340 0.500000 1.005059
H1    H     H_    0.653001 0.663934 0.225513 0.187688
H2    H     H_    0.346996 0.663931 0.774487 0.187688
H3    H     H_    0.654744 0.639577 0.328907 0.175605
H4    H     H_    0.345254 0.639574 0.671093 0.175605
H5    H     H_    0.110872 0.275733 0.501736 0.207689
H6    H     H_    0.889123 0.724061 0.498157 0.210619
H7    H     H_    0.889127 0.275733 0.498262 0.207689
H8    H     H_    0.110877 0.724061 0.501845 0.210619
N1    N     N_R   0.496954 0.540918 0.851795 -0.441188
N2    N     N_R   0.503045 0.540918 0.148205 -0.441188
N3    N     N_R   0.500000 0.852070 0.500000 -0.230528
N4    N     N_R   0.500000 0.147930 0.500000 -0.232681
O1    O     O_R   0.319640 0.618740 0.500000 -0.576416
O2    O     O_R   0.680360 0.381260 0.500000 -0.562093
O3    O     O_R   0.680360 0.618740 0.500000 -0.576419
O4    O     O_R   0.319640 0.381260 0.500000 -0.562095
O5    O     O_R   0.499960 0.618810 0.417880 -0.613147
O6    O     O_R   0.500040 0.381190 0.582120 -0.589067
O7    O     O_R   0.500040 0.618810 0.582120 -0.613149
O8    O     O_R   0.499960 0.381190 0.417880 -0.589067
O9    O     O_2   0.697724 0.624984 0.851261 -0.538015
O10   O     O_2   0.302273 0.624977 0.148739 -0.538013
O11   O     O_2   0.291224 0.473223 0.850248 -0.447831
O12   O     O_2   0.708777 0.473228 0.149752 -0.447831
Cl1   Cl    Cl    0.133012 0.564574 0.928910 -0.485318
Cl2   Cl    Cl    0.866986 0.564584 0.071090 -0.485312
C41   C     C_2   0.162018 0.613684 0.053781 0.639160
H9    H     H_    0.128980 0.542152 0.085293 0.127281
O13   O     O_2   0.104615 0.719380 0.042356 -0.403438
C42   C     C_2   0.837981 0.613689 0.946218 0.639156
H10   H     H_    0.871016 0.542159 0.914705 0.127281
O14   O     O_2   0.895387 0.719383 0.957645 -0.403438
Cl3   Cl    Cl    0.269935 0.380907 0.325657 -0.608738
Cl4   Cl    Cl    0.730066 0.380909 0.674342 -0.608739
C43   C     C_2   0.333444 0.340998 0.200284 0.464021
H11   H     H_    0.246846 0.305972 0.215960 0.149795
O15   O     O_2   0.365121 0.295727 0.154657 -0.525321
C44   C     C_2   0.666561 0.341004 0.799716 0.464021
H12   H     H_    0.753160 0.305983 0.784040 0.149796
O16   O     O_2   0.634884 0.295730 0.845343 -0.525320
C45   C     C_2   0.349091 0.145671 0.419473 0.523460
H13   H     H_    0.389370 0.172500 0.379674 0.087798
O17   O     O_2   0.240082 0.163933 0.425810 -0.487384
C46   C     C_2   0.657311 0.852202 0.578623 0.456284
H14   H     H_    0.620773 0.808032 0.616706 0.081975
O18   O     O_2   0.767654 0.850092 0.572751 -0.520053
C47   C     C_2   0.650909 0.145672 0.580527 0.523468
H15   H     H_    0.610630 0.172497 0.620327 0.087795
O19   O     O_2   0.759917 0.163937 0.574189 -0.487382
C48   C     C_2   0.342690 0.852201 0.421376 0.456293
H16   H     H_    0.379229 0.808035 0.383293 0.081969
O20   O     O_2   0.232347 0.850087 0.427249 -0.520050

loop_
_geom_bond_atom_site_label_1
_geom_bond_atom_site_label_2
_ccdc_geom_bond_type
C30   C32   A    
C8    C10   A    
C8    C26   S    
Cu1   Cu2   S    
Cu1   O7    S    
C16   H6    S    
C2    O3    A    
C43   H11   S    
C3    H1    S    
C26   O7    A    
C21   N4    A    
C33   C35   A    
C46   O18   D    
C37   Cl1   S    
C15   C17   A    
C41   O13   D    
Cu1   O1    S    
C11   C43   S    
Cu2   O2    S    
C10   Cl4   S    
C45   H13   S    
C23   C47   S    
C32   C38   A    
C47   O19   D    
C40   C42   S    
Cu2   O8    S    
C34   C36   A    
C3    C13   A    
Cu2   O4    S    
C24   C48   S    
C48   O20   D    
C27   N1    A    
C22   N3    A    
C43   O15   D    
C15   C20   A    
C37   C39   A    
C21   C45   S    
Cu1   O5    S    
C42   O14   D    
C17   H7    S    
C5    C7    A    
C46   H14   S    
C42   H10   S    
C6    C8    A    
C4    H2    S    
C27   C35   A    
C24   N3    A    
C5    H3    S    
C31   C37   A    
C32   C34   A    
C13   N2    S    
C14   N1    S    
C31   C33   A    
C33   C34   A    
C39   C41   S    
C9    C11   A    
Cu1   N3    S    
C30   O12   S    
C10   C12   A    
C29   O11   S    
C28   O10   S    
C4    C6    A    
C45   O17   D    
C38   Cl2   S    
Cu2   O6    S    
C18   H8    S    
C23   N4    A    
C29   N1    A    
C7    C9    A    
C30   N2    A    
C1    C20   S    
C6    H4    S    
C2    C19   S    
C36   C39   A    
C12   C14   A    
C44   H12   S    
C3    C5    A    
C28   N2    A    
C9    Cl3   S    
C7    C25   S    
C35   C40   A    
C1    O1    A    
Cu1   O3    S    
C29   C31   A    
C2    O2    A    
C1    O4    A    
Cu2   N4    S    
C38   C40   A    
C11   C13   A    
C16   C19   A    
C12   C44   S    
C48   H16   S    
C17   C19   A    
C44   O16   D    
C18   C20   A    
C25   O8    A    
C22   C46   S    
C4    C14   A    
C41   H9    S    
C28   C36   A    
C16   C18   A    
C21   C24   A    
C22   C23   A    
C27   O9    S    
C15   H5    S    
C25   O5    A    
C47   H15   S    
C26   O6    A    
