data_mof_unit_14576.cif
_audit_creation_date              2012-10-26T20:37:59-0400
_audit_creation_method            fapswitch 2.2
_symmetry_space_group_name_H-M    P1
_symmetry_Int_Tables_number       1
_space_group_crystal_system       triclinic
_cell_length_a                    9.846471
_cell_length_b                    11.052011
_cell_length_c                    12.986023
_cell_angle_alpha                 89.766386
_cell_angle_beta                  75.841082
_cell_angle_gamma                 111.182446
_cell_volume                      1270.96972931

loop_
_atom_site_label
_atom_site_type_symbol
_atom_type_description
_atom_site_fract_x
_atom_site_fract_y
_atom_site_fract_z
_atom_type_partial_charge
C1    C     C_R   0.439586 0.254350 0.505445 0.541302
C2    C     C_R   0.687054 0.499930 0.004618 -0.144682
C3    C     C_R   0.326148 0.498586 0.886554 -0.143634
C4    C     C_R   0.673852 0.501414 0.113446 -0.143636
C5    C     C_R   0.579596 0.498218 0.856150 -0.133629
C6    C     C_R   0.420404 0.501782 0.143850 -0.133628
C7    C     C_R   0.567193 0.499539 0.964924 0.048409
C8    C     C_R   0.432807 0.500461 0.035076 0.048409
C9    C     C_2   0.404154 0.115503 0.519887 -0.118263
C10   C     C_2   0.595846 0.884496 0.480108 -0.118259
C11   C     C_2   0.503207 0.061592 0.473194 -0.008152
C12   C     C_R   0.560414 0.745650 0.494553 0.541303
C13   C     C_2   0.496798 0.938409 0.526799 -0.008153
C14   C     C_3   0.388988 0.879797 0.637641 -0.235564
C15   C     C_3   0.438756 0.965248 0.724992 -0.309431
C16   C     C_3   0.332768 0.906090 0.835128 -0.457554
C17   C     C_3   0.611024 0.120209 0.362354 -0.235567
C18   C     C_3   0.561248 0.034772 0.274996 -0.309444
C19   C     C_3   0.667218 0.093948 0.164858 -0.457544
C20   C     C_2   0.082990 0.511414 0.491347 -0.029017
C21   C     C_2   0.917010 0.488587 0.508653 -0.029016
C22   C     C_R   0.473756 0.496871 0.702629 0.544788
C23   C     C_R   0.526243 0.503129 0.297371 0.544788
C24   C     C_R   0.540567 0.502360 0.183304 -0.001489
C25   C     C_R   0.459433 0.497640 0.816696 -0.001491
C26   C     C_R   0.312946 0.500070 0.995382 -0.144682
Cu1   Cu    Cu3+1 0.647370 0.522180 0.481340 0.918952
Cu2   Cu    Cu3+1 0.352630 0.477820 0.518660 0.918954
H1    H     H_    0.317460 0.502876 0.197514 0.116849
H2    H     H_    0.165227 0.586764 0.429887 0.146546
H3    H     H_    0.949549 0.627048 0.396007 0.199168
H4    H     H_    0.050451 0.372952 0.603992 0.199170
H5    H     H_    0.216110 0.897621 0.837514 0.153279
H6    H     H_    0.332400 0.807951 0.854614 0.154606
H7    H     H_    0.371470 0.969774 0.896416 0.146525
H8    H     H_    0.554737 0.973799 0.725203 0.164345
H9    H     H_    0.441392 0.065063 0.710186 0.165304
H10   H     H_    0.271083 0.864159 0.637725 0.136282
H11   H     H_    0.386326 0.782407 0.661356 0.173607
H12   H     H_    0.682540 0.497124 0.802486 0.116849
H13   H     H_    0.667619 0.192107 0.145390 0.154600
H14   H     H_    0.783873 0.102383 0.162458 0.153283
H15   H     H_    0.628474 0.030291 0.103565 0.146526
H16   H     H_    0.558621 0.934964 0.289788 0.165306
H17   H     H_    0.445266 0.026218 0.274796 0.164351
H18   H     H_    0.613699 0.217606 0.338648 0.173618
H19   H     H_    0.728928 0.135837 0.362268 0.136273
H20   H     H_    0.767588 0.501031 0.142866 0.127116
H21   H     H_    0.232412 0.498968 0.857134 0.127118
H22   H     H_    0.209499 0.501005 0.048284 0.099000
H23   H     H_    0.790501 0.498994 0.951716 0.099000
H24   H     H_    0.695158 0.937123 0.416222 0.089238
H25   H     H_    0.304842 0.062874 0.583775 0.089239
H26   H     H_    0.834772 0.413237 0.570115 0.146545
N1    N     N_2   0.131210 0.444490 0.546730 -0.353806
N2    N     N_2   0.868790 0.555510 0.453270 -0.353804
O1    O     O_R   0.578710 0.332530 0.490040 -0.499588
O2    O     O_R   0.421290 0.667470 0.509960 -0.499585
O3    O     O_R   0.329810 0.295070 0.521560 -0.487065
O4    O     O_R   0.670190 0.704930 0.478440 -0.487066
O5    O     O_R   0.604230 0.515670 0.637800 -0.500230
O6    O     O_R   0.395770 0.484330 0.362200 -0.500230
O7    O     O_R   0.355330 0.478200 0.669330 -0.503219
O8    O     O_R   0.644670 0.521800 0.330670 -0.503220

loop_
_geom_bond_atom_site_label_1
_geom_bond_atom_site_label_2
_ccdc_geom_bond_type
C21   N2    D    
C2    C4    A    
C23   C24   S    
C18   H17   S    
Cu2   O6    S    
C6    C24   A    
C18   H16   S    
C16   H5    S    
C14   H10   S    
C3    C26   A    
C11   C13   S    
H4    N1    S    
C2    C7    A    
C19   H14   S    
C10   H24   S    
C1    O3    A    
C17   C18   S    
C3    H21   S    
C12   O2    A    
C7    C8    A    
C20   H2    S    
C13   C14   S    
C17   H18   S    
C22   O5    A    
C9    C11   D    
C10   C12   S    
C20   N1    D    
C5    C25   A    
C23   O8    A    
Cu2   N1    S    
C19   H15   S    
H3    N2    S    
Cu2   O2    S    
Cu1   O4    S    
C26   H22   S    
C16   H7    S    
Cu1   O1    S    
C21   H26   S    
C4    C24   A    
Cu2   O3    S    
C9    H25   S    
C2    H23   S    
C8    C26   A    
C15   C16   S    
C12   O4    A    
Cu2   O7    S    
C17   H19   S    
C15   H8    S    
C3    C25   A    
C6    H1    S    
C1    C9    S    
C20   C21   S    
C18   C19   S    
C4    H20   S    
C5    H12   S    
Cu1   Cu2   S    
C5    C7    A    
C14   C15   S    
C11   C17   S    
C6    C8    A    
Cu1   O5    S    
C16   H6    S    
C22   O7    A    
Cu1   N2    S    
Cu1   O8    S    
C10   C13   D    
C23   O6    A    
C15   H9    S    
C19   H13   S    
C14   H11   S    
C22   C25   S    
C1    O1    A    
