data_mof_unit_6061.cif
_audit_creation_date              2012-12-10T16:32:39-0500
_audit_creation_method            fapswitch 2.2
_symmetry_space_group_name_H-M    P1
_symmetry_Int_Tables_number       1
_space_group_crystal_system       triclinic
_cell_length_a                    16.956181
_cell_length_b                    16.95618
_cell_length_c                    16.956177
_cell_angle_alpha                 64.5289
_cell_angle_beta                  64.528893
_cell_angle_gamma                 64.528879
_cell_volume                      3789.53372454

loop_
_atom_site_label
_atom_site_type_symbol
_atom_type_description
_atom_site_fract_x
_atom_site_fract_y
_atom_site_fract_z
_atom_type_partial_charge
C1    C     C_R   0.585878 0.030465 0.599847 -0.153062
C2    C     C_R   0.821364 0.560402 0.042210 0.890835
C3    C     C_R   0.430994 0.976174 0.177165 0.951021
C4    C     C_R   0.560402 0.042210 0.821364 0.890835
C5    C     C_R   0.569005 0.822835 0.023827 0.951019
C6    C     C_R   0.439598 0.178636 0.957790 0.890833
C7    C     C_R   0.023827 0.569005 0.822835 0.951018
C8    C     C_R   0.957790 0.439598 0.178636 0.890832
C9    C     C_R   0.822835 0.023827 0.569005 0.951018
C10   C     C_R   0.178636 0.957790 0.439598 0.890833
C11   C     C_R   0.536651 0.015418 0.553222 0.154761
C12   C     C_R   0.400150 0.969543 0.414120 -0.153063
C13   C     C_R   0.446774 0.984594 0.463344 0.154761
C14   C     C_R   0.015418 0.553222 0.536651 0.154761
C15   C     C_R   0.984594 0.463344 0.446774 0.154761
C16   C     C_R   0.553222 0.536651 0.015418 0.154761
C17   C     C_R   0.463345 0.446774 0.984594 0.154761
C18   C     C_R   0.578238 0.011094 0.462501 -0.161387
C19   C     C_R   0.402293 0.995860 0.551510 -0.173491
C20   C     C_R   0.011094 0.462501 0.578238 -0.161387
C21   C     C_R   0.995860 0.551510 0.402293 -0.173491
C22   C     C_R   0.462501 0.578238 0.011094 -0.161387
C23   C     C_R   0.030466 0.599847 0.585877 -0.153062
C24   C     C_R   0.551510 0.402293 0.995860 -0.173491
C25   C     C_R   0.537494 0.988920 0.421757 -0.161386
C26   C     C_R   0.448486 0.004152 0.597703 -0.173489
C27   C     C_R   0.421757 0.537494 0.988920 -0.161386
C28   C     C_R   0.597703 0.448485 0.004152 -0.173489
C29   C     C_R   0.988920 0.421756 0.537494 -0.161386
C30   C     C_R   0.004152 0.597703 0.448485 -0.173489
C31   C     C_R   0.538869 0.067816 0.674343 0.468280
C32   C     C_R   0.427714 0.995016 0.316883 0.431062
C33   C     C_R   0.067815 0.674343 0.538869 0.468280
C34   C     C_R   0.969543 0.414119 0.400150 -0.153063
C35   C     C_R   0.995016 0.316883 0.427714 0.431063
C36   C     C_R   0.674343 0.538869 0.067816 0.468280
C37   C     C_R   0.316883 0.427714 0.995016 0.431063
C38   C     C_R   0.325656 0.932190 0.461129 0.468282
C39   C     C_R   0.683114 0.004991 0.572283 0.431063
C40   C     C_R   0.461129 0.325655 0.932190 0.468282
C41   C     C_R   0.572283 0.683114 0.004991 0.431064
C42   C     C_R   0.932190 0.461129 0.325656 0.468282
C43   C     C_R   0.004991 0.572283 0.683114 0.431063
C44   C     C_R   0.590646 0.066189 0.722680 -0.181155
C45   C     C_R   0.599847 0.585877 0.030465 -0.153062
C46   C     C_R   0.393975 0.966326 0.273370 -0.162632
C47   C     C_R   0.066189 0.722680 0.590646 -0.181155
C48   C     C_R   0.966326 0.273370 0.393975 -0.162632
C49   C     C_R   0.722680 0.590646 0.066189 -0.181155
C50   C     C_R   0.273370 0.393975 0.966326 -0.162631
C51   C     C_R   0.277320 0.933813 0.409354 -0.181155
C52   C     C_R   0.726629 0.033677 0.606024 -0.162633
C53   C     C_R   0.409354 0.277320 0.933813 -0.181155
C54   C     C_R   0.606024 0.726629 0.033677 -0.162633
C55   C     C_R   0.933813 0.409354 0.277320 -0.181155
C56   C     C_R   0.414120 0.400150 0.969543 -0.153063
C57   C     C_R   0.033677 0.606024 0.726629 -0.162633
C58   C     C_R   0.679463 0.065525 0.680262 -0.423290
C59   C     C_R   0.319738 0.934476 0.320537 -0.423292
C60   C     C_R   0.065525 0.680262 0.679463 -0.423291
C61   C     C_R   0.934476 0.320537 0.319738 -0.423292
C62   C     C_R   0.680262 0.679463 0.065525 -0.423291
C63   C     C_R   0.320537 0.319738 0.934476 -0.423292
C64   C     C_3   0.414412 0.192282 0.694815 -0.293453
C65   C     C_3   0.428124 0.142762 0.246810 -0.295484
C66   C     C_3   0.192282 0.694815 0.414412 -0.293454
C67   C     C_R   0.976174 0.177165 0.430994 0.951021
C68   C     C_3   0.142763 0.246809 0.428123 -0.295483
C69   C     C_3   0.694815 0.414412 0.192282 -0.293453
C70   C     C_3   0.246810 0.428124 0.142762 -0.295484
C71   C     C_3   0.305187 0.807724 0.585587 -0.293454
C72   C     C_3   0.753185 0.857246 0.571868 -0.295482
C73   C     C_3   0.585587 0.305187 0.807724 -0.293453
C74   C     C_3   0.571868 0.753184 0.857246 -0.295483
C75   C     C_3   0.807724 0.585587 0.305187 -0.293453
C76   C     C_3   0.857246 0.571868 0.753184 -0.295480
C77   C     C_R   0.042210 0.821364 0.560402 0.890836
C78   C     C_R   0.177165 0.430994 0.976174 0.951021
H1    H     H_    0.413435 0.001114 0.668611 0.205847
H2    H     H_    0.421531 0.643216 0.024122 0.197063
H3    H     H_    0.998897 0.586561 0.331385 0.205847
H4    H     H_    0.024122 0.421531 0.643216 0.197063
H5    H     H_    0.714836 0.077480 0.712389 0.220880
H6    H     H_    0.287613 0.922518 0.285164 0.220879
H7    H     H_    0.077480 0.712389 0.714836 0.220881
H8    H     H_    0.922518 0.285164 0.287613 0.220880
H9    H     H_    0.712389 0.714836 0.077480 0.220881
H10   H     H_    0.285164 0.287613 0.922518 0.220879
H11   H     H_    0.444021 0.232199 0.623390 0.148555
H12   H     H_    0.578464 0.975894 0.356779 0.197064
H13   H     H_    0.430782 0.205190 0.744227 0.146119
H14   H     H_    0.338854 0.217536 0.709995 0.191513
H15   H     H_    0.382764 0.157133 0.207345 0.148220
H16   H     H_    0.386605 0.160979 0.311681 0.146334
H17   H     H_    0.472942 0.187678 0.204708 0.195825
H18   H     H_    0.232199 0.623389 0.444021 0.148555
H19   H     H_    0.205190 0.744226 0.430783 0.146119
H20   H     H_    0.217536 0.709995 0.338854 0.191513
H21   H     H_    0.157133 0.207344 0.382764 0.148220
H22   H     H_    0.160979 0.311681 0.386604 0.146334
H23   H     H_    0.001114 0.668611 0.413435 0.205848
H24   H     H_    0.187678 0.204708 0.472942 0.195825
H25   H     H_    0.623390 0.444021 0.232199 0.148555
H26   H     H_    0.744227 0.430783 0.205190 0.146119
H27   H     H_    0.709995 0.338854 0.217535 0.191513
H28   H     H_    0.207345 0.382764 0.157133 0.148220
H29   H     H_    0.311681 0.386605 0.160979 0.146334
H30   H     H_    0.204708 0.472942 0.187678 0.195825
H31   H     H_    0.376613 0.767807 0.555978 0.148555
H32   H     H_    0.255776 0.794813 0.569218 0.146120
H33   H     H_    0.290008 0.782471 0.661145 0.191513
H34   H     H_    0.975894 0.356779 0.578464 0.197064
H35   H     H_    0.792650 0.842872 0.617229 0.148220
H36   H     H_    0.688313 0.839030 0.613386 0.146336
H37   H     H_    0.795285 0.812332 0.527048 0.195825
H38   H     H_    0.555978 0.376613 0.767807 0.148554
H39   H     H_    0.569218 0.255776 0.794813 0.146120
H40   H     H_    0.661145 0.290008 0.782471 0.191513
H41   H     H_    0.617229 0.792650 0.842871 0.148220
H42   H     H_    0.613385 0.688312 0.839031 0.146336
H43   H     H_    0.527048 0.795284 0.812332 0.195825
H44   H     H_    0.767807 0.555978 0.376613 0.148554
H45   H     H_    0.668611 0.413435 0.001114 0.205848
H46   H     H_    0.794813 0.569218 0.255775 0.146120
H47   H     H_    0.782471 0.661145 0.290008 0.191513
H48   H     H_    0.839031 0.613385 0.688312 0.146335
H49   H     H_    0.842872 0.617229 0.792650 0.148220
H50   H     H_    0.812332 0.527048 0.795284 0.195824
H51   H     H_    0.356779 0.578464 0.975894 0.197064
H52   H     H_    0.331385 0.998896 0.586561 0.205847
H53   H     H_    0.643216 0.024121 0.421531 0.197063
H54   H     H_    0.586561 0.331385 0.998897 0.205847
O1    O     O_R   0.982940 0.138950 0.510160 -0.577155
O2    O     O_R   0.982940 0.510160 0.138950 -0.580779
O3    O     O_R   0.861050 0.017060 0.489840 -0.577153
O4    O     O_R   0.138950 0.982940 0.510160 -0.580778
O5    O     O_R   0.867700 0.025880 0.612340 -0.643250
O6    O     O_R   0.132300 0.974120 0.387660 -0.638865
O7    O     O_R   0.025880 0.612340 0.867700 -0.643250
O8    O     O_R   0.974120 0.387660 0.132300 -0.638865
O9    O     O_R   0.612340 0.867700 0.025880 -0.643250
O10   O     O_R   0.387660 0.132300 0.974120 -0.638866
O11   O     O_R   0.387660 0.974120 0.132300 -0.643250
O12   O     O_R   0.017060 0.861050 0.489840 -0.580779
O13   O     O_R   0.612340 0.025880 0.867700 -0.638866
O14   O     O_R   0.132300 0.387660 0.974120 -0.643250
O15   O     O_R   0.867700 0.612340 0.025880 -0.638866
O16   O     O_R   0.974120 0.132300 0.387660 -0.643250
O17   O     O_R   0.025880 0.867700 0.612340 -0.638866
O18   O     O_3   0.444129 0.097894 0.704773 -0.609756
O19   O     O_3   0.483867 0.050726 0.263810 -0.599526
O20   O     O_3   0.097894 0.704773 0.444129 -0.609755
O21   O     O_3   0.050726 0.263810 0.483867 -0.599526
O22   O     O_3   0.704773 0.444129 0.097894 -0.609755
O23   O     O_R   0.138950 0.510160 0.982940 -0.577155
O24   O     O_3   0.263810 0.483867 0.050726 -0.599526
O25   O     O_3   0.295227 0.902112 0.555869 -0.609754
O26   O     O_3   0.736186 0.949283 0.516127 -0.599526
O27   O     O_3   0.555869 0.295227 0.902112 -0.609755
O28   O     O_3   0.516127 0.736186 0.949283 -0.599526
O29   O     O_3   0.902112 0.555869 0.295227 -0.609755
O30   O     O_3   0.949283 0.516127 0.736186 -0.599526
O31   O     O_R   0.861050 0.489840 0.017060 -0.580779
O32   O     O_R   0.510160 0.982940 0.138950 -0.577155
O33   O     O_R   0.489840 0.017060 0.861050 -0.580780
O34   O     O_R   0.489840 0.861050 0.017060 -0.577154
O35   O     O_R   0.510160 0.138950 0.982940 -0.580779
O36   O     O_R   0.017060 0.489840 0.861050 -0.577153
Zn1   Zn    Zn3+2 0.004880 0.004880 0.583590 0.996968
Zn2   Zn    Zn3+2 0.995120 0.995120 0.416410 0.996968
Zn3   Zn    Zn3+2 0.004880 0.583590 0.004880 0.996968
Zn4   Zn    Zn3+2 0.995120 0.416410 0.995120 0.996968
Zn5   Zn    Zn3+2 0.583590 0.004880 0.004880 0.996967
Zn6   Zn    Zn3+2 0.416410 0.995120 0.995120 0.996968

loop_
_geom_bond_atom_site_label_1
_geom_bond_atom_site_label_2
_ccdc_geom_bond_type
C8    O8    A    
C16   C28   A    
C7    O36   A    
C11   C18   A    
C20   H4    S    
C63   H10   S    
O6    Zn2   S    
C75   H44   S    
C76   H48   S    
C29   H34   S    
C76   O30   S    
C34   C42   A    
C42   O29   S    
C36   O22   S    
O10   Zn6   S    
C74   H41   S    
C9    C52   S    
C72   H37   S    
C25   H12   S    
C73   H38   S    
C70   O24   S    
C66   H19   S    
C67   O1    A    
C68   H24   S    
O14   Zn4   S    
C70   H29   S    
C46   C59   A    
C78   O23   A    
C10   C51   S    
C71   H32   S    
O12   Zn2   S    
C1    C31   A    
C72   H36   S    
C72   O26   S    
C4    O33   A    
C34   C35   A    
O3    Zn2   S    
C19   C26   A    
O1    Zn1   S    
C40   O27   S    
C47   C60   A    
C37   C56   A    
C9    O5    A    
C44   C58   A    
C40   C56   A    
C71   H33   S    
O16   Zn2   S    
O7    Zn3   S    
C49   C62   A    
C6    O10   A    
C15   C34   S    
O5    Zn1   S    
O35   Zn5   S    
C64   H14   S    
C19   H52   S    
C65   H15   S    
C39   C52   A    
O8    Zn4   S    
C12   C32   A    
O9    Zn5   S    
C50   C63   A    
C37   O24   S    
C13   C25   A    
C18   H53   S    
C18   C25   A    
C64   H11   S    
C14   C30   A    
C35   C48   A    
C50   C78   S    
C8    C55   S    
O15   Zn3   S    
C15   C29   A    
C20   C29   A    
C69   H25   S    
C71   O25   S    
O34   Zn6   S    
C17   C24   A    
C73   H39   S    
C31   C44   A    
C13   C19   A    
C65   H17   S    
C8    O2    A    
C75   H46   S    
C17   C27   A    
C14   C20   A    
C5    C54   S    
C36   C45   A    
C3    O11   A    
C59   H6    S    
C68   O21   S    
C70   H28   S    
C77   O17   A    
C31   O18   S    
C69   H27   S    
C57   C60   A    
C38   C51   A    
C4    C44   S    
C11   C26   A    
C23   C33   A    
O33   Zn6   S    
C72   H35   S    
C64   O18   S    
C75   H47   S    
C14   C23   S    
C65   O19   S    
C28   H45   S    
C68   H22   S    
C66   O20   S    
C2    C49   S    
C42   C55   A    
C41   O28   S    
C35   O21   S    
C24   H54   S    
C5    O9    A    
C15   C21   A    
C43   C57   A    
O32   Zn5   S    
C5    O34   A    
O4    Zn1   S    
O31   Zn4   S    
C17   C56   S    
C52   C58   A    
C3    O32   A    
C9    O3    A    
C65   H16   S    
C21   H3    S    
O2    Zn3   S    
C39   O26   S    
C22   C27   A    
C33   C47   A    
O17   Zn1   S    
C51   C59   A    
C47   C77   S    
C6    C53   S    
C55   C61   A    
C74   H42   S    
C66   H18   S    
C62   H9    S    
C69   H26   S    
C6    O35   A    
C16   C22   A    
C73   H40   S    
C23   C43   A    
C32   C46   A    
C24   C28   A    
C38   O25   S    
C10   O4    A    
C2    O15   A    
C33   O20   S    
C2    O31   A    
C60   H7    S    
C78   O14   A    
C54   C62   A    
C21   C30   A    
C73   O27   S    
C3    C46   S    
C26   H1    S    
O11   Zn6   S    
C74   O28   S    
C75   O29   S    
C66   H20   S    
O13   Zn5   S    
C77   O12   A    
C22   H2    S    
C70   H30   S    
C58   H5    S    
C7    O7    A    
C37   C50   A    
C53   C63   A    
C48   C61   A    
C32   O19   S    
C27   H51   S    
C4    O13   A    
C71   H31   S    
C30   H23   S    
C48   C67   S    
C12   C38   A    
C41   C54   A    
C68   H21   S    
C61   H8    S    
C1    C39   A    
C16   C45   S    
C43   O30   S    
O23   Zn3   S    
O36   Zn4   S    
C74   H43   S    
C12   C13   S    
C40   C53   A    
C67   O16   A    
C76   H49   S    
C41   C45   A    
C69   O22   S    
C1    C11   S    
C10   O6    A    
C64   H13   S    
C7    C57   S    
C36   C49   A    
C76   H50   S    
