data_mof_unit_67460.cif
_audit_creation_date              2012-12-10T16:46:02-0500
_audit_creation_method            fapswitch 2.2
_symmetry_space_group_name_H-M    P1
_symmetry_Int_Tables_number       1
_space_group_crystal_system       triclinic
_cell_length_a                    10.765057
_cell_length_b                    8.769956
_cell_length_c                    7.540196
_cell_angle_alpha                 103.366479
_cell_angle_beta                  95.686695
_cell_angle_gamma                 94.841413
_cell_volume                      684.92466766

loop_
_atom_site_label
_atom_site_type_symbol
_atom_type_description
_atom_site_fract_x
_atom_site_fract_y
_atom_site_fract_z
_atom_type_partial_charge
C1    C     C_R   0.496027 0.200305 0.453394 0.820143
C2    C     C_3   0.878306 0.501327 0.502501 -0.271222
C3    C     C_3   0.935597 0.643609 0.431692 -0.234904
C4    C     C_3   0.904928 0.344846 0.371213 0.329331
C5    C     C_2   0.477896 0.032532 0.431514 -0.274767
C6    C     C_2   0.525245 0.968024 0.568216 -0.316500
C7    C     C_R   0.259920 0.495042 0.499058 0.809736
C8    C     C_R   0.504907 0.799941 0.546692 0.866611
C9    C     C_R   0.739920 0.500496 0.500706 0.924292
C10   C     C_3   0.087769 0.514552 0.696976 -0.511162
C11   C     C_3   0.945169 0.505223 0.698171 0.466694
C12   C     C_3   0.078616 0.636797 0.427966 0.518565
C13   C     C_3   0.048779 0.333526 0.380732 -0.253910
C14   C     C_3   0.121691 0.493679 0.497406 -0.255283
Cu1   Cu    Cu3+1 0.514070 0.517380 0.684380 1.048283
Cu2   Cu    Cu3+1 0.485930 0.482620 0.315620 1.082151
H1    H     H_    0.132760 0.630142 0.784447 0.250802
H2    H     H_    0.892634 0.629125 0.287668 0.252034
H3    H     H_    0.400188 0.374412 0.948146 0.225707
H4    H     H_    0.124221 0.421233 0.759237 0.219159
H5    H     H_    0.912998 0.395141 0.737206 0.128207
H6    H     H_    0.132591 0.745818 0.518286 0.105272
H7    H     H_    0.069301 0.243435 0.458963 0.110854
H8    H     H_    0.859624 0.242659 0.414357 0.108290
N1    N     N_2   0.464720 0.456420 0.038520 -0.215050
N2    N     N_2   0.535280 0.543580 0.961480 -0.225297
O1    O     O_R   0.509140 0.286130 0.619770 -0.608667
O2    O     O_R   0.485380 0.256770 0.308360 -0.540077
O3    O     O_R   0.329570 0.514650 0.655700 -0.622688
O4    O     O_R   0.305810 0.485300 0.344290 -0.528885
O5    O     O_R   0.514620 0.743230 0.691640 -0.547453
O6    O     O_R   0.490860 0.713870 0.380230 -0.549687
O7    O     O_R   0.694190 0.514700 0.655710 -0.525040
O8    O     O_R   0.670430 0.485350 0.344300 -0.513693
F1    F     F_    0.851296 0.334591 0.192898 -0.607780
F2    F     F_    0.107059 0.631083 0.251577 -0.545354
C15   C     C_2   0.386282 0.944964 0.272106 0.932837
O9    O     O_2   0.290454 0.872561 0.297895 -0.514892
O10   O     O_R   0.408462 0.949242 0.093739 -0.706645
H9    H     H_    0.339766 0.884853 0.997224 0.330455
C16   C     C_2   0.617961 0.056329 0.726598 0.995081
O11   O     O_2   0.604173 0.045445 0.882360 -0.488070
O12   O     O_R   0.722200 0.148863 0.696340 -0.791383
H10   H     H_    0.779090 0.199700 0.814244 0.369117
C17   C     C_2   0.633161 0.669245 0.047290 1.159349
O13   O     O_2   0.686978 0.737714 0.948419 -0.466878
O14   O     O_R   0.671854 0.719854 0.233205 -0.771892
H11   H     H_    0.731413 0.820850 0.266182 0.320767
F3    F     F_    0.917526 0.629709 0.833124 -0.543545
C18   C     C_2   0.910068 0.806955 0.533825 0.823373
O15   O     O_2   0.839352 0.824646 0.652313 -0.487342
O16   O     O_R   0.965332 0.939100 0.485256 -0.735234
H12   H     H_    0.943188 0.041481 0.562956 0.328876
C19   C     C_2   0.089952 0.270106 0.193209 1.048844
O17   O     O_2   0.073979 0.339330 0.070919 -0.508213
O18   O     O_R   0.145406 0.129387 0.160186 -0.740613
H13   H     H_    0.168650 0.097854 0.030667 0.327292

loop_
_geom_bond_atom_site_label_1
_geom_bond_atom_site_label_2
_ccdc_geom_bond_type
Cu2   O2    S    
C1    O2    A    
C2    C4    S    
O12   H10   S    
Cu1   O5    S    
C15   O9    D    
C7    O3    A    
C5    C15   S    
C12   F2    S    
C16   O11   D    
Cu1   O1    S    
O14   H11   S    
Cu2   O8    S    
C2    C3    S    
C4    F1    S    
C15   O10   S    
C7    O4    A    
C17   O13   D    
O18   H13   S    
C9    O7    A    
C16   O12   S    
C5    C6    D    
C11   F3    S    
C2    C11   S    
Cu2   N1    S    
C3    C18   S    
C12   C14   S    
Cu1   O3    S    
C19   O18   S    
C17   O14   S    
C9    O8    A    
C4    H8    S    
C1    C5    S    
Cu2   O6    S    
C10   C11   S    
H3    N1    S    
Cu2   O4    S    
Cu1   Cu2   S    
C8    O6    A    
C12   H6    S    
O10   H9    S    
C2    C9    S    
O16   H12   S    
C13   H7    S    
C3    H2    S    
C13   C19   S    
C10   C14   S    
C18   O16   S    
C1    O1    A    
C19   O17   D    
Cu1   N2    S    
C6    C8    S    
C3    C12   S    
C10   H1    S    
N2    C17   S    
C18   O15   D    
N1    N2    D    
C13   C14   S    
C8    O5    A    
C11   H5    S    
C7    C14   S    
C4    C13   S    
C10   H4    S    
Cu1   O7    S    
C6    C16   S    
