data_mof_unit_33986.cif
_audit_creation_date              2012-12-10T21:28:11-0500
_audit_creation_method            fapswitch 2.2
_symmetry_space_group_name_H-M    P1
_symmetry_Int_Tables_number       1
_space_group_crystal_system       triclinic
_cell_length_a                    12.93259
_cell_length_b                    16.080312
_cell_length_c                    16.729269
_cell_angle_alpha                 89.332469
_cell_angle_beta                  91.088774
_cell_angle_gamma                 99.666323
_cell_volume                      3428.8806687

loop_
_atom_site_label
_atom_site_type_symbol
_atom_type_description
_atom_site_fract_x
_atom_site_fract_y
_atom_site_fract_z
_atom_type_partial_charge
C1    C     C_R   0.495106 0.489583 0.653230 0.923397
C2    C     C_R   0.504893 0.510415 0.346770 0.923370
C3    C     C_R   0.488067 0.564790 0.862410 -0.094839
C4    C     C_R   0.511962 0.435141 0.137620 -0.094897
C5    C     C_R   0.451095 0.488959 0.903388 0.148728
C6    C     C_R   0.549052 0.510938 0.096629 0.148723
C7    C     C_R   0.419744 0.413735 0.862136 0.567345
C8    C     C_R   0.580469 0.586162 0.137869 0.567238
C9    C     C_R   0.432380 0.410922 0.779523 -0.185778
C10   C     C_R   0.567780 0.589018 0.220477 -0.185715
C11   C     C_R   0.442142 0.753115 0.464825 0.556504
C12   C     C_R   0.557964 0.246890 0.535075 0.556306
C13   C     C_R   0.435600 0.839650 0.471170 -0.317630
C14   C     C_R   0.564455 0.160338 0.528745 -0.317418
C15   C     C_R   0.509501 0.891693 0.520877 -0.011390
C16   C     C_R   0.490356 0.108279 0.479198 -0.011384
C17   C     C_R   0.581362 0.853059 0.565948 0.428236
C18   C     C_R   0.418397 0.146907 0.434228 0.428183
C19   C     C_R   0.581505 0.766066 0.559982 0.535062
C20   C     C_R   0.418334 0.233913 0.440147 0.535112
C21   C     C_R   0.702501 0.516329 0.498804 0.956902
C22   C     C_R   0.297499 0.483671 0.501194 0.956937
C23   C     C_R   0.185504 0.474188 0.498431 -0.362492
C24   C     C_R   0.814497 0.525818 0.501563 -0.362467
C25   C     C_R   0.973091 0.581520 0.572462 0.563289
C26   C     C_R   0.026913 0.418494 0.427525 0.563272
C27   C     C_R   0.868125 0.580519 0.557995 0.563608
C28   C     C_R   0.131877 0.419489 0.441997 0.563767
C29   C     C_R   0.865703 0.473343 0.455222 -0.107944
C30   C     C_R   0.134303 0.526672 0.544764 -0.108039
C31   C     C_R   0.972799 0.472701 0.470077 -0.176698
C32   C     C_R   0.027205 0.527313 0.529911 -0.176702
C33   C     C_R   0.479182 0.485505 0.739291 -0.165585
C34   C     C_R   0.520845 0.514476 0.260711 -0.165475
C35   C     C_R   0.504925 0.561514 0.781156 -0.254898
C36   C     C_R   0.495030 0.438463 0.218858 -0.254886
H1    H     H_    0.463823 0.380388 0.249930 0.217579
H2    H     H_    0.536031 0.619613 0.750086 0.217641
N1    N     N_2   0.455394 0.485281 0.986950 -0.129504
N2    N     N_2   0.544770 0.514597 0.013063 -0.129375
N3    N     N_R   0.512890 0.717880 0.509760 -0.222542
N4    N     N_R   0.487110 0.282120 0.490240 -0.222486
N5    N     N_2   0.511339 0.980649 0.530808 -0.082928
N6    N     N_2   0.488469 0.019319 0.469278 -0.083092
O1    O     O_R   0.495390 0.422190 0.612650 -0.582501
O2    O     O_R   0.504610 0.577810 0.387350 -0.582311
O3    O     O_R   0.503660 0.562120 0.618910 -0.592916
O4    O     O_R   0.496340 0.437880 0.381090 -0.593067
O5    O     O_R   0.650190 0.441600 0.497400 -0.588289
O6    O     O_R   0.349810 0.558400 0.502600 -0.588500
O7    O     O_R   0.658460 0.581530 0.503670 -0.548575
O8    O     O_R   0.341540 0.418470 0.496330 -0.548425
Zn1   Zn    Zn3+2 0.494480 0.406570 0.495820 1.065823
Zn2   Zn    Zn3+2 0.505520 0.593430 0.504180 1.065838
C37   C     C_R   0.193579 0.579030 0.608863 0.233842
C38   C     C_R   0.204035 0.544510 0.685398 -0.153007
C39   C     C_R   0.259365 0.593569 0.745716 -0.110816
C40   C     C_R   0.305280 0.677046 0.729820 -0.087030
C41   C     C_R   0.294419 0.712081 0.653885 -0.154706
C42   C     C_R   0.237862 0.663600 0.593714 0.012312
H3    H     H_    0.168232 0.480150 0.698493 0.125851
H4    H     H_    0.266893 0.566769 0.804753 0.135357
H5    H     H_    0.348871 0.714647 0.776444 0.136477
H6    H     H_    0.329499 0.776841 0.641713 0.115799
H7    H     H_    0.228808 0.691490 0.535320 0.155550
C43   C     C_R   0.806437 0.421010 0.391103 0.233644
C44   C     C_R   0.762151 0.336434 0.406220 0.012579
C45   C     C_R   0.705603 0.287977 0.346030 -0.154690
C46   C     C_R   0.694760 0.323041 0.270105 -0.087151
C47   C     C_R   0.740688 0.406521 0.254238 -0.110743
C48   C     C_R   0.796013 0.455554 0.314575 -0.153099
H8    H     H_    0.771207 0.308519 0.464602 0.155762
H9    H     H_    0.670520 0.223211 0.358179 0.115810
H10   H     H_    0.651176 0.285459 0.223466 0.136434
H11   H     H_    0.733178 0.433344 0.195208 0.135335
H12   H     H_    0.831837 0.519914 0.301499 0.125934
F1    F     F_    0.650592 0.899718 0.616518 -0.616352
F2    F     F_    0.348997 0.100231 0.383791 -0.616441
F3    F     F_    0.649525 0.729553 0.605461 -0.556682
F4    F     F_    0.350224 0.270416 0.394752 -0.556554
F5    F     F_    0.182913 0.370179 0.396680 -0.560109
F6    F     F_    0.817088 0.629832 0.603310 -0.560203
F7    F     F_    0.019010 0.634688 0.630147 -0.629623
F8    F     F_    0.980996 0.365329 0.369838 -0.629621
C49   C     C_R   0.492223 0.352288 0.096569 0.152771
C50   C     C_R   0.398409 0.295510 0.108521 -0.086631
C51   C     C_R   0.380404 0.217793 0.069595 -0.065205
C52   C     C_R   0.455721 0.195987 0.018614 -0.066564
C53   C     C_R   0.549364 0.251752 0.006633 -0.110254
C54   C     C_R   0.567823 0.329454 0.045525 -0.124432
H13   H     H_    0.338695 0.311748 0.147146 0.161064
H14   H     H_    0.307837 0.174562 0.078757 0.139399
H15   H     H_    0.441501 0.135907 0.988366 0.118429
H16   H     H_    0.607709 0.234760 0.967206 0.124174
H17   H     H_    0.641220 0.371643 0.036128 0.131282
C55   C     C_R   0.507782 0.647625 0.903495 0.152688
C56   C     C_R   0.432253 0.670363 0.954663 -0.124340
C57   C     C_R   0.450715 0.748027 0.993620 -0.110386
C58   C     C_R   0.544285 0.803860 0.981571 -0.066646
C59   C     C_R   0.619522 0.782160 0.930453 -0.065107
C60   C     C_R   0.601518 0.704477 0.891469 -0.086629
H18   H     H_    0.358913 0.628123 0.964118 0.131326
H19   H     H_    0.392434 0.764934 0.033157 0.124145
H20   H     H_    0.558511 0.863908 0.011874 0.118384
H21   H     H_    0.692031 0.825444 0.921235 0.139459
H22   H     H_    0.661178 0.688321 0.852743 0.161169
F9    F     F_    0.378751 0.342831 0.903239 -0.666680
F10   F     F_    0.621594 0.657023 0.096756 -0.666696
C61   C     C_R   0.394224 0.330458 0.737510 0.209076
C62   C     C_R   0.439093 0.258413 0.754876 -0.028955
C63   C     C_R   0.403607 0.182880 0.714691 -0.166786
C64   C     C_R   0.323729 0.178816 0.656716 -0.148174
C65   C     C_R   0.277994 0.249926 0.639656 -0.113271
C66   C     C_R   0.312286 0.325230 0.680379 -0.107925
H23   H     H_    0.501881 0.260952 0.799031 0.132507
H24   H     H_    0.438283 0.127506 0.728233 0.135164
H25   H     H_    0.297267 0.120568 0.625060 0.143622
H26   H     H_    0.216116 0.246792 0.594754 0.159862
H27   H     H_    0.276537 0.379857 0.666306 0.091282
C67   C     C_R   0.606052 0.669472 0.262483 0.208929
C68   C     C_R   0.687823 0.674583 0.319745 -0.107819
C69   C     C_R   0.722256 0.749889 0.360426 -0.113274
C70   C     C_R   0.676848 0.821124 0.343186 -0.148045
C71   C     C_R   0.597150 0.817179 0.285076 -0.166971
C72   C     C_R   0.561508 0.741641 0.244941 -0.028890
H28   H     H_    0.723327 0.619864 0.333953 0.091179
H29   H     H_    0.783996 0.752928 0.405431 0.159871
H30   H     H_    0.703434 0.879380 0.374796 0.143439
H31   H     H_    0.562744 0.872652 0.271383 0.134964
H32   H     H_    0.498862 0.739199 0.200676 0.132616
F11   F     F_    0.626812 0.297165 0.583161 -0.647027
F12   F     F_    0.373432 0.702858 0.416625 -0.646801
C73   C     C_R   0.655467 0.129092 0.566411 0.254325
C74   C     C_R   0.674827 0.136482 0.649160 -0.057279
C75   C     C_R   0.761899 0.108109 0.683887 -0.133158
C76   C     C_R   0.830609 0.072771 0.636298 -0.028417
C77   C     C_R   0.812473 0.065860 0.553846 -0.077716
C78   C     C_R   0.725472 0.094080 0.518891 -0.134772
H33   H     H_    0.622700 0.164098 0.686731 0.136152
H34   H     H_    0.776227 0.113685 0.747708 0.131955
H35   H     H_    0.897994 0.050891 0.663285 0.132725
H36   H     H_    0.865887 0.038713 0.516994 0.132885
H37   H     H_    0.712783 0.088916 0.454826 0.127476
C79   C     C_R   0.344709 0.870886 0.433335 0.254662
C80   C     C_R   0.274308 0.905561 0.480752 -0.134805
C81   C     C_R   0.187423 0.933792 0.445622 -0.077608
C82   C     C_R   0.169825 0.927249 0.363092 -0.028117
C83   C     C_R   0.238956 0.892261 0.315600 -0.132942
C84   C     C_R   0.325895 0.863853 0.350507 -0.057302
H38   H     H_    0.286612 0.910452 0.544869 0.127450
H39   H     H_    0.133691 0.960672 0.482394 0.132957
H40   H     H_    0.102540 0.949153 0.335966 0.132699
H41   H     H_    0.225064 0.886992 0.251714 0.131821
H42   H     H_    0.378360 0.836505 0.313021 0.135747

loop_
_geom_bond_atom_site_label_1
_geom_bond_atom_site_label_2
_ccdc_geom_bond_type
C51   C52   A    
C4    C36   A    
C38   H3    S    
C12   F11   S    
C82   C83   A    
C24   C27   A    
C77   H36   S    
C11   F12   S    
C21   O5    A    
C56   C57   A    
C70   H30   S    
C1    C33   S    
C75   C76   A    
C49   C50   A    
C2    O2    A    
C41   H6    S    
O6    Zn2   S    
C36   H1    S    
C81   C82   A    
C6    N2    S    
C78   H37   S    
N4    Zn1   S    
C64   H25   S    
C57   H19   S    
C60   H22   S    
C38   C39   A    
C15   C17   A    
C44   H8    S    
C13   C79   S    
C69   H29   S    
C24   C29   A    
C12   N4    A    
C17   C19   A    
C62   C63   A    
C72   H32   S    
C31   C32   A    
C45   C46   A    
C11   N3    A    
C47   C48   A    
C14   C16   A    
C16   N6    S    
C18   C20   A    
C56   H18   S    
C22   O6    A    
C2    C34   S    
C25   C32   A    
C58   H20   S    
C67   C68   A    
O1    Zn1   S    
C41   C42   A    
C37   C42   A    
C9    C33   A    
C75   H34   S    
C8    F10   S    
C64   C65   A    
C80   C81   A    
C9    C61   S    
O4    Zn1   S    
C20   F4    S    
C44   C45   A    
C23   C30   A    
C70   C71   A    
C35   H2    S    
C83   C84   A    
C4    C6    A    
C74   H33   S    
C5    C7    A    
C50   C51   A    
C1    O3    A    
C6    C8    A    
C4    C49   S    
C2    O4    A    
C45   H9    S    
C29   C43   S    
C81   H39   S    
C84   H42   S    
C76   H35   S    
C43   C48   A    
C3    C35   A    
C18   F2    S    
C55   C56   A    
O2    Zn2   S    
C37   C38   A    
C17   F1    S    
C59   H21   S    
C46   H10   S    
C10   C34   A    
C23   C28   A    
C19   F3    S    
C68   C69   A    
C3    C55   S    
C61   C66   A    
O3    Zn2   S    
C16   C18   A    
C12   C14   A    
C42   H7    S    
C13   C15   A    
N5    N6    D    
C73   C74   A    
C7    F9    S    
C83   H41   S    
C39   H4    S    
C53   C54   A    
C21   O7    A    
C51   H14   S    
O8    Zn1   S    
C22   O8    A    
C65   C66   A    
C77   C78   A    
C40   H5    S    
C7    C9    A    
C52   H15   S    
C26   F8    S    
C63   C64   A    
C28   F5    S    
C67   C72   A    
C26   C31   A    
C27   F6    S    
C80   H38   S    
C79   C80   A    
C3    C5    A    
C54   H17   S    
C53   H16   S    
C20   N4    A    
C49   C54   A    
C74   C75   A    
C14   C73   S    
C25   C27   A    
C30   C37   S    
C26   C28   A    
C58   C59   A    
C50   H13   S    
C63   H24   S    
O7    Zn2   S    
C5    N1    S    
C82   H40   S    
C40   C41   A    
C15   N5    S    
C68   H28   S    
C29   C31   A    
C61   C62   A    
C30   C32   A    
C11   C13   A    
C1    O1    A    
C39   C40   A    
C48   H12   S    
C66   H27   S    
O5    Zn1   S    
C59   C60   A    
C33   C35   A    
C71   H31   S    
C43   C44   A    
C34   C36   A    
C46   C47   A    
C79   C84   A    
N3    Zn2   S    
C10   C67   S    
C65   H26   S    
N1    N2    D    
C73   C78   A    
C52   C53   A    
C8    C10   A    
C57   C58   A    
C21   C24   S    
C47   H11   S    
C25   F7    S    
C22   C23   S    
C76   C77   A    
C69   C70   A    
C55   C60   A    
C62   H23   S    
C19   N3    A    
C71   C72   A    
