data_mof_unit_20748.cif
_audit_creation_date              2012-12-10T17:02:13-0500
_audit_creation_method            fapswitch 2.2
_symmetry_space_group_name_H-M    P1
_symmetry_Int_Tables_number       1
_space_group_crystal_system       triclinic
_cell_length_a                    10.640637
_cell_length_b                    10.724335
_cell_length_c                    10.018043
_cell_angle_alpha                 90.29562
_cell_angle_beta                  92.125026
_cell_angle_gamma                 90.108264
_cell_volume                      1142.39264552

loop_
_atom_site_label
_atom_site_type_symbol
_atom_type_description
_atom_site_fract_x
_atom_site_fract_y
_atom_site_fract_z
_atom_type_partial_charge
C1    C     C_R   0.494748 0.262508 0.499471 0.891753
C2    C     C_2   0.470175 0.131545 0.495995 0.079427
C3    C     C_2   0.503613 0.600788 0.925594 -0.147790
C4    C     C_R   0.259849 0.491068 0.497634 0.884329
C5    C     C_2   0.526480 0.597140 0.074600 -0.051430
C6    C     C_R   0.505207 0.737285 0.500333 0.915457
C7    C     C_R   0.739862 0.514130 0.503587 0.892800
C8    C     C_R   0.118126 0.363230 0.701938 -0.163567
C9    C     C_R   0.063157 0.345174 0.824398 -0.213945
C10   C     C_R   0.958748 0.415915 0.857532 0.013319
C11   C     C_R   0.902745 0.496246 0.761681 0.004650
C12   C     C_R   0.063042 0.445268 0.606772 0.081813
C13   C     C_R   0.944290 0.493824 0.628211 -0.011803
C14   C     C_3   0.409758 0.083070 0.726339 -0.792529
C15   C     C_3   0.435302 0.291228 0.098482 -0.697321
C16   C     C_1   0.910864 0.405235 0.990066 0.122365
C17   C     C_1   0.827384 0.599518 0.807045 0.201690
C18   C     C_3   0.829166 0.762986 0.325499 -0.760741
C19   C     C_R   0.125532 0.486309 0.493739 -0.142659
C20   C     C_R   0.062179 0.550797 0.390990 -0.273580
C21   C     C_R   0.935282 0.574668 0.398859 0.230073
C22   C     C_R   0.874024 0.536917 0.514128 -0.168944
C23   C     C_2   0.507391 0.932763 0.388153 -0.180389
C24   C     C_2   0.523645 0.868383 0.500708 -0.343444
C25   C     C_2   0.516094 0.066334 0.393981 -0.254281
H1    H     H_    0.111882 0.585843 0.306342 0.165708
H2    H     H_    0.323417 0.008981 0.549551 0.245890
H3    H     H_    0.341628 0.143435 0.777199 0.239315
H4    H     H_    0.506744 0.117642 0.749297 0.252180
H5    H     H_    0.402543 0.987199 0.766851 0.226756
H6    H     H_    0.338591 0.456173 0.032279 0.215169
H7    H     H_    0.421664 0.253174 0.995729 0.186455
H8    H     H_    0.370472 0.241540 0.164343 0.239307
H9    H     H_    0.534178 0.273864 0.132925 0.244597
H10   H     H_    0.914766 0.635672 0.202500 0.231860
H11   H     H_    0.911810 0.824584 0.346038 0.229854
H12   H     H_    0.494657 0.691026 0.877975 0.169383
H13   H     H_    0.769891 0.761752 0.414303 0.235511
H14   H     H_    0.772255 0.801624 0.240310 0.234041
H15   H     H_    0.531263 0.420256 0.897128 0.202549
H16   H     H_    0.567599 0.679157 0.122712 0.132254
H17   H     H_    0.203567 0.313002 0.681861 0.161328
H18   H     H_    0.106775 0.281939 0.896241 0.148515
H19   H     H_    0.490218 0.888285 0.291472 0.176094
H20   H     H_    0.550619 0.913036 0.594945 0.187223
H21   H     H_    0.569234 0.110948 0.316809 0.159247
N1    N     N_2   0.501340 0.501330 0.852150 -0.196670
N2    N     N_2   0.501380 0.501360 0.147810 -0.010223
N3    N     N_2   0.379695 0.081582 0.583974 -0.313733
N4    N     N_2   0.406486 0.422900 0.099280 -0.217068
N5    N     N_1   0.872179 0.396010 0.096016 -0.198432
N6    N     N_1   0.768709 0.683032 0.843187 -0.227689
N7    N     N_2   0.870463 0.638500 0.292352 -0.274958
O1    O     O_R   0.499980 0.319060 0.613040 -0.614592
O2    O     O_R   0.500020 0.319100 0.386900 -0.622597
O3    O     O_R   0.316750 0.499980 0.613090 -0.608955
O4    O     O_R   0.316790 0.500020 0.386950 -0.603423
O5    O     O_R   0.499980 0.680900 0.613100 -0.617246
O6    O     O_R   0.500020 0.680940 0.386960 -0.622755
O7    O     O_R   0.683210 0.499980 0.613050 -0.620604
O8    O     O_R   0.683250 0.500020 0.386910 -0.570148
Zn1   Zn    Zn3+2 0.499970 0.499970 0.650990 0.944978
Zn2   Zn    Zn3+2 0.500030 0.500030 0.349010 0.975625

loop_
_geom_bond_atom_site_label_1
_geom_bond_atom_site_label_2
_ccdc_geom_bond_type
C4    O4    A    
O5    Zn1   S    
H15   N1    S    
C18   H14   S    
C2    N3    S    
H10   N7    S    
C7    C22   S    
C9    C10   A    
C6    O5    A    
C15   H9    S    
O6    Zn2   S    
C19   C20   A    
C16   N5    T    
C8    C12   A    
C23   C24   D    
C6    C24   S    
C20   C21   A    
N1    Zn1   S    
N2    N4    S    
C18   H13   S    
C15   H7    S    
C10   C16   S    
C21   C22   A    
C4    O3    A    
C21   N7    S    
C11   C13   A    
C20   H1    S    
C14   H5    S    
C1    O1    A    
C24   H20   S    
C6    O6    A    
C12   C19   A    
C3    N1    D    
C8    H17   S    
C13   C22   A    
O4    Zn2   S    
C2    C25   D    
C23   C25   S    
C1    O2    A    
C5    N2    D    
O3    Zn1   S    
C9    H18   S    
C14   N3    S    
C10   C11   A    
H6    N4    S    
C7    O7    A    
C12   C13   A    
C3    H12   S    
C8    C9    A    
O7    Zn1   S    
C1    C2    S    
C15   N4    S    
O8    Zn2   S    
C5    H16   S    
C7    O8    A    
N2    Zn2   S    
O1    Zn1   S    
C18   N7    S    
C14   H3    S    
C4    C19   S    
C18   H11   S    
C25   H21   S    
C15   H8    S    
C11   C17   S    
C23   H19   S    
H2    N3    S    
C14   H4    S    
C17   N6    T    
C3    C5    S    
O2    Zn2   S    
