data_mof_unit_40705.cif
_audit_creation_date              2012-12-10T20:42:38-0500
_audit_creation_method            fapswitch 2.2
_symmetry_space_group_name_H-M    P1
_symmetry_Int_Tables_number       1
_space_group_crystal_system       triclinic
_cell_length_a                    8.911145
_cell_length_b                    10.676394
_cell_length_c                    9.87676
_cell_angle_alpha                 89.746035
_cell_angle_beta                  90.02343
_cell_angle_gamma                 90.08875
_cell_volume                      939.653598557

loop_
_atom_site_label
_atom_site_type_symbol
_atom_type_description
_atom_site_fract_x
_atom_site_fract_y
_atom_site_fract_z
_atom_type_partial_charge
C1    C     C_R   0.504260 0.260093 0.500429 0.884763
C2    C     C_R   0.588168 0.937199 0.386440 0.099178
C3    C     C_R   0.533184 0.871658 0.500980 -0.132431
C4    C     C_R   0.507526 0.935609 0.621316 0.091355
C5    C     C_3   0.380444 0.926086 0.719758 -0.459797
C6    C     C_3   0.378868 0.068119 0.721004 -0.488669
C7    C     C_R   0.422215 0.410630 0.071549 0.214277
C8    C     C_R   0.588025 0.580568 0.071537 -0.117598
C9    C     C_R   0.587789 0.580797 0.927646 -0.131752
C10   C     C_R   0.422209 0.410645 0.929122 0.213433
C11   C     C_3   0.257232 0.387816 0.923544 -0.509913
C12   C     C_R   0.218737 0.499942 0.499969 0.935574
C13   C     C_3   0.257307 0.387623 0.077309 -0.502257
C14   C     C_R   0.507313 0.739976 0.499673 0.880104
C15   C     C_R   0.781283 0.500083 0.500032 0.923010
C16   C     C_1   0.065413 0.499964 0.499973 -0.215926
C17   C     C_1   0.934618 0.500024 0.500031 -0.204331
C18   C     C_R   0.505892 0.063019 0.622423 0.140135
C19   C     C_R   0.528347 0.129000 0.502729 -0.130573
C20   C     C_R   0.583561 0.067680 0.388033 -0.266669
H1    H     H_    0.615884 0.120288 0.298560 0.167337
H2    H     H_    0.229766 0.294949 0.879541 0.197820
H3    H     H_    0.194399 0.467520 0.121380 0.224685
H4    H     H_    0.230273 0.294543 0.121961 0.201470
H5    H     H_    0.277701 0.884306 0.674480 0.199285
H6    H     H_    0.416036 0.884221 0.817898 0.208921
H7    H     H_    0.275220 0.109225 0.676585 0.196425
H8    H     H_    0.413814 0.108280 0.819800 0.203657
H9    H     H_    0.657281 0.646965 0.125361 0.155457
H10   H     H_    0.656356 0.647789 0.873139 0.147903
H11   H     H_    0.194438 0.467920 0.878964 0.225732
N1    N     N_R   0.499010 0.499140 0.142800 -0.106995
N2    N     N_R   0.499010 0.499180 0.857150 -0.105515
O1    O     O_R   0.500020 0.316790 0.614690 -0.615616
O2    O     O_R   0.500000 0.316760 0.385350 -0.623784
O3    O     O_R   0.285350 0.500020 0.614650 -0.618247
O4    O     O_R   0.285340 0.499980 0.385310 -0.615983
O5    O     O_R   0.500000 0.683240 0.614650 -0.624913
O6    O     O_R   0.499980 0.683210 0.385310 -0.595576
O7    O     O_R   0.714660 0.500020 0.614690 -0.617309
O8    O     O_R   0.714650 0.499980 0.385350 -0.621760
Zn1   Zn    Zn3+2 0.500010 0.500020 0.653130 0.939810
Zn2   Zn    Zn3+2 0.499990 0.499980 0.346870 0.946206
N3    N     N_3   0.641026 0.872374 0.268494 -0.434526
H12   H     H_    0.740623 0.827021 0.295492 0.173527
H13   H     H_    0.668622 0.935799 0.191423 0.170076

loop_
_geom_bond_atom_site_label_1
_geom_bond_atom_site_label_2
_ccdc_geom_bond_type
O4    Zn2   S    
C7    C10   A    
C14   O5    A    
C11   C13   S    
C11   H2    S    
O3    Zn1   S    
C19   C20   A    
O1    Zn1   S    
C6    H7    S    
C4    C18   A    
O7    Zn1   S    
C2    C3    A    
C11   H11   S    
N3    H12   S    
C9    N2    A    
C4    C5    S    
O8    Zn2   S    
C15   O8    A    
C3    C14   S    
C9    H10   S    
C5    H5    S    
N2    Zn1   S    
N1    Zn2   S    
N3    H13   S    
C1    O1    A    
O5    Zn1   S    
C10   N2    A    
C5    C6    S    
C6    C18   S    
C15   O7    A    
C1    C19   S    
C12   O3    A    
C10   C11   S    
C8    H9    S    
C2    C20   A    
C5    H6    S    
C8    N1    A    
C7    C13   S    
O2    Zn2   S    
C20   H1    S    
C13   H3    S    
C18   C19   A    
C12   O4    A    
C15   C17   S    
C1    O2    A    
C16   C17   T    
O6    Zn2   S    
C7    N1    A    
C14   O6    A    
C6    H8    S    
C3    C4    A    
C12   C16   S    
C13   H4    S    
C2    N3    S    
C8    C9    A    
