data_mof_unit_68546.cif
_audit_creation_date              2012-12-10T19:46:26-0500
_audit_creation_method            fapswitch 2.2
_symmetry_space_group_name_H-M    P1
_symmetry_Int_Tables_number       1
_space_group_crystal_system       triclinic
_cell_length_a                    10.865638
_cell_length_b                    10.855449
_cell_length_c                    10.47912
_cell_angle_alpha                 91.880537
_cell_angle_beta                  91.496536
_cell_angle_gamma                 88.569927
_cell_volume                      1234.58027134

loop_
_atom_site_label
_atom_site_type_symbol
_atom_type_description
_atom_site_fract_x
_atom_site_fract_y
_atom_site_fract_z
_atom_type_partial_charge
C1    C     C_R   0.488887 0.262121 0.497253 0.846163
C2    C     C_R   0.504823 0.738567 0.502606 0.831793
C3    C     C_R   0.871970 0.503412 0.505108 -0.085292
C4    C     C_R   0.128234 0.511763 0.497589 -0.058335
C5    C     C_R   0.944473 0.458350 0.607497 -0.019458
C6    C     C_R   0.055852 0.567478 0.400742 0.056653
C7    C     C_R   0.395218 0.177963 0.077077 -0.078657
C8    C     C_R   0.490116 0.874243 0.957186 -0.098240
C9    C     C_R   0.404036 0.132410 0.200144 -0.108838
C10   C     C_R   0.505338 0.923813 0.837626 -0.116058
C11   C     C_R   0.520036 0.106342 0.257171 0.142166
C12   C     C_R   0.427333 0.890025 0.734116 0.166560
C13   C     C_R   0.626565 0.126956 0.189423 -0.072865
C14   C     C_R   0.333750 0.805881 0.752600 -0.045301
C15   C     C_R   0.616955 0.168628 0.064780 -0.148402
C16   C     C_R   0.322653 0.752372 0.870886 -0.099801
C17   C     C_R   0.501880 0.195344 0.009219 -0.138154
C18   C     C_R   0.399153 0.788270 0.973981 -0.104209
C19   C     C_R   0.552492 0.932611 0.402232 0.097886
C20   C     C_R   0.429034 0.068954 0.595241 0.103555
C21   C     C_R   0.505814 0.873010 0.507297 -0.162693
C22   C     C_R   0.477552 0.127971 0.491329 -0.179512
C23   C     C_R   0.261777 0.507837 0.498717 0.809276
C24   C     C_R   0.738492 0.499212 0.501819 0.825323
C25   C     C_R   0.448776 0.942334 0.607676 -0.094565
C26   C     C_R   0.526096 0.057837 0.387734 -0.066043
C27   C     C_1   0.500309 0.499903 0.072108 0.108078
C28   C     C_1   0.500355 0.499827 0.927909 0.082532
C29   C     C_R   0.142307 0.862021 0.246992 -0.197634
C30   C     C_R   0.894853 0.257360 0.885772 -0.159970
C31   C     C_R   0.133308 0.773966 0.341285 0.242296
C32   C     C_R   0.896527 0.290015 0.757169 0.277552
C33   C     C_R   0.103460 0.651224 0.305578 0.097658
C34   C     C_R   0.895755 0.416592 0.728559 0.058846
C35   C     C_R   0.087071 0.619303 0.175469 -0.231604
C36   C     C_R   0.877913 0.506050 0.826698 -0.183064
C37   C     C_R   0.090281 0.709059 0.083311 -0.202377
C38   C     C_R   0.871424 0.471526 0.953298 -0.193954
C39   C     C_R   0.116088 0.830820 0.119254 0.218991
C40   C     C_R   0.886494 0.347807 0.983444 0.150311
C41   C     C_R   0.928431 0.557335 0.403059 -0.195051
C42   C     C_R   0.071557 0.459013 0.599995 -0.212704
Cu1   Cu    Cu3+1 0.500000 0.500000 0.625300 0.988796
Cu2   Cu    Cu3+1 0.500000 0.500000 0.374700 1.015265
H1    H     H_    0.716458 0.108682 0.232359 0.180745
H2    H     H_    0.274109 0.776151 0.674560 0.138190
H3    H     H_    0.698430 0.179399 0.010518 0.158764
H4    H     H_    0.255095 0.682522 0.882024 0.129746
H5    H     H_    0.161581 0.956761 0.274316 0.157422
H6    H     H_    0.903936 0.161664 0.910417 0.190149
H7    H     H_    0.063118 0.526439 0.146305 0.187809
H8    H     H_    0.877510 0.603227 0.806032 0.156538
H9    H     H_    0.067719 0.684709 0.984704 0.156197
H10   H     H_    0.861981 0.541642 0.028426 0.174669
H11   H     H_    0.872360 0.598759 0.327966 0.191007
H12   H     H_    0.126699 0.420061 0.677252 0.189038
H13   H     H_    0.496006 0.229258 0.913437 0.171995
H14   H     H_    0.388526 0.748892 0.066483 0.153015
H15   H     H_    0.305834 0.199031 0.034178 0.186870
H16   H     H_    0.549643 0.901962 0.036272 0.177921
H17   H     H_    0.320649 0.118107 0.251489 0.134219
H18   H     H_    0.578148 0.988463 0.825425 0.128316
N1    N     N_1   0.500010 0.499990 0.186410 -0.127838
N2    N     N_1   0.499990 0.500010 0.813590 -0.138299
O1    O     O_R   0.499990 0.319650 0.605810 -0.562911
O2    O     O_R   0.500010 0.680350 0.394190 -0.552264
O3    O     O_R   0.499990 0.319640 0.394190 -0.568095
O4    O     O_R   0.500010 0.680360 0.605810 -0.587784
O5    O     O_R   0.319640 0.500010 0.605810 -0.582655
O6    O     O_R   0.680360 0.499990 0.394190 -0.551598
O7    O     O_R   0.319650 0.500010 0.394190 -0.578564
O8    O     O_R   0.680350 0.499990 0.605810 -0.579852
I1    I     I_    0.104349 0.970303 0.983890 -0.426785
I2    I     I_    0.908476 0.298473 0.176077 -0.460457
I3    I     I_    0.682517 0.839550 0.277945 -0.464574
I4    I     I_    0.298550 0.163432 0.716170 -0.404614
N3    N     N_2   0.147054 0.811785 0.471703 -0.472251
H19   H     H_    0.217490 0.873011 0.486371 0.252308
C43   C     C_3   0.034863 0.859158 0.528626 -0.639343
H20   H     H_    0.053013 0.883116 0.631130 0.253687
H21   H     H_    0.962183 0.789100 0.522246 0.240175
H22   H     H_    0.001620 0.943531 0.479850 0.244578
N4    N     N_2   0.905842 0.195841 0.659189 -0.410832
H23   H     H_    0.929233 0.225018 0.570624 0.272211
C44   C     C_3   0.804395 0.111591 0.651609 -0.681230
H24   H     H_    0.816435 0.045361 0.569667 0.237072
H25   H     H_    0.715932 0.163331 0.637145 0.228002
H26   H     H_    0.800801 0.058021 0.739792 0.232385

loop_
_geom_bond_atom_site_label_1
_geom_bond_atom_site_label_2
_ccdc_geom_bond_type
C30   C32   A    
C5    C42   A    
Cu1   O8    S    
C23   O5    A    
Cu2   O2    S    
C15   H3    S    
C16   H4    S    
C24   O6    A    
C14   H2    S    
C29   H5    S    
C44   H24   S    
C9    H17   S    
C38   C40   A    
C2    O4    A    
C33   C35   A    
C20   C25   A    
C20   I4    S    
Cu2   O7    S    
C7    C9    A    
C19   C26   A    
C41   H11   S    
C42   H12   S    
C18   H14   S    
Cu1   O4    S    
C7    C17   A    
C6    C41   A    
C1    O1    A    
C31   C33   A    
Cu2   O6    S    
C36   H8    S    
C37   H9    S    
C44   H25   S    
C30   H6    S    
C1    C22   S    
Cu1   O5    S    
C3    C24   S    
C10   H18   S    
C7    H15   S    
Cu1   N2    S    
C31   N3    S    
N3    C43   S    
Cu2   N1    S    
C23   O7    A    
C4    C6    A    
C43   H21   S    
C4    C23   S    
C11   C26   S    
C3    C5    A    
N3    H19   S    
C8    C18   A    
C32   C34   A    
Cu1   Cu2   S    
N4    H23   S    
C38   H10   S    
Cu1   O1    S    
C5    C34   S    
C29   C39   A    
C2    C21   S    
C30   C40   A    
C16   C18   A    
C9    C11   A    
C10   C12   A    
C28   N2    T    
C8    C10   A    
N4    C44   S    
C12   C14   A    
C13   C15   A    
C35   H7    S    
C14   C16   A    
C24   O8    A    
C44   H26   S    
C35   C37   A    
C15   C17   A    
C32   N4    S    
C21   C25   A    
C3    C41   A    
C19   C21   A    
C20   C22   A    
C2    O2    A    
C43   H22   S    
C6    C33   S    
C12   C25   S    
C36   C38   A    
C29   C31   A    
C8    H16   S    
C13   H1    S    
C11   C13   A    
C4    C42   A    
C19   I3    S    
C1    O3    A    
C40   I2    S    
C34   C36   A    
C39   I1    S    
C43   H20   S    
C37   C39   A    
C22   C26   A    
C27   C28   S    
C27   N1    T    
Cu2   O3    S    
C17   H13   S    
