data_mof_unit_26521.cif
_audit_creation_date              2013-03-05T15:49:44-0500
_audit_creation_method            fapswitch 2.2
_symmetry_space_group_name_H-M    P1
_symmetry_Int_Tables_number       1
_space_group_crystal_system       triclinic
_cell_length_a                    12.013828
_cell_length_b                    12.841665
_cell_length_c                    13.124753
_cell_angle_alpha                 87.958484
_cell_angle_beta                  110.728745
_cell_angle_gamma                 92.938101
_cell_volume                      1890.95834754

loop_
_atom_site_label
_atom_site_type_symbol
_atom_site_description
_atom_site_fract_x
_atom_site_fract_y
_atom_site_fract_z
_atom_type_partial_charge
O1    O     O_R   0.579910 0.341070 0.505280 -0.638711
O2    O     O_R   0.388440 0.353740 0.492580 -0.640589
C1    C     C_R   0.478036 0.299793 0.499831 0.896795
O3    O     O_R   0.643280 0.490550 0.663120 -0.619495
O4    O     O_R   0.451810 0.503220 0.650420 -0.593304
C2    C     C_R   0.561913 0.485569 0.707160 0.905570
Zn1   Zn    Zn3+2 0.627850 0.491540 0.508480 0.935583
Zn2   Zn    Zn3+2 0.372150 0.508460 0.491520 0.972411
O5    O     O_R   0.611560 0.646260 0.507420 -0.628935
O6    O     O_R   0.420090 0.658930 0.494720 -0.591477
O7    O     O_R   0.548190 0.496780 0.349580 -0.622217
O8    O     O_R   0.356720 0.509450 0.336880 -0.620983
C3    C     C_R   0.523752 0.699875 0.506811 0.938728
C4    C     C_R   0.436294 0.502226 0.292633 0.873246
C5    C     C_R   0.247514 0.412166 0.016642 -0.210536
H1    H     H_    0.212302 0.453718 0.157637 0.164374
H2    H     H_    0.154928 0.390259 0.975793 0.163357
C6    C     C_R   0.398183 0.478957 0.178095 -0.044161
C7    C     C_R   0.715467 0.452262 0.888369 -0.250609
C8    C     C_R   0.751956 0.416292 0.996725 0.141195
C9    C     C_R   0.664875 0.393899 0.045654 0.077306
C10   C     C_R   0.543489 0.414207 0.983215 0.027157
C11   C     C_R   0.507850 0.421009 0.869138 0.034884
C12   C     C_R   0.455080 0.425489 0.029151 0.055010
C13   C     C_R   0.333162 0.406476 0.966580 0.144725
C14   C     C_R   0.299483 0.389257 0.854421 0.067390
C15   C     C_R   0.387096 0.396161 0.806770 -0.191675
C16   C     C_R   0.484226 0.470106 0.130841 -0.236228
C17   C     C_R   0.279815 0.449053 0.121180 -0.212074
C18   C     C_R   0.594440 0.452856 0.822773 -0.130425
H3    H     H_    0.573369 0.502227 0.172126 0.157404
H4    H     H_    0.782504 0.473444 0.852970 0.172862
H5    H     H_    0.358869 0.380468 0.721002 0.170400
C19   C     C_R   0.537598 0.810898 0.509494 -0.177864
C20   C     C_R   0.466505 0.188935 0.507346 -0.094433
C21   C     C_R   0.392794 0.034497 0.576853 0.343909
C22   C     C_R   0.394456 0.142015 0.560561 -0.293971
C23   C     C_R   0.533458 0.130534 0.465634 -0.249075
C24   C     C_R   0.534125 0.024090 0.481095 0.113588
C25   C     C_R   0.468058 0.974730 0.541624 -0.053870
C26   C     C_R   0.480573 0.867876 0.564959 0.257082
C27   C     C_R   0.600059 0.860194 0.448473 -0.233440
C28   C     C_R   0.601900 0.967089 0.437708 -0.173404
H6    H     H_    0.645936 0.815792 0.407839 0.166980
H7    H     H_    0.652826 0.004744 0.392287 0.149020
H8    H     H_    0.339610 0.189006 0.589439 0.174195
H9    H     H_    0.586409 0.168649 0.422161 0.149095
N1    N     N_R   0.798200 0.480260 0.519790 -0.101198
N2    N     N_R   0.201820 0.519740 0.480210 -0.107128
C29   C     C_R   0.042762 0.633430 0.466572 -0.314896
C30   C     C_R   0.156223 0.616878 0.463718 0.096059
C31   C     C_R   0.133579 0.435546 0.493803 -0.112379
C32   C     C_R   0.018386 0.448615 0.497223 0.093559
C33   C     C_R   0.973690 0.549329 0.486021 0.066708
C34   C     C_R   0.862143 0.563324 0.496972 -0.045103
C35   C     C_R   0.839682 0.381972 0.527369 0.002750
C36   C     C_R   0.949369 0.364504 0.516735 -0.324198
H10   H     H_    0.825804 0.640042 0.485721 0.132496
H11   H     H_    0.788026 0.315629 0.541679 0.148090
H12   H     H_    0.010660 0.711826 0.456112 0.175752
H13   H     H_    0.980510 0.285865 0.525162 0.154638
H14   H     H_    0.208386 0.683245 0.450204 0.177955
H15   H     H_    0.170233 0.358907 0.506103 0.131657
N3    N     N_R   0.307394 0.987590 0.619952 0.239179
O9    O     O_R   0.290529 0.029746 0.701754 -0.373357
O10   O     O_R   0.229743 0.917800 0.563641 -0.379839
C37   C     C_3   0.169656 0.384011 0.781947 -0.420407
C38   C     C_3   0.115813 0.492585 0.772596 -0.273887
C39   C     C_3   0.990999 0.486758 0.778848 -0.861913
H16   H     H_    0.938438 0.417596 0.736664 0.266704
H17   H     H_    0.996883 0.481720 0.864963 0.232132
H18   H     H_    0.943563 0.558344 0.741731 0.263714
H19   H     H_    0.172218 0.545763 0.837493 0.237227
H20   H     H_    0.113828 0.531273 0.695460 0.236596
H21   H     H_    0.160089 0.357711 0.699740 0.187942
H22   H     H_    0.120960 0.322971 0.813818 0.205021
C40   C     C_3   0.695731 0.328478 0.151419 -0.452412
C41   C     C_3   0.629408 0.221367 0.130339 -0.309925
C42   C     C_3   0.685767 0.144111 0.223095 -0.889564
H23   H     H_    0.776719 0.126840 0.226534 0.267472
H24   H     H_    0.691691 0.176768 0.302034 0.253397
H25   H     H_    0.630707 0.070283 0.209135 0.258111
H26   H     H_    0.534880 0.229664 0.121761 0.233071
H27   H     H_    0.631160 0.188903 0.053510 0.232588
H28   H     H_    0.791941 0.315007 0.188012 0.226159
H29   H     H_    0.676616 0.367309 0.216722 0.205548
C43   C     C_3   0.883224 0.397536 0.054760 -0.434782
C44   C     C_3   0.909364 0.283292 0.043093 -0.339855
C45   C     C_3   0.022932 0.249379 0.132824 -0.864514
H30   H     H_    0.100813 0.296500 0.128494 0.260983
H31   H     H_    0.015836 0.257992 0.214213 0.259494
H32   H     H_    0.036967 0.166213 0.122426 0.260362
H33   H     H_    0.834991 0.229847 0.046349 0.240010
H34   H     H_    0.918171 0.273781 0.962436 0.221164
H35   H     H_    0.938407 0.448996 0.019876 0.184030
H36   H     H_    0.911643 0.420727 0.141270 0.202645
N4    N     N_R   0.458226 0.822543 0.658242 0.216682
O11   O     O_R   0.514840 0.860872 0.754139 -0.369111
O12   O     O_R   0.376354 0.749261 0.647854 -0.340218

loop_
_geom_bond_atom_site_label_1
_geom_bond_atom_site_label_2
_geom_bond_distance
_ccdc_geom_bond_type
N1    C34   1.368845 A    
C43   C44   1.540030 S    
C4    C6    1.445525 S    
C7    C8    1.400239 A    
C19   C27   1.394937 A    
N4    O11   1.301087 A    
C40   C41   1.536912 S    
C15   H5    1.077825 S    
Zn1   O7    1.963048 S    
C19   C26   1.406071 A    
C14   C15   1.399781 A    
C29   C33   1.399495 A    
C14   C37   1.511821 S    
C21   C22   1.389835 A    
C20   C22   1.394491 A    
C23   C24   1.374743 A    
O7    C4    1.290476 A    
C5    C13   1.409083 A    
C38   H20   1.104817 S    
C8    C43   1.516826 S    
C35   C36   1.403212 A    
N1    C35   1.368134 A    
C39   H17   1.106949 S    
O5    C3    1.286483 A    
C33   C34   1.418353 A    
C41   H26   1.111195 S    
C38   C39   1.528390 S    
N2    C30   1.367419 A    
C43   H35   1.110955 S    
C11   C15   1.416680 A    
C45   H31   1.111051 S    
C13   C14   1.404270 A    
C40   H28   1.103715 S    
C9    C10   1.429692 A    
C30   H14   1.078748 S    
C27   H6    1.084095 S    
O3    Zn1   1.971274 S    
C7    H4    1.082537 S    
N4    O12   1.300371 A    
C5    C17   1.381309 A    
C44   H34   1.112017 S    
C37   C38   1.549694 S    
C11   C18   1.416505 A    
C21   C25   1.418748 A    
C20   C23   1.382733 A    
C6    C16   1.391760 A    
C12   C13   1.416164 A    
O3    C2    1.297961 A    
C24   C25   1.421902 A    
C42   H24   1.109066 S    
C32   C36   1.399488 A    
C41   C42   1.524489 S    
C24   C28   1.393576 A    
C38   H19   1.111958 S    
C32   C33   1.408698 A    
C31   H15   1.082289 S    
O1    C1    1.287727 A    
N3    O10   1.301208 A    
C39   H18   1.110161 S    
C42   H25   1.110082 S    
C1    C20   1.426536 S    
Zn2   O8    1.971275 S    
N2    C31   1.368166 A    
C43   H36   1.110726 S    
C29   C30   1.403940 A    
C6    C17   1.392915 A    
C8    C9    1.421681 A    
C45   H32   1.110306 S    
C36   H13   1.083288 S    
C28   H7    1.082055 S    
C23   H9    1.083945 S    
C25   C26   1.399244 A    
C2    C18   1.477606 S    
O8    C4    1.290614 A    
C40   H29   1.103406 S    
C10   C12   1.409936 A    
C37   H21   1.107066 S    
C27   C28   1.374806 A    
C45   H30   1.105434 S    
C31   C32   1.419039 A    
Zn1   O5    2.005513 S    
C44   H33   1.110537 S    
O1    Zn1   1.985391 S    
C16   H3    1.081909 S    
O2    Zn2   2.005513 S    
C12   C16   1.391145 A    
O6    C3    1.285115 A    
O4    Zn2   1.963048 S    
C5    H2    1.077186 S    
C35   H11   1.078490 S    
C29   H12   1.083315 S    
Zn1   N1    2.011272 S    
O2    C1    1.283294 A    
H1    C17   1.082652 S    
C3    C19   1.427136 S    
N3    O9    1.301319 A    
O4    C2    1.295008 A    
C26   N4    1.440773 S    
C39   H16   1.106405 S    
C42   H23   1.111043 S    
C41   H27   1.112166 S    
C44   C45   1.524823 S    
Zn2   O6    1.985388 S    
C34   H10   1.082159 S    
C9    C40   1.534498 S    
C10   C11   1.404771 A    
C37   H22   1.111085 S    
C22   H8    1.084347 S    
C21   N3    1.434801 S    
C7    C18   1.403534 A    
Zn2   N2    2.011033 S    
