data_mof_unit_32046.cif
_audit_creation_date              2012-12-10T17:17:55-0500
_audit_creation_method            fapswitch 2.2
_symmetry_space_group_name_H-M    P1
_symmetry_Int_Tables_number       1
_space_group_crystal_system       triclinic
_cell_length_a                    14.939946
_cell_length_b                    15.606682
_cell_length_c                    9.599213
_cell_angle_alpha                 90.49601
_cell_angle_beta                  89.800811
_cell_angle_gamma                 90.165491
_cell_volume                      2238.07463313

loop_
_atom_site_label
_atom_site_type_symbol
_atom_type_description
_atom_site_fract_x
_atom_site_fract_y
_atom_site_fract_z
_atom_type_partial_charge
C1    C     C_R   0.378188 0.884363 0.499762 0.883453
C2    C     C_R   0.760299 0.180040 0.429134 -0.150150
C3    C     C_R   0.224950 0.287246 0.379752 -0.167280
C4    C     C_R   0.255834 0.683592 0.420692 -0.159261
C5    C     C_R   0.678169 0.807587 0.498226 -0.055831
C6    C     C_R   0.679570 0.191010 0.500001 -0.049952
C7    C     C_R   0.176415 0.305294 0.501259 -0.081250
C8    C     C_R   0.178621 0.691944 0.501324 -0.056250
C9    C     C_R   0.664608 0.999454 0.143205 -0.343868
C10   C     C_R   0.164616 0.497977 0.143138 -0.371164
C11   C     C_R   0.745181 0.999523 0.070730 0.531264
C12   C     C_R   0.385682 0.123024 0.502073 0.872168
C13   C     C_R   0.245158 0.495929 0.070629 0.508858
C14   C     C_R   0.745255 0.000090 0.927078 0.521109
C15   C     C_R   0.245228 0.496249 0.926967 0.541883
C16   C     C_R   0.664745 0.000480 0.855295 -0.346179
C17   C     C_R   0.164761 0.498683 0.855223 -0.331989
C18   C     C_R   0.580959 0.000059 0.924831 0.150675
C19   C     C_R   0.080971 0.499204 0.924792 0.128952
C20   C     C_R   0.580910 0.999795 0.074374 0.144460
C21   C     C_R   0.080918 0.499028 0.074345 0.143117
C22   C     C_R   0.423005 0.000387 0.074300 -0.054741
C23   C     C_R   0.878330 0.384211 0.500056 0.935601
C24   C     C_R   0.923042 0.500709 0.074234 -0.037173
C25   C     C_R   0.617571 0.119671 0.500093 0.750562
C26   C     C_R   0.616470 0.879298 0.499349 0.762960
C27   C     C_R   0.116613 0.620526 0.500398 0.766421
C28   C     C_R   0.113846 0.376889 0.499844 0.771216
C29   C     C_R   0.423040 0.000315 0.926427 0.025352
C30   C     C_R   0.923074 0.500704 0.926411 -0.043779
C31   C     C_R   0.315367 0.207042 0.772419 0.633407
C32   C     C_R   0.203466 0.914743 0.641485 0.550472
C33   C     C_R   0.706388 0.588055 0.345909 0.588126
C34   C     C_R   0.877830 0.615356 0.500387 0.937028
C35   C     C_R   0.700616 0.415376 0.634324 0.599923
C36   C     C_R   0.260163 0.214631 0.889431 -0.181757
C37   C     C_R   0.123640 0.923967 0.715742 -0.158182
C38   C     C_R   0.628451 0.580310 0.267348 -0.174980
C39   C     C_R   0.616718 0.426883 0.695829 -0.200567
C40   C     C_R   0.567551 0.647109 0.262802 -0.210427
C41   C     C_R   0.553423 0.361665 0.691972 -0.160622
C42   C     C_R   0.171323 0.238428 0.874525 -0.243107
C43   C     C_R   0.062652 0.856832 0.721961 -0.204264
C44   C     C_R   0.583598 0.722130 0.337904 -0.196242
C45   C     C_R   0.294714 0.229572 0.382563 -0.186191
C46   C     C_R   0.573731 0.284017 0.627356 -0.147418
C47   C     C_R   0.140219 0.263525 0.744715 -0.139551
C48   C     C_R   0.080409 0.780115 0.652442 -0.195947
C49   C     C_R   0.662565 0.732697 0.417149 0.035747
C50   C     C_R   0.658734 0.269592 0.566828 0.004761
C51   C     C_R   0.197733 0.263246 0.627076 0.038329
C52   C     C_R   0.161174 0.768273 0.577608 0.043708
C53   C     C_R   0.280544 0.220894 0.636343 0.009539
C54   C     C_R   0.224810 0.835850 0.574131 -0.013319
C55   C     C_R   0.726045 0.665167 0.420016 -0.000932
C56   C     C_R   0.318862 0.748181 0.419867 -0.197592
C57   C     C_R   0.723368 0.336285 0.568543 0.001073
C58   C     C_R   0.322897 0.194859 0.509032 -0.106519
C59   C     C_R   0.305602 0.822719 0.498598 -0.094395
C60   C     C_R   0.804685 0.676516 0.501451 -0.067699
C61   C     C_R   0.806634 0.321694 0.500100 -0.075934
C62   C     C_R   0.815482 0.749217 0.585576 -0.204491
C63   C     C_R   0.823195 0.244918 0.428913 -0.203615
C64   C     C_R   0.752927 0.813942 0.584141 -0.161262
Cu1   Cu    Cu3+1 0.499990 1.000000 0.640660 1.015815
Cu2   Cu    Cu3+1 0.999990 0.500000 0.640660 0.974904
Cu3   Cu    Cu3+1 0.500010 1.000000 0.359340 0.957754
Cu4   Cu    Cu3+1 0.000010 0.500000 0.359340 0.987318
F1    F     F_    0.823941 0.000315 0.856028 -0.643165
F2    F     F_    0.323883 0.494827 0.855869 -0.633946
F3    F     F_    0.404118 0.197815 0.796674 -0.683706
F4    F     F_    0.255954 0.985227 0.630237 -0.703226
F5    F     F_    0.758566 0.517613 0.353701 -0.679316
F6    F     F_    0.756882 0.483373 0.637176 -0.678141
F7    F     F_    0.823784 0.999194 0.141118 -0.631663
F8    F     F_    0.323745 0.494303 0.141001 -0.641744
H1    H     H_    0.327293 0.212850 0.285075 0.170462
H2    H     H_    0.108183 0.984350 0.766644 0.181900
H3    H     H_    0.614344 0.521221 0.211603 0.183500
H4    H     H_    0.600167 0.487526 0.744988 0.186012
H5    H     H_    0.506586 0.640090 0.203077 0.199969
H6    H     H_    0.487893 0.371618 0.737784 0.228463
H7    H     H_    0.127645 0.241397 0.964663 0.172497
H8    H     H_    0.000319 0.864890 0.778378 0.202134
H9    H     H_    0.532441 0.770580 0.334796 0.166876
H10   H     H_    0.521585 0.236259 0.622534 0.198922
H11   H     H_    0.070765 0.282194 0.737453 0.175666
H12   H     H_    0.379368 0.739014 0.359393 0.146967
H13   H     H_    0.029412 0.731186 0.656273 0.160016
H14   H     H_    0.764161 0.870492 0.648091 0.179207
H15   H     H_    0.775367 0.120208 0.375960 0.179008
H16   H     H_    0.208917 0.317451 0.281774 0.172351
H17   H     H_    0.268484 0.625689 0.360704 0.178627
H18   H     H_    0.359859 0.000742 0.129782 0.138477
H19   H     H_    0.859899 0.501234 0.129488 0.185117
H20   H     H_    0.672154 0.999249 0.252946 0.238731
H21   H     H_    0.172169 0.498884 0.252889 0.242340
H22   H     H_    0.873990 0.757085 0.650609 0.145767
H23   H     H_    0.886358 0.234385 0.375541 0.157076
H24   H     H_    0.672445 0.001151 0.745507 0.235944
H25   H     H_    0.172517 0.500392 0.745457 0.247758
H26   H     H_    0.359919 0.000687 0.871611 0.166746
H27   H     H_    0.859964 0.501302 0.871633 0.183883
H28   H     H_    0.286658 0.202502 0.992234 0.156466
N1    N     N_R   0.501200 1.000000 0.147910 -0.172973
N2    N     N_R   0.001200 0.500000 0.147910 -0.173514
N3    N     N_R   0.501270 1.000000 0.852040 -0.159746
N4    N     N_R   0.001270 0.500000 0.852040 -0.178429
O1    O     O_R   0.409820 0.909830 0.618810 -0.544296
O2    O     O_R   0.590170 0.909830 0.618760 -0.599957
O3    O     O_R   0.090170 0.590170 0.618760 -0.602536
O4    O     O_R   0.090170 0.409830 0.618760 -0.608285
O5    O     O_R   0.590190 0.090180 0.381190 -0.592453
O6    O     O_R   0.590190 0.909820 0.381190 -0.603218
O7    O     O_R   0.090190 0.590180 0.381190 -0.593193
O8    O     O_R   0.090190 0.409820 0.381190 -0.607164
O9    O     O_R   0.409820 0.090170 0.618810 -0.492964
O10   O     O_R   0.909820 0.409830 0.618810 -0.562134
O11   O     O_R   0.909820 0.590170 0.618810 -0.562223
O12   O     O_R   0.409840 0.909830 0.381240 -0.597453
O13   O     O_R   0.409840 0.090170 0.381240 -0.592127
O14   O     O_R   0.909840 0.409830 0.381240 -0.550748
O15   O     O_R   0.909840 0.590170 0.381240 -0.551795
O16   O     O_R   0.590170 0.090170 0.618760 -0.582839

loop_
_geom_bond_atom_site_label_1
_geom_bond_atom_site_label_2
_ccdc_geom_bond_type
C44   C49   A    
C33   C55   A    
Cu2   Cu4   S    
C35   F6    S    
C34   O15   A    
C22   C29   A    
C36   C42   A    
C64   H14   S    
C4    C8    A    
C23   O10   A    
C39   C41   A    
C28   O4    A    
C19   C21   A    
Cu3   O6    S    
C3    C7    A    
C1    C59   S    
C11   C14   A    
C56   H12   S    
C6    C25   S    
C38   H3    S    
C60   C62   A    
Cu1   O16   S    
C61   C63   A    
C17   H25   S    
C18   N3    A    
C62   C64   A    
C28   O8    A    
C1    O1    A    
C62   H22   S    
C12   O13   A    
Cu1   Cu3   S    
C30   H27   S    
C63   H23   S    
C41   C46   A    
Cu2   O3    S    
Cu3   O12   S    
C8    C52   A    
C40   C44   A    
C21   N2    A    
C12   C58   S    
C19   N4    A    
C31   F3    S    
C27   O3    A    
C55   C60   A    
C4    C56   A    
C34   C60   S    
C43   H8    S    
C22   H18   S    
C5    C49   A    
C2    C6    A    
Cu4   N2    S    
Cu3   O13   S    
Cu4   O15   S    
C32   C54   A    
C52   C54   A    
C23   O14   A    
C54   C59   A    
C10   C21   A    
C45   C58   A    
C32   F4    S    
C24   H19   S    
Cu4   O14   S    
Cu3   N1    S    
C47   C51   A    
C49   C55   A    
C3    C45   A    
C6    C50   A    
C7    C28   S    
C4    H17   S    
C5    C64   A    
C3    H16   S    
C51   C53   A    
C1    O12   A    
C47   H11   S    
C37   C43   A    
C10   H21   S    
C35   C39   A    
C26   O6    A    
C25   O5    A    
C9    C20   A    
C13   F8    S    
C23   C61   S    
C32   C37   A    
C31   C53   A    
C9    C11   A    
C9    H20   S    
Cu1   O1    S    
Cu4   O8    S    
C33   F5    S    
Cu2   O11   S    
C13   C15   A    
C14   F1    S    
C14   C16   A    
C24   N2    A    
C44   H9    S    
C2    C63   A    
C20   N1    A    
C43   C48   A    
C34   O11   A    
C15   C17   A    
C15   F2    S    
C26   O2    A    
C30   N4    A    
C50   C57   A    
C40   H5    S    
C16   H24   S    
C42   H7    S    
Cu2   N4    S    
C10   C13   A    
C53   C58   A    
C57   C61   A    
C22   N1    A    
C37   H2    S    
C46   C50   A    
C33   C38   A    
C56   C59   A    
C35   C57   A    
C48   H13   S    
C39   H4    S    
Cu3   O5    S    
C7    C51   A    
C11   F7    S    
C38   C40   A    
C36   H28   S    
C41   H6    S    
C17   C19   A    
C29   H26   S    
C18   C20   A    
C42   C47   A    
C2    H15   S    
C25   O16   A    
C24   C30   A    
Cu1   O2    S    
Cu4   O7    S    
C5    C26   S    
C48   C52   A    
C16   C18   A    
Cu2   O10   S    
C8    C27   S    
Cu1   O9    S    
C31   C36   A    
C29   N3    A    
C45   H1    S    
C12   O9    A    
Cu2   O4    S    
Cu1   N3    S    
C46   H10   S    
C27   O7    A    
