data_mof_unit_9402.cif
_audit_creation_date              2012-12-11T17:39:21-0500
_audit_creation_method            fapswitch 2.2
_symmetry_space_group_name_H-M    P1
_symmetry_Int_Tables_number       1
_space_group_crystal_system       triclinic
_cell_length_a                    24.939907
_cell_length_b                    7.343017
_cell_length_c                    22.46702
_cell_angle_alpha                 90.000424
_cell_angle_beta                  96.519293
_cell_angle_gamma                 90.000737
_cell_volume                      4087.87332568

loop_
_atom_site_label
_atom_site_type_symbol
_atom_type_description
_atom_site_fract_x
_atom_site_fract_y
_atom_site_fract_z
_atom_type_partial_charge
O1    O     O_R   0.801910 0.607900 0.699140 -0.532868
O2    O     O_R   0.198090 0.392100 0.300860 -0.533620
O3    O     O_R   0.698090 0.107900 0.800860 -0.532867
O4    O     O_R   0.301910 0.892100 0.199140 -0.533617
O5    O     O_R   0.692320 0.276320 0.686350 -0.534446
O6    O     O_R   0.307680 0.723680 0.313650 -0.529107
O7    O     O_R   0.807680 0.776320 0.813650 -0.534442
O8    O     O_R   0.192320 0.223680 0.186350 -0.529097
C1    C     C_R   0.674065 0.445263 0.671588 0.706565
C2    C     C_R   0.325392 0.554563 0.329030 0.708181
C3    C     C_R   0.825935 0.945266 0.828411 0.706567
C4    C     C_R   0.174608 0.054560 0.170970 0.708179
O9    O     O_R   0.801140 0.278070 0.692060 -0.538092
O10   O     O_R   0.198860 0.721930 0.307940 -0.534142
O11   O     O_R   0.698860 0.778070 0.807940 -0.538093
O12   O     O_R   0.301140 0.221930 0.192060 -0.534138
O13   O     O_R   0.807690 0.109570 0.806600 -0.530799
O14   O     O_R   0.192310 0.890430 0.193400 -0.530468
O15   O     O_R   0.692310 0.609570 0.693400 -0.530799
O16   O     O_R   0.307690 0.390430 0.306600 -0.530437
C5    C     C_R   0.817220 0.445282 0.677329 0.681916
C6    C     C_R   0.183302 0.554494 0.322937 0.681349
C7    C     C_R   0.682780 0.945282 0.822671 0.681916
C8    C     C_R   0.316698 0.054494 0.177063 0.681349
O17   O     O_3   0.752020 0.441970 0.787570 -0.377053
O18   O     O_3   0.247980 0.558030 0.212430 -0.382082
O19   O     O_3   0.747980 0.941970 0.712430 -0.377059
O20   O     O_3   0.252020 0.058030 0.287570 -0.382075
V1    V     V_3+5 0.749620 0.166420 0.743030 1.365563
V2    V     V_3+5 0.250380 0.833580 0.256970 1.361284
V3    V     V_3+5 0.750380 0.666420 0.756970 1.365566
V4    V     V_3+5 0.249620 0.333580 0.243030 1.361313
C9    C     C_R   0.404939 0.193015 0.052660 0.085207
C10   C     C_R   0.585382 0.814297 0.940495 0.088119
C11   C     C_R   0.095060 0.693015 0.447338 0.085209
C12   C     C_R   0.914617 0.314293 0.559504 0.088120
C13   C     C_R   0.360902 0.196529 0.088599 0.055695
C14   C     C_R   0.629722 0.799296 0.904921 0.052598
C15   C     C_R   0.139097 0.696531 0.411400 0.055697
C16   C     C_R   0.870277 0.299292 0.595079 0.052601
C17   C     C_R   0.355862 0.050945 0.130765 -0.088660
C18   C     C_R   0.641250 0.949930 0.866787 -0.090983
C19   C     C_R   0.144137 0.550944 0.369234 -0.088642
C20   C     C_R   0.858750 0.449929 0.633212 -0.090985
C21   C     C_R   0.390193 0.899434 0.129955 -0.212574
C22   C     C_R   0.610537 0.110153 0.868804 -0.201229
C23   C     C_R   0.109807 0.399430 0.370045 -0.212570
C24   C     C_R   0.889462 0.610155 0.631194 -0.201231
H1    H     H_    0.386978 0.786431 0.160335 0.138537
H2    H     H_    0.617577 0.225834 0.840824 0.138058
H3    H     H_    0.113022 0.286426 0.339664 0.138539
H4    H     H_    0.882422 0.725838 0.659174 0.138057
C25   C     C_R   0.429640 0.890614 0.090877 -0.179433
C26   C     C_R   0.569621 0.125412 0.905743 -0.179924
C27   C     C_R   0.070359 0.390609 0.409122 -0.179438
C28   C     C_R   0.930378 0.625413 0.594255 -0.179917
H5    H     H_    0.454988 0.770592 0.091321 0.121734
H6    H     H_    0.546729 0.250639 0.905323 0.118677
H7    H     H_    0.045011 0.270585 0.408678 0.121734
H8    H     H_    0.953270 0.750641 0.594674 0.118672
C29   C     C_R   0.437808 0.035878 0.052925 0.086078
C30   C     C_R   0.556999 0.980852 0.941698 0.084228
C31   C     C_R   0.062191 0.535875 0.447073 0.086074
C32   C     C_R   0.942999 0.480850 0.558301 0.084229
C33   C     C_1   0.479926 0.019852 0.013577 -0.059391
C34   C     C_1   0.514800 0.005860 0.980543 -0.062440
C35   C     C_1   0.020072 0.519848 0.486422 -0.059394
C36   C     C_1   0.985199 0.505857 0.519456 -0.062432
C37   C     C_3   0.960099 0.932342 0.028086 -0.022681
C38   C     C_3   0.041575 0.067938 0.970844 -0.032341
C39   C     C_3   0.539906 0.432339 0.471905 -0.022683
C40   C     C_3   0.458429 0.567908 0.529150 -0.032333
C41   C     C_3   0.988169 0.118813 0.040310 0.403576
C42   C     C_3   0.014015 0.881235 0.958508 0.421738
C43   C     C_3   0.511838 0.618812 0.459688 0.403578
C44   C     C_3   0.485990 0.381205 0.541479 0.421736
C45   C     C_1   0.130065 0.052228 0.123433 -0.199330
C46   C     C_1   0.871930 0.947292 0.874272 -0.227064
C47   C     C_1   0.369935 0.552238 0.376566 -0.199326
C48   C     C_1   0.628072 0.447281 0.625724 -0.227060
C49   C     C_3   0.016635 0.842232 0.027252 -0.080512
C50   C     C_3   0.984976 0.157536 0.972175 -0.074837
C51   C     C_3   0.483370 0.342226 0.472734 -0.080538
C52   C     C_3   0.515028 0.657512 0.527823 -0.074817
C53   C     C_3   0.044158 0.030598 0.039031 0.003305
C54   C     C_3   0.957629 0.969792 0.959363 0.021537
C55   C     C_3   0.455847 0.530593 0.460961 0.003314
C56   C     C_3   0.542376 0.469768 0.540629 0.021528
C57   C     C_1   0.092033 0.050223 0.084486 0.000452
C58   C     C_1   0.910726 0.950243 0.912501 0.004469
C59   C     C_1   0.407969 0.550231 0.415511 0.000442
C60   C     C_1   0.589278 0.450223 0.587492 0.004454
C61   C     C_3   0.419150 0.357047 0.015805 -0.384657
C62   C     C_3   0.389886 0.350484 0.951995 -0.296295
C63   C     C_3   0.403849 0.516540 0.915920 -0.768702
H9    H     H_    0.392320 0.643782 0.938029 0.231433
H10   H     H_    0.447794 0.519293 0.911721 0.223968
H11   H     H_    0.381525 0.510029 0.870312 0.218836
H12   H     H_    0.401983 0.225507 0.928991 0.200736
H13   H     H_    0.345506 0.345721 0.953071 0.193524
H14   H     H_    0.411259 0.486678 0.038608 0.163193
H15   H     H_    0.463313 0.362150 0.013116 0.182196
C64   C     C_3   0.566447 0.654267 0.976374 -0.378055
C65   C     C_3   0.599115 0.638883 0.038267 -0.297990
C66   C     C_3   0.579443 0.479715 0.073702 -0.774064
H16   H     H_    0.536927 0.502048 0.082186 0.221725
H17   H     H_    0.582378 0.350150 0.048716 0.235007
H18   H     H_    0.604778 0.468466 0.117487 0.218840
H19   H     H_    0.642548 0.618804 0.033822 0.199711
H20   H     H_    0.594879 0.766836 0.063773 0.198804
H21   H     H_    0.523143 0.667823 0.982728 0.181682
H22   H     H_    0.566770 0.525753 0.950859 0.155195
C67   C     C_3   0.080847 0.857047 0.484193 -0.384656
C68   C     C_3   0.110107 0.850485 0.548005 -0.296293
C69   C     C_3   0.096113 0.016473 0.584092 -0.768730
H23   H     H_    0.107612 0.143761 0.561991 0.231444
H24   H     H_    0.052168 0.019106 0.588296 0.223965
H25   H     H_    0.118440 0.009982 0.629699 0.218842
H26   H     H_    0.098031 0.725461 0.570998 0.200744
H27   H     H_    0.154488 0.845820 0.546932 0.193521
H28   H     H_    0.088740 0.986680 0.461393 0.163182
H29   H     H_    0.036684 0.862146 0.486878 0.182213
C70   C     C_3   0.933551 0.154262 0.523626 -0.378056
C71   C     C_3   0.900882 0.138868 0.461734 -0.297992
C72   C     C_3   0.920557 0.979709 0.426297 -0.774066
H30   H     H_    0.963072 0.002062 0.417810 0.221725
H31   H     H_    0.917628 0.850143 0.451283 0.235008
H32   H     H_    0.895220 0.968447 0.382513 0.218841
H33   H     H_    0.857450 0.118772 0.466180 0.199710
H34   H     H_    0.905114 0.266822 0.436228 0.198805
H35   H     H_    0.976855 0.167821 0.517271 0.181694
H36   H     H_    0.933229 0.025750 0.549141 0.155189
C73   C     C_3   0.318805 0.349556 0.079695 -0.357007
C74   C     C_3   0.262319 0.276767 0.057152 -0.278907
C75   C     C_3   0.220150 0.428579 0.053519 -0.762628
H37   H     H_    0.219904 0.496038 0.097644 0.252460
H38   H     H_    0.228790 0.531702 0.019714 0.209105
H39   H     H_    0.179418 0.370543 0.040506 0.211621
H40   H     H_    0.263426 0.216291 0.012030 0.183690
H41   H     H_    0.249494 0.168029 0.086542 0.183076
H42   H     H_    0.318764 0.431669 0.121022 0.199970
H43   H     H_    0.327916 0.451089 0.046127 0.171105
C76   C     C_3   0.664791 0.626949 0.910012 -0.347244
C77   C     C_3   0.721592 0.663949 0.941877 -0.289692
C78   C     C_3   0.752159 0.485981 0.956359 -0.779794
H44   H     H_    0.730245 0.399515 0.986190 0.224591
H45   H     H_    0.756741 0.409661 0.914562 0.243134
H46   H     H_    0.792764 0.515351 0.979873 0.212405
H47   H     H_    0.745266 0.750579 0.914003 0.195137
H48   H     H_    0.718173 0.737410 0.984464 0.181506
H49   H     H_    0.647726 0.518033 0.935714 0.175498
H50   H     H_    0.665979 0.560506 0.866000 0.193028
C79   C     C_3   0.181194 0.849560 0.420304 -0.357001
C80   C     C_3   0.237680 0.776774 0.442849 -0.278895
C81   C     C_3   0.279849 0.928588 0.446484 -0.762660
H51   H     H_    0.280095 0.996051 0.402360 0.252447
H52   H     H_    0.271210 0.031707 0.480291 0.209113
H53   H     H_    0.320582 0.870552 0.459496 0.211619
H54   H     H_    0.236571 0.716299 0.487971 0.183690
H55   H     H_    0.250505 0.668037 0.413459 0.183076
H56   H     H_    0.181237 0.931671 0.378978 0.199973
H57   H     H_    0.172083 0.951095 0.453873 0.171093
C82   C     C_3   0.835210 0.126939 0.589991 -0.347242
C83   C     C_3   0.778407 0.163925 0.558127 -0.289690
C84   C     C_3   0.747841 0.985949 0.543652 -0.779786
H58   H     H_    0.769753 0.899477 0.513821 0.224588
H59   H     H_    0.743261 0.909640 0.585451 0.243140
H60   H     H_    0.707234 0.015308 0.520140 0.212393
H61   H     H_    0.754734 0.250560 0.586000 0.195141
H62   H     H_    0.781824 0.237373 0.515538 0.181501
H63   H     H_    0.852274 0.018022 0.564289 0.175495
H64   H     H_    0.834023 0.060501 0.634004 0.193027
O21   O     O_3   0.979835 0.236432 0.088135 -0.561319
C85   C     C_3   0.928849 0.320439 0.078369 0.098522
H65   H     H_    0.897843 0.236574 0.052803 0.127954
H66   H     H_    0.932325 0.446193 0.052572 0.122502
C86   C     C_3   0.908593 0.362647 0.138255 -0.741374
H67   H     H_    0.939315 0.438770 0.167876 0.227828
H68   H     H_    0.871098 0.445076 0.130891 0.177793
H69   H     H_    0.899633 0.233839 0.161039 0.215129
O22   O     O_3   0.022812 0.765639 0.910456 -0.548037
C87   C     C_3   0.068643 0.656017 0.925228 0.092021
H70   H     H_    0.057419 0.537008 0.950239 0.108280
H71   H     H_    0.101434 0.723632 0.954546 0.096469
C88   C     C_3   0.089752 0.592506 0.867739 -0.733731
H72   H     H_    0.097196 0.710520 0.838958 0.224892
H73   H     H_    0.128114 0.517274 0.878613 0.184492
H74   H     H_    0.059713 0.502154 0.842238 0.217239
O23   O     O_3   0.520180 0.736464 0.411874 -0.561362
C89   C     C_3   0.571174 0.820422 0.421644 0.098443
H75   H     H_    0.602176 0.736497 0.447191 0.127993
H76   H     H_    0.567716 0.946152 0.447460 0.122516
C90   C     C_3   0.591423 0.862691 0.361758 -0.741409
H77   H     H_    0.560712 0.938938 0.332167 0.227807
H78   H     H_    0.628937 0.945019 0.369129 0.177810
H79   H     H_    0.600348 0.733907 0.338942 0.215161
O24   O     O_3   0.477192 0.265593 0.589526 -0.548039
C91   C     C_3   0.431359 0.155978 0.574750 0.092016
H80   H     H_    0.442581 0.036978 0.549734 0.108277
H81   H     H_    0.398569 0.223603 0.545435 0.096473
C92   C     C_3   0.410249 0.092455 0.632238 -0.733735
H82   H     H_    0.402806 0.210461 0.661022 0.224890
H83   H     H_    0.371886 0.017225 0.621361 0.184495
H84   H     H_    0.440287 0.002099 0.657737 0.217234
C93   C     C_3   0.914967 0.866656 0.064537 -0.346624
C94   C     C_3   0.857097 0.894143 0.033774 -0.316902
C95   C     C_3   0.816268 0.894380 0.079460 -0.781329
H85   H     H_    0.817541 0.762464 0.103779 0.229816
H86   H     H_    0.825076 0.007056 0.112081 0.229783
H87   H     H_    0.775044 0.914920 0.056215 0.212877
H88   H     H_    0.852603 0.022018 0.007718 0.186012
H89   H     H_    0.846395 0.782251 0.001717 0.192792
H90   H     H_    0.920148 0.721125 0.074084 0.163904
H91   H     H_    0.920288 0.936235 0.108694 0.202910
C96   C     C_3   0.086344 0.165227 0.940919 -0.335801
C97   C     C_3   0.137351 0.054367 0.935112 -0.303772
C98   C     C_3   0.180484 0.169753 0.909999 -0.813984
H92   H     H_    0.166835 0.209162 0.862975 0.233081
H93   H     H_    0.189051 0.295000 0.936842 0.238562
H94   H     H_    0.218297 0.089650 0.910507 0.218774
H95   H     H_    0.153730 0.997860 0.979364 0.192127
H96   H     H_    0.127825 0.944341 0.902320 0.218797
H97   H     H_    0.069608 0.209805 0.895448 0.184317
H98   H     H_    0.098617 0.285175 0.968933 0.168667
C99   C     C_3   0.585032 0.366635 0.435449 -0.346632
C100  C     C_3   0.642904 0.394075 0.466212 -0.316914
C101  C     C_3   0.683731 0.394345 0.420524 -0.781333
H99   H     H_    0.682449 0.262457 0.396187 0.229821
H100  H     H_    0.674928 0.507061 0.387918 0.229789
H101  H     H_    0.724957 0.414840 0.443769 0.212877
H102  H     H_    0.647405 0.521924 0.492282 0.186018
H103  H     H_    0.653602 0.282147 0.498255 0.192787
H104  H     H_    0.579839 0.221108 0.425895 0.163945
H105  H     H_    0.579714 0.436235 0.391295 0.202902
C102  C     C_3   0.413660 0.665179 0.559078 -0.335798
C103  C     C_3   0.362652 0.554315 0.564880 -0.303781
C104  C     C_3   0.319518 0.669693 0.589994 -0.813993
H106  H     H_    0.333166 0.709099 0.637019 0.233085
H107  H     H_    0.310951 0.794941 0.563153 0.238561
H108  H     H_    0.281706 0.589585 0.589485 0.218778
H109  H     H_    0.346274 0.497817 0.520626 0.192134
H110  H     H_    0.372176 0.444284 0.597670 0.218797
H111  H     H_    0.430395 0.709743 0.604551 0.184313
H112  H     H_    0.401386 0.785134 0.531069 0.168684
C105  C     C_3   0.967005 0.334110 0.938522 -0.341913
C106  C     C_3   0.906659 0.345619 0.916876 -0.339222
C107  C     C_3   0.889004 0.539525 0.906658 -0.740364
H113  H     H_    0.897532 0.614965 0.949206 0.223998
H114  H     H_    0.911278 0.600226 0.871427 0.262058
H115  H     H_    0.845138 0.543709 0.891829 0.238517
H116  H     H_    0.898831 0.278829 0.872598 0.222738
H117  H     H_    0.881931 0.283600 0.949562 0.186804
H118  H     H_    0.977740 0.449411 0.968314 0.183504
H119  H     H_    0.988978 0.348715 0.898620 0.185980
C108  C     C_3   0.041004 0.676240 0.063120 -0.357336
C109  C     C_3   0.035762 0.686721 0.130660 -0.270095
C110  C     C_3   0.072669 0.548606 0.165785 -0.708032
H120  H     H_    0.063241 0.408518 0.149282 0.261460
H121  H     H_    0.115610 0.579414 0.161140 0.228961
H122  H     H_    0.066820 0.555181 0.214007 0.199077
H123  H     H_    0.045605 0.823838 0.149130 0.203750
H124  H     H_    0.993715 0.658638 0.138626 0.187313
H125  H     H_    0.021839 0.549369 0.046093 0.181617
H126  H     H_    0.084400 0.667239 0.056504 0.167534
C111  C     C_3   0.532996 0.834090 0.561478 -0.341886
C112  C     C_3   0.593341 0.845599 0.583131 -0.339243
C113  C     C_3   0.610997 0.039503 0.593355 -0.740362
H127  H     H_    0.602479 0.114942 0.550806 0.223990
H128  H     H_    0.588716 0.100211 0.628578 0.262061
H129  H     H_    0.654859 0.043679 0.608195 0.238532
H130  H     H_    0.601162 0.778804 0.627408 0.222739
H131  H     H_    0.618071 0.783584 0.550447 0.186811
H132  H     H_    0.522263 0.949389 0.531684 0.183511
H133  H     H_    0.511018 0.848696 0.601376 0.185979
C114  C     C_3   0.459011 0.176218 0.436862 -0.357275
C115  C     C_3   0.464222 0.186753 0.369315 -0.270103
C116  C     C_3   0.427343 0.048529 0.334204 -0.707944
H134  H     H_    0.436905 0.908413 0.350613 0.261502
H135  H     H_    0.384397 0.078937 0.338980 0.228959
H136  H     H_    0.433086 0.055443 0.285951 0.199021
H137  H     H_    0.454327 0.323835 0.350852 0.203740
H138  H     H_    0.506270 0.158837 0.361320 0.187248
H139  H     H_    0.478204 0.049376 0.453875 0.181695
H140  H     H_    0.415622 0.167135 0.443501 0.167478

loop_
_geom_bond_atom_site_label_1
_geom_bond_atom_site_label_2
_ccdc_geom_bond_type
O17   V3    S    
C75   H39   S    
C51   C55   S    
O1    C5    A    
C61   C62   S    
C55   C59   S    
C70   H36   S    
C81   H52   S    
O13   V1    S    
C92   H82   S    
C83   H62   S    
C63   H9    S    
C10   C30   A    
C40   C44   S    
O15   V3    S    
C96   H98   S    
C78   H46   S    
C68   C69   S    
C92   H83   S    
C63   H11   S    
C70   C71   S    
C42   O22   S    
C106  H117  S    
O22   C87   S    
C46   C58   T    
C98   H94   S    
O7    C3    A    
C66   H17   S    
C45   C57   T    
C73   H43   S    
C84   H58   S    
C7    C18   S    
C15   C79   S    
C75   H37   S    
C99   H105  S    
C32   C36   S    
C64   H21   S    
C83   C84   S    
C43   O23   S    
C14   C18   A    
C79   H57   S    
C109  H124  S    
C112  H130  S    
C38   C42   S    
C74   H41   S    
C65   H19   S    
O4    C8    A    
C113  H129  S    
C43   C52   S    
C88   H73   S    
O19   V1    S    
C115  H137  S    
C76   C77   S    
C104  H107  S    
O1    V3    S    
C112  H131  S    
C103  C104  S    
O2    V4    S    
C110  H120  S    
C18   C22   A    
C103  H110  S    
O3    V1    S    
C85   H65   S    
C77   H48   S    
C89   C90   S    
C87   H70   S    
C25   C29   A    
C94   H88   S    
C1    O15   A    
C67   H29   S    
C56   C60   S    
C2    O16   A    
C90   H78   S    
C27   C31   A    
O2    C6    A    
C72   H32   S    
C89   H76   S    
C102  C103  S    
C28   C32   A    
C37   C41   S    
C91   H80   S    
O14   V2    S    
C21   H1    S    
C114  H139  S    
C111  C112  S    
C44   C56   S    
C16   C20   A    
C47   C59   T    
C68   H26   S    
C24   C28   A    
C69   H25   S    
C12   C32   A    
O11   C7    A    
C21   C25   A    
O12   C8    A    
C109  H123  S    
C109  C110  S    
C81   H53   S    
C13   C17   A    
C8    C17   S    
C39   C99   S    
C83   H61   S    
O23   C89   S    
O10   V2    S    
C51   C114  S    
C44   C51   S    
C65   C66   S    
C78   H45   S    
O16   V4    S    
C78   H44   S    
C39   C51   S    
C106  H116  S    
C107  H114  S    
C66   H18   S    
C31   C35   S    
C39   C43   S    
O7    V3    S    
C30   C34   S    
O9    C5    A    
C95   H85   S    
O8    V4    S    
C12   C16   A    
C12   C70   S    
C97   C98   S    
C16   C82   S    
C54   C58   S    
C61   H14   S    
C74   H40   S    
C97   H96   S    
C25   H5    S    
C94   C95   S    
C88   H74   S    
C23   H3    S    
C26   C30   A    
C86   H68   S    
O3    C7    A    
O21   C85   S    
C105  H118  S    
O4    V2    S    
C35   C36   T    
C79   H56   S    
C64   H22   S    
C110  H121  S    
C1    C48   S    
C103  H109  S    
C48   C60   T    
C11   C15   A    
C96   C97   S    
C89   H75   S    
C80   H55   S    
C77   H47   S    
C82   H64   S    
C3    C46   S    
C29   C33   S    
C95   H87   S    
C5    C20   S    
C9    C61   S    
C101  H99   S    
C62   H13   S    
O8    C4    A    
C86   H69   S    
C102  H111  S    
C4    C45   S    
C22   C26   A    
C91   C92   S    
C99   C100  S    
C71   H34   S    
C62   C63   S    
C100  C101  S    
C68   H27   S    
C42   C54   S    
C72   H31   S    
C114  H140  S    
C85   C86   S    
C41   C53   S    
C80   C81   S    
C40   C52   S    
C14   C76   S    
C93   C94   S    
C111  H132  S    
C76   H50   S    
O6    V2    S    
C114  C115  S    
C108  H125  S    
C93   H91   S    
C86   H67   S    
C84   H60   S    
C116  H135  S    
C72   H30   S    
C92   H84   S    
C13   C73   S    
C116  H136  S    
C98   H93   S    
C100  H102  S    
C38   C96   S    
C42   C49   S    
C108  C109  S    
O5    V1    S    
C27   H7    S    
C41   C50   S    
C81   H51   S    
C40   C55   S    
C82   H63   S    
C11   C31   A    
C23   C27   A    
C67   C68   S    
C26   H6    S    
C107  H115  S    
O9    V1    S    
C75   H38   S    
C69   H24   S    
C106  C107  S    
C3    O13   A    
C53   C57   S    
C49   C108  S    
C50   C105  S    
C70   H35   S    
C10   C14   A    
C37   C93   S    
C52   C56   S    
C105  C106  S    
C77   C78   S    
C84   H59   S    
C96   H97   S    
C61   H15   S    
O6    C2    A    
C15   C19   A    
C2    C47   S    
C63   H10   S    
O11   V3    S    
C74   C75   S    
O18   V4    S    
O12   V4    S    
C66   H16   S    
C22   H2    S    
C73   H42   S    
C10   C64   S    
C40   C102  S    
C9    C13   A    
C44   O24   S    
C113  H127  S    
C99   H104  S    
C110  H122  S    
O20   V2    S    
C98   H92   S    
C80   H54   S    
C101  H100  S    
C50   C54   S    
C90   H79   S    
C65   H20   S    
C115  C116  S    
C113  H128  S    
O10   C6    A    
C88   H72   S    
C73   C74   S    
C115  H138  S    
C62   H12   S    
C100  H103  S    
C104  H106  S    
C76   H49   S    
C85   H66   S    
C97   H95   S    
C71   H33   S    
C11   C67   S    
C52   C111  S    
C33   C34   T    
C94   H89   S    
C41   O21   S    
O24   C91   S    
C38   C50   S    
C87   H71   S    
C102  H112  S    
C82   C83   S    
C37   C49   S    
C112  C113  S    
C37   C54   S    
C105  H119  S    
C93   H90   S    
C39   C56   S    
C28   H8    S    
C111  H133  S    
C24   H4    S    
C101  H101  S    
C67   H28   S    
C108  H126  S    
C9    C29   A    
C90   H77   S    
C104  H108  S    
C4    O14   A    
C64   C65   S    
C95   H86   S    
C17   C21   A    
C91   H81   S    
O5    C1    A    
C69   H23   S    
C79   C80   S    
C116  H134  S    
C38   C53   S    
C19   C23   A    
C87   C88   S    
C6    C19   S    
C49   C53   S    
C43   C55   S    
C20   C24   A    
C107  H113  S    
C71   C72   S    
