data_mof_unit_48217.cif
_audit_creation_date              2012-12-11T14:38:25-0500
_audit_creation_method            fapswitch 2.2
_symmetry_space_group_name_H-M    P1
_symmetry_Int_Tables_number       1
_space_group_crystal_system       triclinic
_cell_length_a                    19.670994
_cell_length_b                    11.116697
_cell_length_c                    19.695213
_cell_angle_alpha                 90.101899
_cell_angle_beta                  96.414167
_cell_angle_gamma                 90.046817
_cell_volume                      4279.91118681

loop_
_atom_site_label
_atom_site_type_symbol
_atom_type_description
_atom_site_fract_x
_atom_site_fract_y
_atom_site_fract_z
_atom_type_partial_charge
Br1   Br    Br    0.360921 0.109458 0.103244 -0.601887
Br2   Br    Br    0.386030 0.409233 0.420568 -0.525945
Br3   Br    Br    0.113865 0.909091 0.579363 -0.526337
Br4   Br    Br    0.886033 0.909229 0.420579 -0.527988
Br5   Br    Br    0.595447 0.276457 0.912631 -0.556709
Br6   Br    Br    0.865481 0.674805 0.089200 -0.603568
Br7   Br    Br    0.134184 0.678606 0.911110 -0.586673
Br8   Br    Br    0.587878 0.972465 0.039738 -0.469401
Br9   Br    Br    0.437797 0.913293 0.943958 -0.392511
Br10  Br    Br    0.073632 0.431885 0.052307 -0.419815
Br11  Br    Br    0.927071 0.430696 0.946953 -0.424838
Br12  Br    Br    0.613862 0.409093 0.579356 -0.527485
C1    C     C_R   0.724049 0.955371 0.360824 0.570386
C2    C     C_3   0.176982 0.484224 0.469653 -0.247029
C3    C     C_2   0.967356 0.903109 0.071043 0.311525
C4    C     C_3   0.323053 0.984214 0.530653 -0.247221
C5    C     C_3   0.676980 0.984224 0.469652 -0.246458
C6    C     C_3   0.764497 0.292974 0.553582 -0.258226
C7    C     C_3   0.235281 0.293166 0.446076 -0.257204
C8    C     C_3   0.264498 0.792974 0.553582 -0.257740
C9    C     C_3   0.735281 0.793168 0.446076 -0.257462
C10   C     C_3   0.762679 0.427533 0.566588 0.063712
C11   C     C_3   0.237272 0.427765 0.433464 0.063391
C12   C     C_3   0.262680 0.927533 0.566589 0.062989
C13   C     C_R   0.275884 0.955124 0.639250 0.574078
C14   C     C_3   0.737272 0.927766 0.433465 0.064049
C15   C     C_3   0.746822 0.392786 0.435132 0.022088
C16   C     C_3   0.253208 0.392578 0.564857 0.021783
C17   C     C_3   0.246821 0.892785 0.435132 0.021382
C18   C     C_3   0.753207 0.892579 0.564856 0.022013
C19   C     C_3   0.806664 0.480135 0.452511 -0.263496
C20   C     C_3   0.193402 0.479814 0.547784 -0.262796
C21   C     C_3   0.306662 0.980137 0.452510 -0.262819
C22   C     C_3   0.693399 0.979812 0.547784 -0.263282
C23   C     C_3   0.765284 0.275993 0.476626 -0.235354
C24   C     C_R   0.224050 0.455369 0.360823 0.571295
C25   C     C_3   0.234698 0.275866 0.523021 -0.236224
C26   C     C_3   0.265285 0.775993 0.476626 -0.235999
C27   C     C_3   0.734699 0.775867 0.523020 -0.235729
C28   C     C_3   0.437669 0.302333 0.973281 -0.154404
C29   C     C_3   0.474344 0.306467 0.045782 -0.120710
C30   C     C_3   0.988232 0.809990 0.962545 -0.134501
C31   C     C_3   0.010495 0.809935 0.037938 -0.133190
C32   C     C_3   0.420056 0.077581 0.974454 0.006177
C33   C     C_3   0.558394 0.139576 0.026760 -0.007067
C34   C     C_3   0.930413 0.603713 0.968986 0.006283
C35   C     C_R   0.775885 0.455125 0.639249 0.571550
C36   C     C_3   0.069541 0.604943 0.030878 0.006923
C37   C     C_3   0.536689 0.157439 0.950111 0.039249
C38   C     C_3   0.439860 0.083262 0.053600 0.015903
C39   C     C_3   0.056338 0.613644 0.952131 0.005122
C40   C     C_3   0.943621 0.612037 0.047785 0.005446
C41   C     C_R   0.536375 0.180295 0.338753 0.551643
C42   C     C_R   0.463619 0.180212 0.661239 0.559930
C43   C     C_R   0.036384 0.680296 0.338758 0.551898
C44   C     C_R   0.963625 0.680211 0.661242 0.552480
C45   C     C_3   0.458056 0.181062 0.937708 -0.017930
C46   C     C_3   0.680350 0.446346 0.457848 -0.196962
C47   C     C_3   0.498776 0.176025 0.069759 -0.008837
C48   C     C_3   0.987006 0.676710 0.933641 -0.014104
C49   C     C_3   0.012589 0.676478 0.066452 -0.013494
C50   C     C_1   0.761082 0.426823 0.903977 0.088298
C51   C     C_1   0.238711 0.426706 0.095901 0.062077
C52   C     C_1   0.260436 0.923820 0.903128 0.073683
C53   C     C_1   0.741831 0.921328 0.097945 0.093371
C54   C     C_1   0.747114 0.405098 0.034065 0.041455
C55   C     C_1   0.251855 0.406029 0.965579 0.042292
C56   C     C_1   0.244937 0.898414 0.032501 0.035252
C57   C     C_3   0.319677 0.446370 0.542237 -0.197060
C58   C     C_1   0.756276 0.898876 0.967910 0.015912
C59   C     C_1   0.752848 0.415262 0.963417 0.063333
C60   C     C_1   0.246603 0.415498 0.036342 0.025084
C61   C     C_1   0.251374 0.909989 0.962142 0.040143
C62   C     C_1   0.751182 0.908436 0.038796 0.051587
C63   C     C_1   0.742827 0.390582 0.094118 0.052413
C64   C     C_1   0.256312 0.391723 0.905511 0.081892
C65   C     C_1   0.240963 0.884883 0.092658 0.066308
C66   C     C_1   0.759180 0.886173 0.907420 0.029818
C67   C     C_R   0.738595 0.360036 0.362146 0.537176
C68   C     C_3   0.180349 0.946342 0.457849 -0.197208
C69   C     C_R   0.261464 0.359803 0.637801 0.539873
C70   C     C_R   0.238596 0.860038 0.362145 0.539469
C71   C     C_R   0.761463 0.859803 0.637800 0.537119
C72   C     C_R   0.723124 0.952318 0.164262 0.578886
C73   C     C_R   0.277572 0.953635 0.836314 0.562201
C74   C     C_R   0.222400 0.453803 0.163501 0.570206
C75   C     C_R   0.777610 0.454006 0.836500 0.569743
C76   C     C_R   0.529410 0.179370 0.142229 0.579161
C77   C     C_R   0.436852 0.183439 0.862765 0.553231
C78   C     C_R   0.033570 0.679736 0.140395 0.579008
C79   C     C_3   0.819675 0.946377 0.542238 -0.196755
C80   C     C_R   0.966219 0.679902 0.859687 0.579465
C81   C     C_R   0.735692 0.357180 0.163312 0.557995
C82   C     C_R   0.264064 0.357854 0.836473 0.557393
C83   C     C_R   0.235009 0.854892 0.162518 0.568537
C84   C     C_R   0.764832 0.855816 0.837350 0.549318
C85   C     C_1   0.484822 0.172110 0.594084 0.023687
C86   C     C_1   0.515112 0.172375 0.405875 0.027821
C87   C     C_1   0.984838 0.672108 0.594092 0.026469
C88   C     C_1   0.015130 0.672376 0.405885 0.026460
C89   C     C_1   0.504597 0.168530 0.464957 0.002863
C90   C     C_3   0.823053 0.484213 0.530653 -0.246569
C91   C     C_1   0.495303 0.168392 0.534982 0.001806
C92   C     C_1   0.004620 0.668529 0.464968 0.002494
C93   C     C_1   0.995325 0.668390 0.534993 0.002394
C94   C     C_3   0.690599 0.472520 0.534765 0.020177
C95   C     C_3   0.309418 0.472668 0.465375 0.020383
C96   C     C_3   0.190599 0.972519 0.534766 0.020106
C97   C     C_3   0.809417 0.972671 0.465377 0.020438
C98   C     C_2   0.449754 0.423176 0.940251 0.311694
C99   C     C_2   0.430947 0.375537 0.091987 0.295269
C100  C     C_2   0.030831 0.904472 0.929869 0.311892
Cr1   Cr    Cr6+3 0.765780 0.160710 0.267420 1.085042
Cr2   Cr    Cr6+3 0.383970 0.323720 0.751490 1.088360
Cr3   Cr    Cr6+3 0.116030 0.823720 0.248510 1.092653
Cr4   Cr    Cr6+3 0.883970 0.823720 0.751490 1.091440
Cr5   Cr    Cr6+3 0.234220 0.160710 0.732580 1.076048
Cr6   Cr    Cr6+3 0.265780 0.660710 0.267420 1.091129
Cr7   Cr    Cr6+3 0.734220 0.660710 0.732580 1.082229
Cr8   Cr    Cr6+3 0.612200 0.009560 0.248850 1.084769
Cr9   Cr    Cr6+3 0.387800 0.009560 0.751150 1.082570
Cr10  Cr    Cr6+3 0.112200 0.509560 0.248850 1.085274
Cr11  Cr    Cr6+3 0.887800 0.509560 0.751150 1.084236
Cr12  Cr    Cr6+3 0.616030 0.323720 0.248510 1.090154
H1    H     H_    0.686599 0.568400 0.542628 0.146628
H2    H     H_    0.130035 0.429081 0.456128 0.148652
H3    H     H_    0.369948 0.929080 0.544007 0.148441
H4    H     H_    0.630034 0.929080 0.456126 0.148684
H5    H     H_    0.852903 0.450666 0.429131 0.147746
H6    H     H_    0.147156 0.450067 0.571058 0.148017
H7    H     H_    0.352902 0.950670 0.429130 0.148612
H8    H     H_    0.647153 0.950061 0.571056 0.147426
H9    H     H_    0.381525 0.296937 0.976068 0.117983
H10   H     H_    0.522287 0.360247 0.044693 0.170289
H11   H     H_    0.933873 0.841048 0.953584 0.147523
H12   H     H_    0.313570 0.568554 0.457798 0.146096
H13   H     H_    0.064668 0.842210 0.046951 0.147029
H14   H     H_    0.363993 0.090665 0.962774 0.130786
H15   H     H_    0.604462 0.195276 0.042952 0.158013
H16   H     H_    0.878930 0.640880 0.951488 0.143719
H17   H     H_    0.120841 0.642951 0.048557 0.143849
H18   H     H_    0.548020 0.074777 0.921678 0.238267
H19   H     H_    0.457708 0.993866 0.073043 0.245243
H20   H     H_    0.052887 0.522637 0.928803 0.240816
H21   H     H_    0.947596 0.520941 0.070765 0.241662
H22   H     H_    0.637636 0.381264 0.445972 0.186485
H23   H     H_    0.186599 0.068399 0.542628 0.146683
H24   H     H_    0.362378 0.381401 0.553939 0.186069
H25   H     H_    0.137637 0.881257 0.445975 0.186277
H26   H     H_    0.862378 0.881413 0.553943 0.186475
H27   H     H_    0.666278 0.530552 0.429255 0.116060
H28   H     H_    0.333788 0.530559 0.571050 0.116201
H29   H     H_    0.166274 0.030547 0.429256 0.116483
H30   H     H_    0.833781 0.030569 0.571050 0.116113
H31   H     H_    0.340342 0.073726 0.549277 0.102436
H32   H     H_    0.659692 0.073768 0.451416 0.102510
H33   H     H_    0.840343 0.573724 0.549277 0.102610
H34   H     H_    0.813571 0.068555 0.457798 0.146243
H35   H     H_    0.159694 0.573768 0.451416 0.102420
H36   H     H_    0.292674 0.068596 0.431423 0.120971
H37   H     H_    0.707424 0.068183 0.569263 0.119927
H38   H     H_    0.792676 0.568596 0.431424 0.120233
H39   H     H_    0.207430 0.568184 0.569263 0.120748
H40   H     H_    0.810275 0.249481 0.581562 0.131026
H41   H     H_    0.189352 0.249812 0.418103 0.131763
H42   H     H_    0.310276 0.749481 0.581562 0.131342
H43   H     H_    0.689351 0.749814 0.418103 0.131196
H44   H     H_    0.718712 0.252002 0.571273 0.164938
H45   H     H_    0.818609 0.252021 0.468483 0.150342
H46   H     H_    0.280878 0.252206 0.427993 0.165337
H47   H     H_    0.218713 0.752001 0.571274 0.165506
H48   H     H_    0.780877 0.752206 0.427991 0.164956
H49   H     H_    0.730581 0.204570 0.457925 0.114946
H50   H     H_    0.269529 0.204593 0.541315 0.114752
H51   H     H_    0.230583 0.704569 0.457925 0.114656
H52   H     H_    0.769532 0.704594 0.541314 0.114774
H53   H     H_    0.500676 0.451372 0.931468 0.185614
H54   H     H_    0.379684 0.347306 0.098700 0.151065
H55   H     H_    0.086069 0.899735 0.934788 0.149533
H56   H     H_    0.181423 0.251578 0.531219 0.150074
H57   H     H_    0.912163 0.897151 0.066105 0.148270
H58   H     H_    0.318611 0.752022 0.468482 0.150302
H59   H     H_    0.681425 0.751577 0.531219 0.149976
H60   H     H_    0.869948 0.429078 0.544008 0.148691
O1    O     O_R   0.783100 0.287550 0.345460 -0.517806
O2    O     O_R   0.454350 0.284910 0.836260 -0.462044
O3    O     O_R   0.045650 0.784910 0.163740 -0.478821
O4    O     O_R   0.954350 0.784910 0.836260 -0.477631
O5    O     O_R   0.677950 0.374280 0.185410 -0.492316
O6    O     O_R   0.322050 0.374280 0.814590 -0.478872
O7    O     O_R   0.177950 0.874280 0.185410 -0.493855
O8    O     O_R   0.822050 0.874280 0.814590 -0.490806
O9    O     O_3   0.664670 0.164660 0.254930 -0.297950
O10   O     O_3   0.335330 0.164660 0.745070 -0.322262
O11   O     O_3   0.164670 0.664660 0.254930 -0.306277
O12   O     O_R   0.216900 0.287550 0.654540 -0.515835
O13   O     O_3   0.835330 0.664660 0.745070 -0.303337
O14   O     O_R   0.760020 0.037400 0.337700 -0.480650
O15   O     O_R   0.239980 0.037400 0.662300 -0.477376
O16   O     O_R   0.260020 0.537400 0.337700 -0.480060
O17   O     O_R   0.739980 0.537400 0.662300 -0.479601
O18   O     O_R   0.666600 0.921990 0.332020 -0.530384
O19   O     O_R   0.333400 0.921990 0.667980 -0.527131
O20   O     O_R   0.166600 0.421990 0.332020 -0.528311
O21   O     O_R   0.833400 0.421990 0.667980 -0.528403
O22   O     O_R   0.557260 0.082670 0.312540 -0.510698
O23   O     O_R   0.283100 0.787550 0.345460 -0.516460
O24   O     O_R   0.442740 0.082670 0.687460 -0.506136
O25   O     O_R   0.057260 0.582670 0.312540 -0.510031
O26   O     O_R   0.942740 0.582670 0.687460 -0.509635
O27   O     O_R   0.548410 0.285740 0.316480 -0.474836
O28   O     O_R   0.451590 0.285740 0.683520 -0.472368
O29   O     O_R   0.048410 0.785740 0.316480 -0.474897
O30   O     O_R   0.951590 0.785740 0.683520 -0.474724
O31   O     O_R   0.680500 0.375040 0.327000 -0.508939
O32   O     O_R   0.319500 0.375040 0.673000 -0.508965
O33   O     O_R   0.180500 0.875040 0.327000 -0.507435
O34   O     O_R   0.716900 0.787550 0.654540 -0.518057
O35   O     O_R   0.819500 0.875040 0.673000 -0.508097
O36   O     O_R   0.780350 0.286720 0.192720 -0.490201
O37   O     O_R   0.219650 0.286720 0.807280 -0.499948
O38   O     O_R   0.280350 0.786720 0.192720 -0.480992
O39   O     O_R   0.719650 0.786720 0.807280 -0.490590
O40   O     O_R   0.757470 0.036630 0.196110 -0.494743
O41   O     O_R   0.242530 0.036630 0.803890 -0.498221
O42   O     O_R   0.257470 0.536630 0.196110 -0.492104
O43   O     O_R   0.742530 0.536630 0.803890 -0.490619
O44   O     O_R   0.663840 0.921160 0.179280 -0.454480
O45   O     O_R   0.554710 0.081900 0.170950 -0.457992
O46   O     O_R   0.336160 0.921160 0.820720 -0.456872
O47   O     O_R   0.163840 0.421160 0.179280 -0.449807
O48   O     O_R   0.836160 0.421160 0.820720 -0.455619
O49   O     O_2   0.402468 0.492741 0.925631 -0.462692
O50   O     O_2   0.452562 0.468172 0.120054 -0.444261
O51   O     O_2   0.003117 0.991524 0.900914 -0.433237
O52   O     O_2   0.994544 0.990522 0.100375 -0.433254
O53   O     O_R   0.445290 0.081900 0.829050 -0.453423
O54   O     O_R   0.054710 0.581900 0.170950 -0.462915
O55   O     O_R   0.945290 0.581900 0.829050 -0.462726
O56   O     O_R   0.545650 0.284910 0.163740 -0.485652

loop_
_geom_bond_atom_site_label_1
_geom_bond_atom_site_label_2
_ccdc_geom_bond_type
C8    C26   S    
C24   O20   A    
Br4   C97   S    
Cr11  O26   S    
C80   O55   A    
C40   H21   S    
Cr2   O6    S    
C71   O35   A    
C17   C21   S    
C58   C66   T    
Cr8   O18   S    
C77   O2    A    
Cr9   O10   S    
Cr5   O37   S    
C16   C57   S    
Cr7   O17   S    
C7    H46   S    
C88   C92   T    
Cr10  O11   S    
C9    C14   S    
C22   H37   S    
Cr6   O16   S    
C20   H6    S    
C57   C95   S    
Cr7   O43   S    
C68   H29   S    
C17   C68   S    
C39   H20   S    
Cr6   O42   S    
Cr10  O47   S    
Cr4   O4    S    
C94   H1    S    
Cr5   O41   S    
C45   C77   S    
C81   O36   A    
C5    C14   S    
C11   C95   S    
C15   C67   S    
C40   C49   S    
Cr12  O56   S    
C41   C86   S    
C69   O32   A    
Cr6   O38   S    
C78   O3    A    
Cr2   O28   S    
C75   O48   A    
C76   O56   A    
C20   H39   S    
C34   C40   S    
Br2   C95   S    
C33   H15   S    
C99   O50   D    
C37   C45   S    
C1    O18   A    
Cr11  O21   S    
C55   C60   S    
Cr10  O20   S    
C18   C71   S    
C30   C100  S    
C47   C76   S    
C70   O23   A    
Cr5   O10   S    
C7    C25   S    
C64   C82   S    
C25   H50   S    
Br8   C33   S    
C6    H40   S    
C36   C39   S    
Cr11  O48   S    
C8    C12   S    
C66   C84   S    
C3    O52   D    
C58   C62   S    
C99   H54   S    
C32   H14   S    
C52   C61   T    
C42   C85   S    
C12   C96   S    
C67   O1    A    
C6    C23   S    
Cr8   O44   S    
Cr1   O36   S    
C44   O30   A    
Cr5   O15   S    
C98   O49   D    
C83   O7    A    
C96   H23   S    
Cr3   O7    S    
C21   H7    S    
C42   O28   A    
C76   O45   A    
Cr4   O8    S    
C19   H38   S    
C22   H8    S    
C4    C12   S    
C6    C10   S    
C5    C22   S    
Br5   C37   S    
C4    H31   S    
C97   H34   S    
C90   H33   S    
C29   H10   S    
C3    C31   S    
Cr11  O55   S    
C48   C80   S    
C82   O37   A    
C68   H25   S    
C87   C93   T    
C83   O38   A    
C1    O14   A    
C78   O54   A    
C50   C75   S    
C15   C19   S    
C23   H49   S    
C19   C90   S    
C77   O53   A    
C16   C20   S    
C12   C13   S    
Cr9   O19   S    
C79   H30   S    
Cr4   O30   S    
C72   O40   A    
C30   C48   S    
C71   O34   A    
C18   C22   S    
C9    H43   S    
C18   C79   S    
C53   C72   S    
C28   C98   S    
C98   H53   S    
C15   C23   S    
C56   C61   S    
C10   C94   S    
C65   C83   S    
C53   C62   T    
C30   H11   S    
C46   C94   S    
C2    C11   S    
C17   C26   S    
C7    C11   S    
C82   O6    A    
Cr1   O40   S    
C44   O26   A    
C95   H12   S    
C13   O15   A    
Cr2   O32   S    
C4    C21   S    
Cr7   O34   S    
Cr3   O3    S    
C54   C59   S    
C9    C27   S    
C33   C37   S    
C32   C45   S    
C41   O27   A    
C84   O39   A    
Cr1   O1    S    
C37   H18   S    
C35   O17   A    
Cr7   O39   S    
C41   O22   A    
Cr10  O25   S    
Cr4   O35   S    
Cr6   O11   S    
C14   C97   S    
C29   C47   S    
C85   C91   T    
C100  H55   S    
C46   H27   S    
C28   C29   S    
Cr12  O27   S    
Cr3   O29   S    
C75   O43   A    
C51   C74   S    
Br10  C36   S    
C74   O42   A    
C35   O21   A    
C100  O51   D    
C1    C14   S    
C73   O41   A    
C30   C31   S    
C74   O47   A    
C72   O44   A    
C52   C73   S    
C28   C45   S    
C49   C78   S    
C31   C49   S    
C34   H16   S    
Br1   C38   S    
Cr1   O14   S    
C32   C38   S    
C56   C65   T    
C25   H56   S    
Cr3   O11   S    
C33   C47   S    
Br9   C32   S    
C6    H44   S    
Cr9   O46   S    
Cr2   O10   S    
C21   H36   S    
C34   C48   S    
C16   C69   S    
Cr7   O13   S    
C57   H28   S    
Cr1   O9    S    
Cr11  O13   S    
C73   O46   A    
C24   O16   A    
Cr12  O9    S    
C2    C20   S    
C27   H52   S    
C13   O19   A    
C15   C46   S    
C10   C90   S    
C92   C93   S    
C43   O29   A    
C79   H26   S    
Cr8   O9    S    
C46   H22   S    
C5    H4    S    
C38   H19   S    
C39   C48   S    
C43   C88   S    
C81   O5    A    
Br3   C96   S    
C26   H58   S    
C8    H42   S    
C28   H9    S    
C68   C96   S    
C42   O24   A    
C43   O25   A    
C2    H2    S    
C86   C89   T    
C2    H35   S    
Cr8   O22   S    
C79   C97   S    
Cr6   O23   S    
C90   H60   S    
C17   C70   S    
C19   H5    S    
Cr5   O12   S    
C69   O12   A    
Br12  C94   S    
Cr4   O13   S    
C5    H32   S    
C84   O8    A    
C26   H51   S    
Cr10  O54   S    
C70   O33   A    
C16   C25   S    
C63   C81   S    
Cr9   O53   S    
C54   C63   T    
C3    H57   S    
C67   O31   A    
C23   H45   S    
C50   C59   T    
C31   H13   S    
C4    H3    S    
C10   C35   S    
C36   H17   S    
Br7   C39   S    
C8    H47   S    
C51   C60   T    
C38   C47   S    
C89   C91   S    
C11   C24   S    
C29   C99   S    
C36   C49   S    
C57   H24   S    
Cr2   O2    S    
Cr3   O33   S    
Br11  C34   S    
C55   C64   T    
C7    H41   S    
C44   C87   S    
Br6   C40   S    
Cr12  O5    S    
Cr8   O45   S    
C9    H48   S    
C27   H59   S    
C80   O4    A    
Cr9   O24   S    
C18   C27   S    
Cr12  O31   S    
