data_mof_unit_49647.cif
_audit_creation_date              2012-12-11T15:38:23-0500
_audit_creation_method            fapswitch 2.2
_symmetry_space_group_name_H-M    P1
_symmetry_Int_Tables_number       1
_space_group_crystal_system       triclinic
_cell_length_a                    20.57412
_cell_length_b                    7.338032
_cell_length_c                    18.830524
_cell_angle_alpha                 89.998477
_cell_angle_beta                  107.362265
_cell_angle_gamma                 90.001624
_cell_volume                      2713.37971381

loop_
_atom_site_label
_atom_site_type_symbol
_atom_type_description
_atom_site_fract_x
_atom_site_fract_y
_atom_site_fract_z
_atom_type_partial_charge
O1    O     O_R   0.422200 0.494350 0.423850 -0.526683
O2    O     O_R   0.577800 0.994350 0.576150 -0.526679
O3    O     O_R   0.555980 0.819730 0.435060 -0.541445
O4    O     O_R   0.444020 0.319730 0.564940 -0.541441
C1    C     C_R   0.575317 0.655792 0.420541 0.732250
C2    C     C_R   0.424683 0.155786 0.579459 0.732250
O5    O     O_R   0.421370 0.823790 0.415230 -0.532487
O6    O     O_R   0.578630 0.323790 0.584770 -0.532488
O7    O     O_R   0.442220 0.998380 0.556180 -0.532830
O8    O     O_R   0.557780 0.498380 0.443820 -0.532832
C3    C     C_R   0.396481 0.655430 0.394412 0.706695
C4    C     C_R   0.603519 0.155431 0.605588 0.706689
O9    O     O_3   0.507000 0.662200 0.546270 -0.377951
O10   O     O_3   0.493000 0.162200 0.453730 -0.377962
V1    V     V_3+5 0.498700 0.935390 0.491420 1.386586
V2    V     V_3+5 0.501300 0.435390 0.508580 1.386586
C5    C     C_1   0.666306 0.145450 0.667960 -0.188504
C6    C     C_1   0.333693 0.645449 0.332040 -0.188505
C7    C     C_1   0.718957 0.134505 0.719636 0.000897
C8    C     C_1   0.281043 0.634505 0.280364 0.000891
C9    C     C_1   0.781047 0.120601 0.780340 0.001254
C10   C     C_1   0.218953 0.620602 0.219660 0.001252
C11   C     C_1   0.833696 0.109681 0.832022 -0.186437
C12   C     C_1   0.166303 0.609682 0.167978 -0.186435
C13   C     C_3   0.258163 0.289151 0.815284 -0.020713
C14   C     C_3   0.741854 0.789158 0.184721 -0.020706
C15   C     C_3   0.243913 0.939559 0.793307 -0.370576
C16   C     C_3   0.756068 0.439554 0.206686 -0.370569
C17   C     C_3   0.299738 0.953602 0.752490 -0.044385
C18   C     C_3   0.700251 0.453619 0.247513 -0.044376
H1    H     H_    0.205159 0.834899 0.766587 0.137083
H2    H     H_    0.794811 0.334861 0.233393 0.137071
C19   C     C_1   0.379467 0.149443 0.625589 -0.203418
C20   C     C_1   0.620533 0.649466 0.374409 -0.203410
C21   C     C_3   0.206807 0.125290 0.791709 0.241289
C22   C     C_3   0.793194 0.625264 0.208292 0.241305
C23   C     C_3   0.311304 0.284779 0.771047 -0.409980
C24   C     C_3   0.688704 0.784799 0.228946 -0.409970
C25   C     C_3   0.292695 0.137982 0.709393 0.210267
C26   C     C_3   0.707303 0.638007 0.290604 0.210260
C27   C     C_3   0.216138 0.163749 0.659667 -0.036314
C28   C     C_3   0.783860 0.663771 0.340330 -0.036331
C29   C     C_3   0.166685 0.157979 0.708943 -0.392178
C30   C     C_3   0.833317 0.657902 0.291061 -0.392222
C31   C     C_1   0.341029 0.145923 0.663679 -0.082104
C32   C     C_1   0.658970 0.645957 0.336318 -0.082115
C33   C     C_1   0.158906 0.117122 0.837348 -0.081061
C34   C     C_1   0.841095 0.617087 0.162654 -0.081058
C35   C     C_1   0.120353 0.111159 0.875127 -0.186493
C36   C     C_1   0.879648 0.611136 0.124875 -0.186494
H3    H     H_    0.227655 0.415362 0.796444 0.101026
H4    H     H_    0.772374 0.915347 0.203573 0.101027
H5    H     H_    0.313637 0.416616 0.745321 0.148872
H6    H     H_    0.686368 0.916643 0.254665 0.148852
O11   O     O_R   0.942270 0.764870 0.056240 -0.531299
O12   O     O_R   0.057730 0.264870 0.943760 -0.531301
O13   O     O_R   0.078640 0.431230 0.084780 -0.532529
O14   O     O_R   0.921360 0.931230 0.915220 -0.532530
C37   C     C_R   0.103517 0.599728 0.105591 0.703383
C38   C     C_R   0.896483 0.099728 0.894409 0.703380
O15   O     O_R   0.944030 0.435400 0.064960 -0.535916
O16   O     O_R   0.055970 0.935400 0.935040 -0.535914
O17   O     O_R   0.922190 0.260960 0.923840 -0.529272
O18   O     O_R   0.077810 0.760960 0.076160 -0.529273
C39   C     C_R   0.925010 0.603520 0.079067 0.714241
C40   C     C_R   0.074990 0.103526 0.920934 0.714239
O19   O     O_3   0.993030 0.592980 0.953770 -0.376153
O20   O     O_3   0.006970 0.092980 0.046230 -0.376152
V3    V     V_3+5 0.001290 0.319740 0.008580 1.415973
V4    V     V_3+5 0.998710 0.819740 0.991420 1.415969
H7    H     H_    0.363679 0.261581 0.808724 0.146406
H8    H     H_    0.636331 0.761599 0.191264 0.146401
H9    H     H_    0.202860 0.046898 0.620492 0.119153
H10   H     H_    0.797126 0.546963 0.379529 0.119178
C41   C     C_3   0.291012 0.323437 0.899840 -0.349984
C42   C     C_3   0.329959 0.162093 0.944879 -0.281945
C43   C     C_3   0.373415 0.223142 0.021917 -0.792728
H11   H     H_    0.412681 0.322277 0.017059 0.224648
H12   H     H_    0.340970 0.287229 0.052724 0.233398
H13   H     H_    0.399516 0.103244 0.053966 0.216175
H14   H     H_    0.293079 0.059521 0.952735 0.192769
H15   H     H_    0.363830 0.098047 0.915965 0.186370
H16   H     H_    0.326107 0.441786 0.905970 0.173213
H17   H     H_    0.250687 0.365988 0.924717 0.168647
C44   C     C_3   0.709017 0.823484 0.100166 -0.349983
C45   C     C_3   0.670058 0.662169 0.055115 -0.281950
C46   C     C_3   0.626617 0.723255 0.978076 -0.792723
H18   H     H_    0.587369 0.822444 0.982930 0.224653
H19   H     H_    0.659077 0.787289 0.947273 0.233399
H20   H     H_    0.600494 0.603384 0.946025 0.216173
H21   H     H_    0.706930 0.559578 0.047262 0.192770
H22   H     H_    0.636175 0.598137 0.084020 0.186370
H23   H     H_    0.673933 0.941851 0.094038 0.173210
H24   H     H_    0.749350 0.866022 0.075297 0.168653
H25   H     H_    0.267081 0.889774 0.850829 0.124066
H26   H     H_    0.732889 0.389804 0.149162 0.124059
H27   H     H_    0.349134 0.954336 0.797779 0.125382
H28   H     H_    0.650853 0.454360 0.202226 0.125375
C47   C     C_3   0.301550 0.787160 0.702798 -0.359463
C48   C     C_3   0.375468 0.727356 0.711032 -0.349959
C49   C     C_3   0.380967 0.629281 0.641965 -0.677148
H29   H     H_    0.345485 0.512660 0.628847 0.213339
H30   H     H_    0.368316 0.723362 0.593598 0.225530
H31   H     H_    0.433916 0.579914 0.652207 0.229534
H32   H     H_    0.410555 0.845816 0.720572 0.203106
H33   H     H_    0.394305 0.637734 0.760438 0.178631
H34   H     H_    0.273392 0.674594 0.718324 0.149222
H35   H     H_    0.274407 0.816119 0.643532 0.182727
C50   C     C_3   0.698435 0.287189 0.297214 -0.359413
C51   C     C_3   0.624515 0.227381 0.288973 -0.349994
C52   C     C_3   0.619004 0.129338 0.358043 -0.677093
H36   H     H_    0.654464 0.012675 0.371157 0.213324
H37   H     H_    0.631677 0.223418 0.406410 0.225514
H38   H     H_    0.566047 0.080036 0.347808 0.229537
H39   H     H_    0.589428 0.345839 0.279418 0.203099
H40   H     H_    0.605684 0.137736 0.239574 0.178642
H41   H     H_    0.726599 0.174619 0.281705 0.149222
H42   H     H_    0.725572 0.316170 0.356479 0.182735
H43   H     H_    0.137056 0.286649 0.704326 0.144191
H44   H     H_    0.862983 0.786515 0.295687 0.144229
H45   H     H_    0.128416 0.047885 0.688429 0.134335
H46   H     H_    0.871557 0.547744 0.311575 0.134322
C53   C     C_3   0.204263 0.337939 0.610759 -0.359832
C54   C     C_3   0.135228 0.335577 0.549775 -0.317049
C55   C     C_3   0.124756 0.509976 0.503523 -0.775713
H47   H     H_    0.125768 0.630698 0.539450 0.221090
H48   H     H_    0.165274 0.524225 0.475942 0.230123
H49   H     H_    0.074598 0.505024 0.460012 0.215641
H50   H     H_    0.133015 0.216978 0.512390 0.191374
H51   H     H_    0.092891 0.322817 0.574741 0.194982
H52   H     H_    0.206899 0.459912 0.646157 0.177295
H53   H     H_    0.244291 0.350094 0.582570 0.181403
C56   C     C_3   0.795746 0.838032 0.389194 -0.359806
C57   C     C_3   0.864740 0.835579 0.450244 -0.317114
C58   C     C_3   0.875309 0.010235 0.496332 -0.775796
H54   H     H_    0.874545 0.130653 0.460323 0.221089
H55   H     H_    0.834697 0.025189 0.523739 0.230133
H56   H     H_    0.925388 0.005078 0.539973 0.215668
H57   H     H_    0.866813 0.717250 0.487721 0.191387
H58   H     H_    0.907107 0.822274 0.425356 0.195026
H59   H     H_    0.793188 0.959931 0.353772 0.177336
H60   H     H_    0.755683 0.850388 0.417322 0.181349

loop_
_geom_bond_atom_site_label_1
_geom_bond_atom_site_label_2
_ccdc_geom_bond_type
C58   H56   S    
C46   H18   S    
C3    C6    S    
C49   H29   S    
C53   H53   S    
C15   C17   S    
C19   C31   T    
C15   H25   S    
C52   H36   S    
O1    C3    A    
C21   C33   S    
C2    O7    A    
C50   H41   S    
C58   H54   S    
C25   C27   S    
C43   H11   S    
C26   C32   S    
C47   H35   S    
C48   H32   S    
C28   C56   S    
C7    C9    S    
C45   H21   S    
C14   C44   S    
C57   H58   S    
C41   H17   S    
O13   C37   A    
C30   H44   S    
O14   C38   A    
O16   V4    S    
C30   H46   S    
C51   C52   S    
C13   C23   S    
C44   H23   S    
O17   V3    S    
O20   V3    S    
C4    C5    S    
C55   H49   S    
C20   C32   T    
O18   V4    S    
C21   C29   S    
C29   H45   S    
C25   C31   S    
C53   C54   S    
C23   H5    S    
C34   C36   T    
O2    C4    A    
O6    V2    S    
C27   C29   S    
C28   C30   S    
O11   C39   A    
C50   H42   S    
C43   H12   S    
C11   C38   S    
C24   H8    S    
C28   H10   S    
C35   C40   S    
O16   C40   A    
C18   C50   S    
C15   H1    S    
C16   H2    S    
C42   C43   S    
C33   C35   T    
C42   H15   S    
C57   H57   S    
C17   C47   S    
C45   C46   S    
O14   V4    S    
C15   C21   S    
C44   C45   S    
C13   C41   S    
O4    V2    S    
O5    C3    A    
C41   C42   S    
C13   H3    S    
C14   H4    S    
C44   H24   S    
C47   C48   S    
C24   H6    S    
O6    C4    A    
C1    C20   S    
C17   C25   S    
C56   H60   S    
C54   H51   S    
C52   H37   S    
O1    V2    S    
O2    V1    S    
C13   C21   S    
C14   C22   S    
C8    C10   S    
C49   H31   S    
C9    C11   T    
C56   C57   S    
C10   C12   T    
C22   C30   S    
O4    C2    A    
C51   H40   S    
O3    V1    S    
C43   H13   S    
O15   V3    S    
C58   H55   S    
C18   C26   S    
C53   H52   S    
C48   H33   S    
C14   C24   S    
C26   C28   S    
O3    C1    A    
C42   H14   S    
O9    V2    S    
C57   C58   S    
C47   H34   S    
C18   H28   S    
C56   H59   S    
C2    C19   S    
C17   H27   S    
C16   H26   S    
O19   V4    S    
C27   C53   S    
C23   H7    S    
O7    V1    S    
C16   C18   S    
C23   C25   S    
O8    V2    S    
C50   C51   S    
C24   C26   S    
C41   H16   S    
C55   H47   S    
C12   C37   S    
O12   C40   A    
O5    V1    S    
C48   C49   S    
C5    C7    T    
C54   H50   S    
C22   C34   S    
C52   H38   S    
C6    C8    T    
O15   C39   A    
C36   C39   S    
O11   V4    S    
C38   O17   A    
C27   H9    S    
C37   O18   A    
C1    O8    A    
C16   C22   S    
C49   H30   S    
O12   V3    S    
C46   H20   S    
C55   H48   S    
C46   H19   S    
O10   V1    S    
C45   H22   S    
O13   V3    S    
C51   H39   S    
C29   H43   S    
C54   C55   S    
