data_mof_unit_60195.cif
_audit_creation_date              2012-10-26T20:09:46-0400
_audit_creation_method            fapswitch 2.2
_symmetry_space_group_name_H-M    P1
_symmetry_Int_Tables_number       1
_space_group_crystal_system       triclinic
_cell_length_a                    10.73194
_cell_length_b                    9.468711
_cell_length_c                    15.870727
_cell_angle_alpha                 89.99754
_cell_angle_beta                  88.702723
_cell_angle_gamma                 89.998328
_cell_volume                      1612.33242553

loop_
_atom_site_label
_atom_site_type_symbol
_atom_type_description
_atom_site_fract_x
_atom_site_fract_y
_atom_site_fract_z
_atom_type_partial_charge
Br1   Br    Br    0.134487 0.663719 0.344724 -0.441780
Br2   Br    Br    0.133616 0.323568 0.659767 -0.430534
Br3   Br    Br    0.134688 0.336848 0.344510 -0.431637
Br4   Br    Br    0.691353 0.165240 0.370119 -0.376233
Br5   Br    Br    0.691326 0.834771 0.370098 -0.365922
Br6   Br    Br    0.424767 0.201706 0.093097 -0.354756
Br7   Br    Br    0.577445 0.797628 0.090838 -0.324707
Br8   Br    Br    0.764932 0.582580 0.906751 -0.360792
Br9   Br    Br    0.682832 0.267298 0.908625 -0.365296
Br10  Br    Br    0.133505 0.675833 0.659981 -0.431738
C1    C     C_R   0.259970 0.500000 0.502159 0.643506
C2    C     C_3   0.925562 0.367421 0.550487 -0.216638
C3    C     C_3   0.074269 0.500124 0.409768 0.201694
C4    C     C_3   0.121917 0.499993 0.503178 0.052861
C5    C     C_3   0.877574 0.499986 0.503755 -0.069995
C6    C     C_R   0.499715 0.500004 0.340419 0.611425
C7    C     C_3   0.929482 0.500033 0.411823 -0.186007
C8    C     C_3   0.625017 0.083880 0.476515 0.177438
C9    C     C_3   0.625014 0.916112 0.476508 0.178287
C10   C     C_3   0.468356 0.083483 0.586403 -0.152477
C11   C     C_3   0.468358 0.916511 0.586402 -0.152937
C12   C     C_3   0.634297 0.455118 0.949434 0.297025
C13   C     C_3   0.407783 0.083315 0.443080 -0.088498
C14   C     C_3   0.407780 0.916700 0.443084 -0.089080
C15   C     C_R   0.739689 0.499996 0.502588 0.555567
C16   C     C_R   0.499381 0.499992 0.659705 0.581283
C17   C     C_3   0.468092 0.648973 0.049169 0.020733
C18   C     C_3   0.402453 0.393704 0.050276 0.019817
C19   C     C_3   0.402930 0.394380 0.952454 -0.213334
C20   C     C_3   0.468684 0.648056 0.951350 -0.217001
C21   C     C_1   0.499648 0.499906 0.749308 0.059872
C22   C     C_3   0.501616 0.499467 0.083048 -0.014978
C23   C     C_3   0.632293 0.456300 0.047646 -0.133585
C24   C     C_3   0.502736 0.498902 0.917093 -0.005096
C25   C     C_1   0.500582 0.499566 0.824837 0.022993
C26   C     C_1   0.500555 0.499851 0.175331 0.046634
C27   C     C_1   0.500004 0.499991 0.250858 0.103418
C28   C     C_3   0.068827 0.635962 0.548194 0.031289
C29   C     C_3   0.068836 0.363888 0.548059 0.030987
C30   C     C_3   0.925551 0.632491 0.550542 -0.216967
Cu1   Cu    Cu3+1 0.499860 0.642410 0.500040 0.999298
Cu2   Cu    Cu3+1 0.499860 0.357590 0.500040 1.001879
H1    H     H_    0.374640 0.678904 0.929499 0.143295
H2    H     H_    0.536417 0.879184 0.633285 0.139214
H3    H     H_    0.426233 0.121941 0.377941 0.205156
H4    H     H_    0.426223 0.878075 0.377946 0.202771
H5    H     H_    0.375399 0.122819 0.608183 0.177603
H6    H     H_    0.375402 0.877174 0.608186 0.177285
H7    H     H_    0.372710 0.677373 0.072472 0.168007
H8    H     H_    0.308583 0.427564 0.073787 0.170389
H9    H     H_    0.703917 0.529950 0.071559 0.194901
H10   H     H_    0.658128 0.350918 0.072616 0.204129
H11   H     H_    0.097861 0.730759 0.511524 0.171139
H12   H     H_    0.309049 0.426320 0.930820 0.151502
H13   H     H_    0.097800 0.269218 0.511248 0.170675
H14   H     H_    0.888972 0.631880 0.616700 0.189706
H15   H     H_    0.889061 0.368008 0.616664 0.190880
H16   H     H_    0.312658 0.121016 0.460772 0.150200
H17   H     H_    0.312654 0.879010 0.460782 0.150279
H18   H     H_    0.419517 0.286545 0.927024 0.215345
H19   H     H_    0.534377 0.728439 0.925315 0.216275
H20   H     H_    0.890649 0.730543 0.520428 0.151029
H21   H     H_    0.890599 0.269402 0.520377 0.151197
H22   H     H_    0.893080 0.593866 0.378215 0.199567
H23   H     H_    0.893185 0.406149 0.378219 0.198131
H24   H     H_    0.693924 0.117748 0.523795 0.104398
H25   H     H_    0.693929 0.882222 0.523780 0.103336
H26   H     H_    0.536409 0.120807 0.633289 0.143556
N1    N     N_3   0.500250 0.143650 0.501830 -0.269256
N2    N     N_3   0.500250 0.856350 0.501830 -0.268596
O1    O     O_R   0.317570 0.620260 0.500050 -0.489407
O2    O     O_R   0.317570 0.379740 0.500050 -0.489427
O3    O     O_R   0.499890 0.620310 0.379470 -0.460647
O4    O     O_R   0.499890 0.379690 0.379470 -0.459572
O5    O     O_R   0.682190 0.620260 0.500020 -0.493908
O6    O     O_R   0.682190 0.379740 0.500020 -0.493510
O7    O     O_R   0.499870 0.620210 0.620600 -0.508039
O8    O     O_R   0.499870 0.379790 0.620600 -0.503623

loop_
_geom_bond_atom_site_label_1
_geom_bond_atom_site_label_2
_ccdc_geom_bond_type
C13   H16   S    
C13   H3    S    
Cu1   Cu2   S    
C13   N1    S    
C14   N2    S    
C23   H10   S    
C16   O8    A    
C6    O4    A    
C22   C26   S    
C26   C27   T    
C8    C9    S    
C7    H22   S    
Cu1   O7    S    
C1    C4    S    
C1    O1    A    
Br9   C12   S    
C5    C15   S    
C4    C28   S    
C19   H12   S    
Br7   C17   S    
C24   C25   S    
C4    C29   S    
C18   H8    S    
Br2   C29   S    
Br6   C18   S    
C30   H14   S    
Br8   C12   S    
C13   C14   S    
C19   H18   S    
C9    H25   S    
Br3   C3    S    
C6    C27   S    
Cu1   O1    S    
C11   H6    S    
Br4   C8    S    
C8    N1    S    
C30   H20   S    
C16   C21   S    
C3    C4    S    
C17   C20   S    
C12   C24   S    
C29   H13   S    
Cu2   O4    S    
C16   O7    A    
C20   C24   S    
C6    O3    A    
C18   C22   S    
C2    H21   S    
C1    O2    A    
C19   C24   S    
Cu2   N1    S    
C23   H9    S    
C15   O5    A    
Cu1   O5    S    
C11   H2    S    
C2    C5    S    
Cu2   O2    S    
C2    H15   S    
Cu2   O8    S    
C21   C25   T    
C20   H1    S    
Br1   C3    S    
C5    C7    S    
C12   C23   S    
C18   C19   S    
C17   C22   S    
Cu2   O6    S    
C10   H26   S    
Br5   C9    S    
C8    H24   S    
C7    H23   S    
C3    C7    S    
C11   N2    S    
Br10  C28   S    
C15   O6    A    
C14   H4    S    
C22   C23   S    
C2    C29   S    
C28   C30   S    
C28   H11   S    
C14   H17   S    
C10   N1    S    
C5    C30   S    
C10   H5    S    
Cu1   O3    S    
C10   C11   S    
C20   H19   S    
C9    N2    S    
C17   H7    S    
Cu1   N2    S    
