data_mof_unit_31909.cif
_audit_creation_date              2012-12-11T17:39:30-0500
_audit_creation_method            fapswitch 2.2
_symmetry_space_group_name_H-M    P1
_symmetry_Int_Tables_number       1
_space_group_crystal_system       triclinic
_cell_length_a                    15.226596
_cell_length_b                    15.124154
_cell_length_c                    15.029002
_cell_angle_alpha                 108.433071
_cell_angle_beta                  110.393881
_cell_angle_gamma                 110.510864
_cell_volume                      2632.6566364

loop_
_atom_site_label
_atom_site_type_symbol
_atom_type_description
_atom_site_fract_x
_atom_site_fract_y
_atom_site_fract_z
_atom_type_partial_charge
C1    C     C_R   0.908462 0.917965 0.714438 -0.138741
C2    C     C_R   0.906850 0.684775 0.450852 -0.147019
C3    C     C_R   0.701839 0.787457 0.195884 -0.105861
C4    C     C_R   0.091990 0.296876 0.493926 -0.158991
C5    C     C_R   0.291718 0.985488 0.578299 -0.045076
C6    C     C_R   0.643444 0.689697 0.189129 0.147624
C7    C     C_R   0.342102 0.027985 0.530280 0.107747
C8    C     C_R   0.999026 0.676274 0.476182 0.057155
C9    C     C_R   0.998890 0.951998 0.176462 0.050488
C10   C     C_R   0.436862 0.606466 0.287766 -0.120799
C11   C     C_R   0.448614 0.709100 0.316154 -0.111537
C12   C     C_R   0.002252 0.300050 0.436146 0.057832
C13   C     C_R   0.460850 0.771075 0.416421 0.096702
C14   C     C_R   0.461580 0.729070 0.487714 -0.145749
C15   C     C_R   0.450769 0.626888 0.459285 -0.106681
C16   C     C_R   0.246402 0.220404 0.812344 -0.160426
C17   C     C_R   0.438399 0.565609 0.359346 -0.122843
C18   C     C_R   0.398299 0.901272 0.469124 0.471698
C19   C     C_R   0.421539 0.009541 0.514059 -0.047809
C20   C     C_R   0.512213 0.095508 0.530321 -0.049889
C21   C     C_R   0.580364 0.072225 0.501412 -0.240546
C22   C     C_R   0.562716 0.967181 0.463477 0.031356
C23   C     C_R   0.270913 0.321691 0.822522 0.134675
C24   C     C_R   0.473213 0.880273 0.448048 -0.155502
C25   C     C_R   0.558076 0.270554 0.527373 -0.171942
C26   C     C_R   0.580410 0.377533 0.573210 -0.126741
C27   C     C_R   0.584370 0.424877 0.671885 -0.082285
C28   C     C_R   0.705046 0.008638 0.416256 -0.165963
C29   C     C_R   0.566773 0.365457 0.725126 -0.105333
C30   C     C_R   0.545832 0.259312 0.680475 -0.150213
C31   C     C_R   0.539629 0.210307 0.580365 0.157341
C32   C     C_R   0.808494 0.125542 0.085647 -0.099965
C33   C     C_R   0.884228 0.223436 0.184787 -0.145917
C34   C     C_R   0.649547 0.957903 0.456964 0.099485
C35   C     C_R   0.849136 0.287431 0.235422 0.124126
C36   C     C_R   0.737008 0.252328 0.183827 -0.170824
C37   C     C_R   0.661530 0.154372 0.084437 -0.132048
C38   C     C_R   0.697219 0.090926 0.035546 -0.085159
C39   C     C_R   0.927451 0.484458 0.359431 -0.244832
C40   C     C_R   0.246852 0.312115 0.720890 -0.119615
C41   C     C_R   0.003019 0.580128 0.461006 0.070091
C42   C     C_R   0.084495 0.584205 0.546810 0.053731
C43   C     C_R   0.088803 0.492119 0.528740 -0.234649
C44   C     C_R   0.009265 0.394621 0.430917 0.057338
C45   C     C_R   0.703136 0.694609 0.285464 -0.157266
C46   C     C_R   0.929339 0.389479 0.342999 0.020729
C47   C     C_R   0.272497 0.732074 0.705214 -0.171554
C48   C     C_R   0.342827 0.816505 0.813925 -0.222324
C49   C     C_R   0.300370 0.845276 0.879584 -0.155392
C50   C     C_R   0.187230 0.790056 0.837074 0.580662
C51   C     C_R   0.116187 0.706734 0.726569 -0.317431
C52   C     C_R   0.705617 0.919262 0.510829 -0.112652
C53   C     C_R   0.158648 0.677540 0.660535 0.082331
C54   C     C_2   0.361489 0.519069 0.934305 -0.124060
C55   C     C_2   0.320555 0.420408 0.925144 -0.194695
C56   C     C_R   0.292084 0.075382 0.485094 -0.146994
C57   C     C_2   0.460405 0.613936 0.036033 -0.123751
C58   C     C_2   0.533926 0.600518 0.102722 -0.232475
C59   C     C_R   0.395979 0.208482 0.117450 -0.126223
C60   C     C_R   0.303369 0.108129 0.074674 -0.163626
C61   C     C_R   0.200080 0.097794 0.040174 0.091766
C62   C     C_R   0.191203 0.189569 0.051768 -0.143257
C63   C     C_R   0.284205 0.290094 0.096618 -0.135437
C64   C     C_R   0.909827 0.209846 0.407907 -0.114964
C65   C     C_R   0.386451 0.299506 0.128664 -0.116245
C66   C     C_R   0.101922 0.970552 0.084021 -0.170997
C67   C     C_R   0.090757 0.778547 0.537237 -0.082106
C68   C     C_R   0.001851 0.913112 0.075388 0.045097
C69   C     C_R   0.905900 0.843657 0.970603 0.038776
C70   C     C_R   0.910845 0.851084 0.882157 -0.270043
C71   C     C_R   0.005475 0.933985 0.900093 0.057903
C72   C     C_R   0.102945 0.994703 0.003417 0.083875
C73   C     C_R   0.803781 0.689996 0.990734 -0.160686
C74   C     C_R   0.707931 0.611268 0.973624 -0.102112
C75   C     C_R   0.608323 0.602073 0.914691 -0.222759
C76   C     C_R   0.090723 0.002698 0.801796 -0.126708
C77   C     C_R   0.604388 0.673635 0.875630 -0.181011
C78   C     C_R   0.908258 0.938585 0.186980 -0.125480
C79   C     C_R   0.700083 0.755340 0.894547 0.507322
C80   C     C_R   0.801550 0.762361 0.951146 -0.065415
C81   C     C_R   0.001477 0.955382 0.811402 0.060580
C82   C     C_R   0.091041 0.028484 0.279809 -0.113761
H1    H     H_    0.320663 0.126553 0.453094 0.107240
H2    H     H_    0.175927 0.349644 0.519001 0.096764
H3    H     H_    0.451879 0.595188 0.514690 0.114303
H4    H     H_    0.652759 0.138699 0.516714 0.144753
H5    H     H_    0.553391 0.234132 0.449897 0.113260
H6    H     H_    0.593822 0.423417 0.531844 0.109840
H7    H     H_    0.600947 0.507388 0.706739 0.121477
H8    H     H_    0.568625 0.400510 0.800784 0.116557
H9    H     H_    0.533183 0.214855 0.723323 0.108798
H10   H     H_    0.638712 0.015007 0.958835 0.122884
H11   H     H_    0.256294 0.200203 0.876517 0.127867
H12   H     H_    0.174817 0.799857 0.570823 0.129051
H13   H     H_    0.836266 0.076592 0.047835 0.109720
H14   H     H_    0.970198 0.249114 0.222256 0.114216
H15   H     H_    0.707724 0.299619 0.221413 0.103660
H16   H     H_    0.575247 0.127340 0.045595 0.105683
H17   H     H_    0.867744 0.484341 0.293604 0.131203
H18   H     H_    0.148069 0.494567 0.597181 0.131558
H19   H     H_    0.306459 0.709427 0.655531 0.135183
H20   H     H_    0.355754 0.909656 0.964265 0.117545
H21   H     H_    0.680139 0.042244 0.365150 0.101353
H22   H     H_    0.028479 0.663072 0.692675 0.124290
H23   H     H_    0.823261 0.891381 0.123736 0.111736
H24   H     H_    0.336462 0.528508 0.862592 0.123009
H25   H     H_    0.340580 0.412729 0.997761 0.130787
H26   H     H_    0.480632 0.694306 0.046700 0.130839
H27   H     H_    0.517048 0.520694 0.091460 0.129553
H28   H     H_    0.458332 0.377464 0.162985 0.091358
H29   H     H_    0.475313 0.216017 0.143246 0.102878
H30   H     H_    0.311998 0.038795 0.068869 0.147072
H31   H     H_    0.112668 0.183640 0.028351 0.114184
H32   H     H_    0.276788 0.360718 0.107067 0.113586
H33   H     H_    0.255783 0.375081 0.699415 0.090060
H34   H     H_    0.175207 0.063735 0.302977 0.091823
H35   H     H_    0.178780 0.015117 0.160234 0.114922
H36   H     H_    0.838367 0.796839 0.801141 0.147866
H37   H     H_    0.880076 0.694421 0.034753 0.141707
H38   H     H_    0.710498 0.555887 0.004362 0.122123
H39   H     H_    0.533698 0.538242 0.898039 0.154301
H40   H     H_    0.526538 0.666434 0.831485 0.137378
H41   H     H_    0.682625 0.872480 0.548711 0.112338
H42   H     H_    0.825216 0.183558 0.356305 0.103070
H43   H     H_    0.172605 0.020592 0.850225 0.119211
H44   H     H_    0.674028 0.638166 0.312496 0.096038
H45   H     H_    0.822506 0.619902 0.408009 0.096816
H46   H     H_    0.823997 0.864998 0.687227 0.103202
H47   H     H_    0.319366 0.954656 0.631297 0.099970
H48   H     H_    0.471317 0.775913 0.565545 0.134540
H49   H     H_    0.282991 0.747355 0.391198 0.326062
H50   H     H_    0.430451 0.858823 0.847741 0.144251
H51   H     H_    0.068133 0.768997 0.864449 0.316617
H52   H     H_    0.763446 0.893668 0.898179 0.308691
H53   H     H_    0.672555 0.815542 0.140541 0.092843
H54   H     H_    0.429740 0.486367 0.337290 0.113980
H55   H     H_    0.426121 0.558238 0.210133 0.116153
H56   H     H_    0.447597 0.739942 0.260059 0.119627
N1    N     N_R   0.941940 0.944580 0.650780 -0.039973
N2    N     N_R   0.204460 0.150250 0.707090 -0.047935
N3    N     N_R   0.794270 0.003240 0.446420 -0.039950
N4    N     N_R   0.204920 0.207570 0.650770 -0.044847
N5    N     N_R   0.793810 0.945920 0.502740 -0.043654
N6    N     N_R   0.943620 0.152590 0.446420 -0.040911
N7    N     N_R   0.055110 0.000900 0.707100 -0.044702
N8    N     N_R   0.795080 0.792430 0.349230 -0.038622
N9    N     N_R   0.206190 0.054080 0.497260 -0.043253
N10   N     N_R   0.056380 0.847410 0.553580 -0.049786
N11   N     N_R   0.944890 0.999100 0.292900 -0.043061
N12   N     N_R   0.058060 0.055420 0.349220 -0.041866
N13   N     N_R   0.943200 0.791100 0.497260 -0.039162
N14   N     N_R   0.795540 0.849750 0.292910 -0.046207
N15   N     N_R   0.205730 0.996760 0.553580 -0.051890
N16   N     N_R   0.056800 0.208900 0.502740 -0.037770
Ni1   Ni    Ni4+2 0.869690 0.869690 0.500000 0.216179
Ni2   Ni    Ni4+2 0.130310 0.130310 0.500000 0.213781
Ni3   Ni    Ni4+2 0.129250 0.998840 0.629170 0.212380
Ni4   Ni    Ni4+2 0.870750 0.001160 0.370830 0.214383
O1    O     O_3   0.300915 0.818790 0.444658 -0.780119
O2    O     O_3   0.148913 0.817345 0.905794 -0.786369
O3    O     O_3   0.690651 0.827167 0.859132 -0.796488

loop_
_geom_bond_atom_site_label_1
_geom_bond_atom_site_label_2
_ccdc_geom_bond_type
C25   C31   A    
C4    N16   A    
C63   C65   A    
C47   H19   S    
C6    C45   A    
C40   N4    A    
C27   C29   A    
C58   H27   S    
C41   C42   A    
C6    C58   S    
C66   C68   A    
C35   C36   A    
C1    H46   S    
C3    C6    A    
C39   C41   A    
C9    C78   A    
C16   H11   S    
C37   C38   A    
C78   H23   S    
C73   H37   S    
C36   C37   A    
C11   H56   S    
N2    N4    A    
N3    N5    A    
C42   C53   S    
C30   C31   A    
C12   C64   A    
C52   H41   S    
C40   H33   S    
C10   C17   A    
C1    C81   A    
C23   C40   A    
C38   H10   S    
C25   H5    S    
C18   C19   A    
C73   C74   A    
C29   H8    S    
C18   O1    S    
C21   H4    S    
C63   H32   S    
C39   H17   S    
C66   C72   A    
N8    Ni1   S    
C19   C20   A    
C68   C69   A    
C66   H35   S    
C67   H12   S    
C59   H29   S    
N10   N13   A    
C70   C71   A    
C77   H40   S    
C10   H55   S    
C32   C38   A    
C4    C12   A    
C29   C30   A    
N11   Ni4   S    
N16   Ni2   S    
C61   C62   A    
C1    N1    A    
C9    C82   A    
C15   H3    S    
C2    H45   S    
C5    H47   S    
C28   C34   A    
C59   C60   A    
N12   Ni2   S    
C13   C14   A    
N15   Ni3   S    
C76   H43   S    
C16   N2    A    
C7    C56   A    
C79   O3    S    
C37   H16   S    
C44   C46   A    
C77   C79   A    
C22   C34   S    
N14   Ni4   S    
C52   N5    A    
C74   C75   A    
C54   H24   S    
C45   N8    A    
C8    C41   S    
C62   H31   S    
C49   H20   S    
C5    C7    A    
C64   N6    A    
C50   O2    S    
C25   C26   A    
C64   H42   S    
C13   C24   S    
C55   H25   S    
C60   C61   A    
C51   C53   A    
C43   C44   A    
C62   C63   A    
C60   H30   S    
N2    Ni3   S    
N7    Ni3   S    
N5    Ni1   S    
C47   C48   A    
C4    H2    S    
C3    H53   S    
N1    Ni1   S    
C45   H44   S    
C32   H13   S    
C17   H54   S    
C50   C51   A    
C3    N14   A    
C43   H18   S    
H49   O1    S    
N9    Ni2   S    
C75   C77   A    
C82   N12   A    
C39   C46   A    
N8    N14   A    
C61   C72   S    
C36   H15   S    
C48   C49   A    
C76   N7    A    
C16   C23   A    
C7    C19   S    
C26   C27   A    
C18   C24   A    
C42   C43   A    
N6    Ni4   S    
C33   H14   S    
C56   H1    S    
C14   H48   S    
C2    N13   A    
C15   C17   A    
C54   C55   D    
N1    N7    A    
C75   H39   S    
C2    C8    A    
C30   H9    S    
C76   C81   A    
C23   C55   S    
C74   H38   S    
C34   C52   A    
N13   Ni1   S    
H52   O3    S    
C47   C53   A    
H51   O2    S    
C32   C33   A    
C56   N9    A    
C51   H22   S    
C9    C68   S    
C82   H34   S    
C71   C72   A    
C12   C44   S    
N11   N12   A    
C59   C65   A    
C11   C13   A    
C28   H21   S    
C57   C58   D    
C70   H36   S    
C5    N15   A    
C33   C35   A    
C73   C80   A    
C27   H7    S    
C22   C24   A    
N10   Ni3   S    
N6    N16   A    
C69   C70   A    
N9    N15   A    
C65   H28   S    
C10   C11   A    
C79   C80   A    
N3    Ni4   S    
C57   H26   S    
C20   C21   A    
C8    C67   A    
C26   H6    S    
C49   C50   A    
C67   N10   A    
C14   C15   A    
C48   H50   S    
C69   C80   S    
C28   N3    A    
N4    Ni2   S    
C21   C22   A    
C35   C46   S    
C54   C57   S    
C78   N11   A    
C71   C81   S    
C20   C31   S    
