data_mof_unit_46971.cif
_audit_creation_date              2012-12-11T17:01:13-0500
_audit_creation_method            fapswitch 2.2
_symmetry_space_group_name_H-M    P1
_symmetry_Int_Tables_number       1
_space_group_crystal_system       triclinic
_cell_length_a                    19.413442
_cell_length_b                    7.132803
_cell_length_c                    17.570394
_cell_angle_alpha                 89.848399
_cell_angle_beta                  108.569854
_cell_angle_gamma                 89.763101
_cell_volume                      2306.30014986

loop_
_atom_site_label
_atom_site_type_symbol
_atom_type_description
_atom_site_fract_x
_atom_site_fract_y
_atom_site_fract_z
_atom_type_partial_charge
O1    O     O_R   0.413720 0.494330 0.415730 -0.539548
O2    O     O_R   0.586280 0.994330 0.584270 -0.535577
O3    O     O_R   0.560210 0.819300 0.430070 -0.542173
O4    O     O_R   0.439790 0.319300 0.569930 -0.543145
C1    C     C_R   0.581575 0.655351 0.414791 0.717762
C2    C     C_R   0.418427 0.155513 0.585206 0.714902
O5    O     O_R   0.412670 0.823730 0.406310 -0.540359
O6    O     O_R   0.587330 0.323730 0.593690 -0.542779
O7    O     O_R   0.437690 0.998790 0.560340 -0.539347
O8    O     O_R   0.562310 0.498790 0.439660 -0.539709
C3    C     C_R   0.385718 0.655595 0.383057 0.692519
C4    C     C_R   0.614200 0.154476 0.616885 0.699687
O9    O     O_3   0.508380 0.662350 0.550560 -0.377968
O10   O     O_3   0.491620 0.162350 0.449440 -0.376933
V1    V     V_3+5 0.498450 0.935370 0.490620 1.379790
V2    V     V_3+5 0.501550 0.435370 0.509380 1.377024
C5    C     C_R   0.729194 0.987251 0.696474 0.056899
C6    C     C_R   0.302062 0.491753 0.261707 0.079394
C7    C     C_R   0.683499 0.144229 0.684355 -0.101207
C8    C     C_R   0.318628 0.647841 0.312478 -0.127089
C9    C     C_R   0.706762 0.293723 0.737814 -0.200080
C10   C     C_R   0.268164 0.796897 0.294403 -0.189998
C11   C     C_R   0.771805 0.283025 0.802920 -0.186913
C12   C     C_R   0.202576 0.785051 0.230028 -0.188840
H1    H     H_    0.785426 0.397694 0.845187 0.136269
H2    H     H_    0.164438 0.899954 0.218074 0.149600
C13   C     C_R   0.817655 0.124429 0.814197 -0.119676
C14   C     C_R   0.183577 0.620880 0.184247 -0.098275
C15   C     C_R   0.796567 0.981582 0.757059 0.079230
C16   C     C_R   0.234698 0.475104 0.201893 0.060371
C17   C     C_3   0.791243 0.777096 0.771129 -0.036108
C18   C     C_3   0.227416 0.275342 0.225028 -0.034575
C19   C     C_3   0.713752 0.787788 0.712772 -0.024536
C20   C     C_3   0.304827 0.289460 0.283475 -0.039511
H3    H     H_    0.795532 0.740915 0.834120 0.152411
H4    H     H_    0.220913 0.175482 0.174746 0.150651
C21   C     C_R   0.323389 0.300078 0.635652 -0.223823
C22   C     C_R   0.676569 0.798990 0.364507 -0.223045
C23   C     C_R   0.369502 0.147747 0.634888 -0.082497
C24   C     C_R   0.630544 0.647415 0.365169 -0.082303
C25   C     C_R   0.368625 0.988401 0.681790 -0.222497
C26   C     C_R   0.631477 0.488950 0.318139 -0.222683
C27   C     C_R   0.323513 0.982068 0.730292 0.093942
C28   C     C_R   0.676555 0.482841 0.269584 0.094429
C29   C     C_R   0.277016 0.134472 0.730447 0.065489
C30   C     C_R   0.722951 0.634511 0.269516 0.065568
C31   C     C_R   0.276528 0.293410 0.682192 0.092591
C32   C     C_R   0.723380 0.792491 0.317912 0.092343
C33   C     C_R   0.324259 0.825766 0.778760 -0.198638
C34   C     C_R   0.675851 0.327539 0.220948 -0.198481
C35   C     C_R   0.280263 0.820859 0.827978 -0.182220
C36   C     C_R   0.719796 0.322921 0.171666 -0.182407
C37   C     C_R   0.233697 0.972409 0.829909 0.081402
C38   C     C_R   0.766274 0.473741 0.169853 0.081025
C39   C     C_R   0.231163 0.128360 0.779039 0.015041
C40   C     C_R   0.768750 0.628650 0.220858 0.014962
C41   C     C_R   0.183547 0.279533 0.777088 0.089633
C42   C     C_R   0.816246 0.779059 0.222873 0.089849
C43   C     C_R   0.182771 0.435549 0.727921 -0.175116
C44   C     C_R   0.816951 0.934108 0.272174 -0.175054
C45   C     C_R   0.229161 0.442950 0.681313 -0.190190
C46   C     C_R   0.770617 0.941302 0.318856 -0.190408
C47   C     C_R   0.190184 0.972608 0.881557 0.110623
C48   C     C_R   0.809754 0.474228 0.118181 0.112272
C49   C     C_R   0.137935 0.118706 0.874161 -0.089221
C50   C     C_R   0.861917 0.619336 0.125658 -0.088225
C51   C     C_R   0.136617 0.271851 0.823207 -0.267624
C52   C     C_R   0.863140 0.771534 0.176697 -0.268664
H5    H     H_    0.323193 0.422863 0.599055 0.124104
H6    H     H_    0.676711 0.921086 0.401200 0.124017
H7    H     H_    0.404174 0.870712 0.681800 0.127819
H8    H     H_    0.595980 0.371886 0.318046 0.126705
H9    H     H_    0.359087 0.706605 0.778746 0.134380
H10   H     H_    0.641088 0.208961 0.220869 0.134548
H11   H     H_    0.282341 0.695160 0.863201 0.147262
H12   H     H_    0.717739 0.198002 0.136285 0.147415
H13   H     H_    0.098224 0.385470 0.818823 0.139065
H14   H     H_    0.901458 0.884440 0.181139 0.138519
H15   H     H_    0.146589 0.552880 0.725968 0.131593
H16   H     H_    0.853036 0.050847 0.274180 0.131495
O11   O     O_R   0.937800 0.775460 0.060470 -0.539388
O12   O     O_R   0.062200 0.275460 0.939530 -0.538164
O13   O     O_R   0.087350 0.441340 0.093710 -0.538016
O14   O     O_R   0.912650 0.941340 0.906290 -0.540987
C53   C     C_R   0.114387 0.609728 0.116713 0.698919
C54   C     C_R   0.885257 0.110737 0.883821 0.699685
O15   O     O_R   0.939820 0.446010 0.069950 -0.535590
O16   O     O_R   0.060180 0.946010 0.930050 -0.535275
O17   O     O_R   0.913690 0.271230 0.915700 -0.539151
O18   O     O_R   0.086310 0.771230 0.084300 -0.542478
C55   C     C_R   0.916023 0.613683 0.081607 0.709869
C56   C     C_R   0.083915 0.113428 0.918323 0.714341
O19   O     O_3   0.991670 0.603050 0.949510 -0.375408
O20   O     O_3   0.008330 0.103050 0.050490 -0.376099
V3    V     V_3+5 0.001550 0.329940 0.009370 1.383878
V4    V     V_3+5 0.998450 0.829940 0.990630 1.380616
H17   H     H_    0.672279 0.414331 0.730745 0.154299
H18   H     H_    0.278352 0.919672 0.332122 0.140399
C57   C     C_3   0.203888 0.826160 0.947696 -0.763373
H19   H     H_    0.185322 0.872380 0.998111 0.207850
H20   H     H_    0.177049 0.692502 0.922768 0.209528
H21   H     H_    0.263091 0.801852 0.975969 0.191831
C58   C     C_3   0.796103 0.329180 0.051966 -0.766304
H22   H     H_    0.814957 0.375525 0.001771 0.202725
H23   H     H_    0.822712 0.194338 0.076878 0.210499
H24   H     H_    0.736894 0.307123 0.023454 0.191785
H25   H     H_    0.227910 0.565791 0.644461 0.133087
H26   H     H_    0.771806 0.063413 0.355811 0.133100
C59   C     C_3   0.844522 0.668525 0.738883 -0.787091
H27   H     H_    0.900043 0.675449 0.782899 0.231557
H28   H     H_    0.828688 0.519927 0.728609 0.224768
H29   H     H_    0.845878 0.727555 0.680723 0.204520
C60   C     C_3   0.170180 0.255323 0.268563 -0.800509
H30   H     H_    0.115434 0.236766 0.224102 0.228185
H31   H     H_    0.182383 0.133053 0.309697 0.196587
H32   H     H_    0.169108 0.380474 0.305780 0.219733
C61   C     C_3   0.655677 0.775929 0.755794 -0.788377
H33   H     H_    0.667419 0.659641 0.800060 0.192326
H34   H     H_    0.653981 0.905165 0.790378 0.217800
H35   H     H_    0.601251 0.754523 0.711030 0.227918
C62   C     C_3   0.362529 0.188601 0.255610 -0.759908
H36   H     H_    0.354714 0.217216 0.191146 0.198603
H37   H     H_    0.417454 0.237480 0.291475 0.225111
H38   H     H_    0.360300 0.035436 0.263847 0.221837
H39   H     H_    0.703321 0.695714 0.659312 0.151151
H40   H     H_    0.310147 0.263465 0.347581 0.158451

loop_
_geom_bond_atom_site_label_1
_geom_bond_atom_site_label_2
_ccdc_geom_bond_type
C48   C58   S    
C50   C52   A    
O16   V4    S    
C19   C61   S    
C10   H18   S    
O15   C55   A    
C49   C56   S    
C5    C15   A    
O1    C3    A    
O2    C4    A    
C2    O7    A    
C47   C49   A    
C23   C25   A    
O5    C3    A    
C5    C19   S    
C18   H4    S    
C10   C12   A    
C7    C9    A    
C12   H2    S    
C21   H5    S    
C61   H34   S    
C41   C43   A    
C13   C15   A    
C42   C44   A    
O12   C56   A    
C6    C8    A    
C44   C46   A    
O14   V4    S    
C62   H38   S    
C47   C57   S    
C59   H28   S    
O16   C56   A    
C28   C30   A    
C49   C51   A    
O15   V3    S    
C34   C36   A    
C17   C19   S    
C6    C16   A    
C11   C13   A    
C18   C60   S    
C21   C31   A    
C22   C32   A    
O6    C4    A    
C25   H7    S    
C60   H32   S    
O6    V2    S    
C29   C31   A    
O19   V3    S    
C22   C24   A    
C25   C27   A    
C26   C28   A    
C41   C51   A    
C19   H39   S    
O4    V2    S    
C36   C38   A    
C30   C32   A    
C37   C39   A    
C52   H14   S    
C38   C40   A    
C3    C8    S    
C43   C45   A    
O4    C2    A    
C59   H27   S    
C61   H35   S    
C43   H15   S    
O11   V4    S    
C27   C33   A    
O5    V1    S    
C33   C35   A    
C35   C37   A    
C48   C50   A    
O17   V3    S    
C13   C54   S    
C39   C41   A    
C51   H13   S    
C6    C20   S    
C32   C46   A    
C57   H19   S    
C20   H40   S    
O13   V3    S    
C26   H8    S    
C17   C59   S    
C58   H23   S    
O1    V2    S    
O20   V4    S    
O2    V1    S    
C27   C29   A    
C34   H10   S    
C62   H36   S    
C42   C52   A    
C22   H6    S    
O13   C53   A    
C8    C10   A    
O19   V4    S    
C9    C11   A    
C36   H12   S    
C17   H3    S    
C59   H29   S    
C58   H22   S    
O3    V1    S    
C60   H30   S    
C28   C34   A    
C44   H16   S    
O12   V3    S    
C57   H20   S    
O10   V1    S    
C12   C14   A    
C35   H11   S    
O3    C1    A    
C54   O17   A    
C31   C45   A    
C53   O18   A    
O18   V4    S    
C50   C55   S    
C20   C62   S    
C14   C16   A    
O7    V1    S    
C1    O8    A    
C15   C17   S    
O8    V2    S    
C61   H33   S    
C16   C18   S    
C37   C47   A    
C38   C48   A    
C4    C7    S    
C24   C26   A    
C5    C7    A    
C40   C42   A    
C58   H24   S    
C33   H9    S    
C11   H1    S    
O20   V3    S    
C45   H25   S    
C62   H37   S    
C9    H17   S    
O11   C55   A    
C57   H21   S    
C46   H26   S    
C29   C39   A    
C21   C23   A    
O9    V2    S    
C30   C40   A    
C14   C53   S    
C2    C23   S    
O14   C54   A    
C1    C24   S    
C18   C20   S    
C60   H31   S    
