data_mof_unit_8828.cif
_audit_creation_date              2013-03-05T16:00:50-0500
_audit_creation_method            fapswitch 2.2
_symmetry_space_group_name_H-M    P1
_symmetry_Int_Tables_number       1
_space_group_crystal_system       triclinic
_cell_length_a                    8.251854
_cell_length_b                    12.821248
_cell_length_c                    18.735819
_cell_angle_alpha                 99.377718
_cell_angle_beta                  90.988416
_cell_angle_gamma                 98.739118
_cell_volume                      1931.24117228

loop_
_atom_site_label
_atom_site_type_symbol
_atom_site_description
_atom_site_fract_x
_atom_site_fract_y
_atom_site_fract_z
_atom_type_partial_charge
P1    P     P_3+3 0.041040 0.394770 0.336330 0.460635
O1    O     O_2   0.873090 0.425890 0.325140 -0.375362
O2    O     O_3   0.122420 0.434370 0.414380 -0.403030
O3    O     O_3   0.659500 0.627100 0.368810 -0.369406
O4    O     O_2   0.770942 0.544859 0.244131 -0.410112
O5    O     O_3   0.001016 0.256098 0.313618 -0.574645
O6    O     O_3   0.706602 0.738196 0.251070 -0.512547
H1    H     H_    0.711380 0.868534 0.331464 0.110812
C1    C     C_3   0.556914 0.880591 0.239954 -0.979044
H2    H     H_    0.491975 0.941800 0.271049 0.234505
H3    H     H_    0.658033 0.921190 0.211467 0.311662
P2    P     P_3+3 0.672880 0.754030 0.556100 0.490548
P3    P     P_3+3 0.132559 0.820984 0.400614 0.441298
O7    O     O_2   0.848200 0.768190 0.534530 -0.399988
O8    O     O_3   0.081160 0.685950 0.404810 -0.387687
O9    O     O_2   0.007771 0.877934 0.446481 -0.403286
O10   O     O_3   0.684288 0.811769 0.649385 -0.574405
O11   O     O_3   0.087016 0.838608 0.312359 -0.510055
C2    C     C_3   0.127582 0.752385 0.263325 0.428420
H4    H     H_    0.045236 0.677284 0.268374 0.154168
H5    H     H_    0.256637 0.741707 0.272427 0.011948
C3    C     C_3   0.105907 0.774623 0.186683 -0.846190
H6    H     H_    0.975091 0.778152 0.174206 0.294379
H7    H     H_    0.180991 0.851978 0.180757 0.267189
C4    C     C_3   0.223940 0.774220 0.605179 0.456399
H8    H     H_    0.333842 0.744070 0.582798 0.074255
H9    H     H_    0.117815 0.741425 0.567229 0.143855
C5    C     C_3   0.244618 0.895266 0.611076 -0.981912
H10   H     H_    0.376589 0.929683 0.617538 0.229075
H11   H     H_    0.195992 0.917014 0.561191 0.260526
H12   H     H_    0.174204 0.930781 0.656045 0.276393
Ba1   Ba    Ba6+2 0.852780 0.548340 0.465070 1.571473
C6    C     C_3   0.954152 0.210162 0.373930 0.296660
H13   H     H_    0.849538 0.245238 0.398077 0.093622
H14   H     H_    0.057906 0.223940 0.414460 0.134911
C7    C     C_3   0.902111 0.089728 0.349326 -0.798788
H15   H     H_    0.773664 0.074645 0.326715 0.203728
H16   H     H_    0.906208 0.047473 0.396279 0.169661
C8    C     C_3   0.770817 0.759481 0.694269 0.135405
H17   H     H_    0.887050 0.740740 0.670458 0.102903
C9    C     C_3   0.807190 0.829914 0.770655 -0.713166
H18   H     H_    0.809296 0.778104 0.812831 0.157431
H19   H     H_    0.706868 0.877902 0.783284 0.280664
P4    P     P_3+3 0.148670 0.605320 0.663680 0.482243
O12   O     O_2   0.316610 0.574140 0.674900 -0.300638
O13   O     O_3   0.067290 0.565720 0.585630 -0.419982
O14   O     O_3   0.530210 0.372990 0.631200 -0.306442
O15   O     O_3   0.199763 0.744771 0.673605 -0.531624
P5    P     P_3+3 0.066732 0.176220 0.595598 0.446935
O16   O     O_3   0.611340 0.366290 0.463630 -0.386159
O17   O     O_3   0.108550 0.314140 0.595200 -0.397948
O18   O     O_2   0.212593 0.126575 0.561297 -0.407756
O19   O     O_3   0.077198 0.160835 0.686961 -0.564102
Ba2   Ba    Ba6+2 0.337060 0.451750 0.534940 1.594352
P6    P     P_3+3 0.641193 0.612503 0.274755 0.442072
C10   C     C_3   0.623395 0.814943 0.291066 0.460522
H20   H     H_    0.518780 0.780805 0.320882 0.032274
H21   H     H_    0.470407 0.827401 0.198804 0.266354
O20   O     O_3   0.578370 0.633800 0.536380 -0.347110
C11   C     C_3   0.466528 0.282314 0.314666 0.422687
H22   H     H_    0.344817 0.301012 0.331837 0.100374
H23   H     H_    0.561590 0.353994 0.330645 0.119785
C12   C     C_3   0.461820 0.253269 0.232503 -0.903734
H24   H     H_    0.362846 0.184881 0.213785 0.271942
H25   H     H_    0.438092 0.322379 0.207430 0.219781
H26   H     H_    0.581401 0.231131 0.214452 0.265058
P7    P     P_3+3 0.521554 0.230809 0.439271 0.442584
O21   O     O_2   0.341510 0.231850 0.465510 -0.362137
O22   O     O_3   0.503768 0.195161 0.344854 -0.560295
H27   H     H_    0.145785 0.710469 0.147243 0.211321
C13   C     C_3   0.090800 0.262758 0.730490 0.435442
H28   H     H_    0.210859 0.309597 0.724186 0.167788
H29   H     H_    0.996873 0.308432 0.715425 0.118322
C14   C     C_3   0.070601 0.254313 0.809757 -0.869371
H30   H     H_    0.089780 0.335213 0.842591 0.219071
H31   H     H_    0.945654 0.213415 0.818206 0.298710
H32   H     H_    0.164428 0.212092 0.829124 0.290699
P8    P     P_3+3 0.551420 0.384288 0.725896 0.525118
C15   C     C_3   0.482747 0.169556 0.718667 0.184318
O23   O     O_2   0.431392 0.459877 0.756812 -0.345444
O24   O     O_3   0.476844 0.268621 0.762899 -0.570081
H33   H     H_    0.414552 0.165132 0.666588 0.106854
H34   H     H_    0.418174 0.000733 0.730866 0.151747
C16   C     C_3   0.398821 0.080530 0.758479 -0.116722
H35   H     H_    0.265110 0.079192 0.757253 0.144046
C17   C     C_R   0.985041 0.456974 0.051846 0.054467
C18   C     C_R   0.888508 0.411886 0.103943 -0.119648
C19   C     C_R   0.766444 0.402332 0.951505 0.293972
C20   C     C_R   0.923673 0.457446 0.979784 -0.103706
C21   C     C_R   0.707009 0.415321 0.884465 -0.210422
C22   C     C_R   0.808868 0.461588 0.835809 -0.097970
C23   C     C_R   0.966613 0.515753 0.860507 -0.003771
C24   C     C_R   0.022564 0.516800 0.933453 0.039733
C25   C     C_R   0.761020 0.448229 0.761919 0.312072
C26   C     C_R   0.875710 0.482195 0.712914 -0.466139
C27   C     C_R   0.023283 0.549035 0.736205 0.155131
C28   C     C_R   0.068602 0.567779 0.812049 -0.039530
C29   C     C_R   0.149197 0.503667 0.073409 0.061565
C30   C     C_R   0.212863 0.499353 0.144510 -0.001233
C31   C     C_R   0.111810 0.449356 0.193935 -0.054158
C32   C     C_R   0.954574 0.398734 0.169569 -0.039075
H36   H     H_    0.845633 0.460703 0.655459 0.214762
H37   H     H_    0.582918 0.378567 0.869242 0.232249
H38   H     H_    0.874453 0.353972 0.202431 0.172656
C33   C     C_R   0.207076 0.639600 0.842092 -0.061985
C34   C     C_R   0.256190 0.649337 0.915771 -0.157905
C35   C     C_R   0.178709 0.574869 0.958587 0.001675
C36   C     C_R   0.248256 0.558542 0.025818 0.069273
C37   C     C_R   0.416481 0.590791 0.045716 -0.095356
C38   C     C_R   0.376722 0.545750 0.166273 -0.023958
C39   C     C_R   0.478724 0.586270 0.114734 -0.133167
C40   C     C_R   0.432681 0.549852 0.238845 0.172096
C41   C     C_R   0.325894 0.508586 0.288284 -0.536173
C42   C     C_R   0.167607 0.456035 0.267025 0.253192
H39   H     H_    0.268557 0.694468 0.809679 0.196401
H40   H     H_    0.607717 0.615319 0.127050 0.173063
H41   H     H_    0.368856 0.514101 0.343864 0.180178
H42   H     H_    0.757871 0.390407 0.098502 0.171597
H43   H     H_    0.502837 0.619252 0.007822 0.120137
C43   C     C_R   0.772868 0.177808 0.519648 -0.407828
C44   C     C_R   0.438486 0.805510 0.463038 -0.518744
C45   C     C_R   0.406904 0.982006 0.441617 -0.205435
C46   C     C_R   0.345217 0.873499 0.435690 0.192697
C47   C     C_R   0.586387 0.845793 0.502899 0.316433
C48   C     C_R   0.651770 0.957368 0.508910 -0.051829
C49   C     C_R   0.560309 0.025543 0.476887 -0.071130
C50   C     C_R   0.622122 0.136492 0.483346 0.226182
C51   C     C_R   0.867403 0.112439 0.548458 0.291442
C52   C     C_R   0.804639 0.003594 0.545640 -0.216149
H44   H     H_    0.330818 0.032062 0.420593 0.222038
H45   H     H_    0.876999 0.957142 0.572513 0.183785
H46   H     H_    0.818910 0.262495 0.524777 0.163608
H47   H     H_    0.388686 0.721447 0.458157 0.166149
C53   C     C_2   0.013289 0.046324 0.293060 1.328880
O25   O     O_2   0.957258 0.003235 0.232862 -0.643628
O26   O     O_R   0.181550 0.058973 0.309110 -0.793338
H48   H     H_    0.243966 0.027672 0.266871 0.316132
C54   C     C_2   0.661286 0.658969 0.703324 1.008134
O27   O     O_2   0.649801 0.582064 0.655319 -0.552916
O28   O     O_R   0.565340 0.652653 0.763512 -0.745372
H49   H     H_    0.533396 0.723411 0.785161 0.327011
C55   C     C_2   0.967166 0.903145 0.784389 1.149384
O29   O     O_2   0.095845 0.867242 0.779510 -0.639325
O30   O     O_R   0.966981 0.009151 0.816190 -0.738987
H50   H     H_    0.076350 0.042464 0.841414 0.333295
C56   C     C_2   0.654573 0.151550 0.703112 0.918185
O31   O     O_2   0.740604 0.214207 0.672451 -0.698197
O32   O     O_R   0.712222 0.060736 0.719537 -0.759198
H51   H     H_    0.822033 0.050785 0.699044 0.363610
N1    N     N_R   0.461179 0.094457 0.833524 0.300590
O33   O     O_R   0.414257 0.166403 0.882467 -0.308232
O34   O     O_R   0.545914 0.025833 0.853631 -0.305042
N2    N     N_R   0.671973 0.320534 0.983694 0.238247
O35   O     O_R   0.729882 0.232946 0.988672 -0.317690
O36   O     O_R   0.521027 0.327898 0.000127 -0.368922
C57   C     C_2   0.365312 0.749238 0.949264 1.030857
O37   O     O_2   0.343694 0.791553 0.011032 -0.622267
O38   O     O_R   0.488850 0.797269 0.909815 -0.796610
H52   H     H_    0.554549 0.864519 0.938813 0.370396

loop_
_geom_bond_atom_site_label_1
_geom_bond_atom_site_label_2
_geom_bond_distance
_ccdc_geom_bond_type
C12   H25   1.108756 S    
C49   C50   1.421129 A    
P6    C40   1.849963 S    
C9    H18   1.113577 S    
C26   C27   1.396575 A    
O6    P6    1.749946 S    
C51   C52   1.404974 A    
H1    C10   1.109989 S    
C43   C50   1.394184 A    
O8    Ba1   2.766098 S    
C8    C9    1.560585 S    
C10   H20   1.109220 S    
C4    C5    1.520814 S    
O16   Ba2   2.913596 S    
C14   H31   1.109708 S    
P3    O11   1.747178 S    
C11   C12   1.522060 S    
C3    H7    1.109681 S    
O1    Ba1   2.849556 S    
C5    H10   1.107852 S    
C2    H5    1.107962 S    
O11   C2    1.403653 S    
C37   C39   1.396379 A    
C15   C16   1.547235 S    
P3    C46   1.849759 S    
O2    Ba2   2.804796 S    
P8    O23   1.544116 D    
Ba2   O21   2.912111 S    
C34   C35   1.430274 A    
C6    C7    1.530007 S    
C29   C36   1.418833 A    
C36   C37   1.412251 A    
C11   H23   1.110291 S    
P1    O1    1.519585 D    
O10   C8    1.405308 S    
C38   C39   1.403363 A    
C23   C24   1.432327 A    
C44   C47   1.401911 A    
C18   C32   1.381965 A    
P2    O20   1.600029 S    
C2    H4    1.109457 S    
C5    H11   1.103779 S    
P5    O17   1.750711 S    
C14   H32   1.098107 S    
P2    O10   1.778518 S    
C35   C36   1.434338 A    
C39   H40   1.080751 S    
N2    O36   1.301798 A    
C1    H2    1.109961 S    
C26   H36   1.081499 S    
C28   C33   1.399865 A    
C12   H26   1.110849 S    
C43   H46   1.082550 S    
P2    Ba1   3.446539 S    
C9    H19   1.110831 S    
O2    Ba1   2.931991 S    
O6    C10   1.408534 S    
Ba1   Ba2   4.590061 S    
C40   C41   1.400211 A    
P4    O13   1.570893 S    
C23   C28   1.425006 A    
C15   C56   1.496798 S    
C56   O32   1.398846 S    
Ba2   O20   2.824743 S    
C44   C46   1.396621 A    
C14   H30   1.103712 S    
P7    O21   1.574240 D    
C2    C3    1.521607 S    
C31   C42   1.422184 A    
O28   H49   1.006714 S    
C18   H42   1.070121 S    
C41   C42   1.394937 A    
O7    Ba1   2.911877 S    
C8    H17   1.107510 S    
C15   O24   1.406971 S    
C17   C18   1.411466 A    
O26   H48   1.012913 S    
C53   O26   1.394937 S    
C4    H8    1.102066 S    
C30   C38   1.416312 A    
P1    Ba1   3.408689 S    
P1    O5    1.738222 S    
C11   H22   1.108534 S    
P1    O2    1.570894 S    
C45   C49   1.409577 A    
P4    C27   1.891790 S    
P7    C50   1.854627 S    
C15   H33   1.106936 S    
H34   C16   1.104481 S    
P2    C47   1.870803 S    
P5    O18   1.546950 D    
C27   C28   1.435240 A    
O13   Ba2   2.932893 S    
C6    H13   1.103301 S    
C1    C10   1.520296 S    
C16   H35   1.100675 S    
C1    H3    1.107243 S    
C4    O15   1.403439 S    
Ba1   O16   2.825366 S    
O3    Ba1   2.792806 S    
C54   O28   1.395038 S    
O14   Ba2   2.792148 S    
C41   H41   1.082001 S    
P4    Ba2   3.409286 S    
C19   C21   1.384801 A    
O12   Ba2   2.849891 S    
C32   H38   1.076777 S    
C34   C57   1.487710 S    
P3    O8    1.733743 S    
O3    P6    1.742963 S    
C48   C49   1.431558 A    
N1    O34   1.300323 A    
P1    C42   1.877172 S    
O19   C13   1.410793 S    
C22   C23   1.410896 A    
P4    O12   1.519925 D    
C37   H43   1.080682 S    
C13   H29   1.098890 S    
C56   O31   1.212642 D    
O16   P7    1.764490 S    
P5    C51   1.860115 S    
C57   O37   1.223668 D    
C3    H6    1.109744 S    
Ba1   O13   2.804146 S    
O4    P6    1.539125 D    
C5    H12   1.107723 S    
P2    O7    1.501177 D    
O30   H50   1.011261 S    
C17   C20   1.435054 A    
C7    C53   1.503327 S    
C13   C14   1.516775 S    
C43   C51   1.390641 A    
C53   O25   1.221638 D    
C4    H9    1.103841 S    
C33   C34   1.412310 A    
O14   P8    1.759910 S    
O5    C6    1.391434 S    
C33   H39   1.078168 S    
O17   Ba2   2.766735 S    
C44   H47   1.082063 S    
C19   N2    1.430116 S    
C57   O38   1.395812 S    
N2    O35   1.301454 A    
C13   H28   1.096566 S    
C30   C31   1.421773 A    
C24   C35   1.417592 A    
C22   C25   1.408921 A    
P8    O24   1.769486 S    
C21   C22   1.393041 A    
O38   H52   1.013742 S    
C11   O22   1.402583 S    
P8    C25   1.862151 S    
P5    O19   1.756880 S    
C7    H16   1.108324 S    
C31   C32   1.392924 A    
C6    H14   1.108486 S    
C3    H27   1.106095 S    
C55   O30   1.392480 S    
O32   H51   1.007953 S    
C20   C24   1.431620 A    
C25   C26   1.401203 A    
C17   C29   1.418590 A    
C38   C40   1.418606 A    
C21   H37   1.073049 S    
C8    C54   1.492989 S    
C54   O27   1.212358 D    
C12   H24   1.109565 S    
C48   C52   1.423389 A    
C9    C55   1.491086 S    
C19   C20   1.427957 A    
C1    H21   1.109407 S    
C7    H15   1.111683 S    
C29   C30   1.436083 A    
P3    O9    1.544824 D    
C55   O29   1.218980 D    
N1    O33   1.298767 A    
Ba1   O20   2.914500 S    
P7    O22   1.751267 S    
C45   C46   1.392621 A    
C45   H44   1.075891 S    
P4    O15   1.751833 S    
C47   C48   1.435648 A    
C52   H45   1.077112 S    
C16   N1    1.462486 S    
