data_mof_unit_17458.cif
_audit_creation_date              2012-12-11T15:45:21-0500
_audit_creation_method            fapswitch 2.2
_symmetry_space_group_name_H-M    P1
_symmetry_Int_Tables_number       1
_space_group_crystal_system       triclinic
_cell_length_a                    8.446757
_cell_length_b                    19.060712
_cell_length_c                    22.837858
_cell_angle_alpha                 95.864521
_cell_angle_beta                  89.886882
_cell_angle_gamma                 94.347747
_cell_volume                      3647.09118065

loop_
_atom_site_label
_atom_site_type_symbol
_atom_type_description
_atom_site_fract_x
_atom_site_fract_y
_atom_site_fract_z
_atom_type_partial_charge
Ba1   Ba    Ba6+2 0.850680 0.532880 0.472010 1.803181
Ba2   Ba    Ba6+2 0.339140 0.467180 0.527990 1.742239
C1    C     C_3   0.550086 0.706990 0.212175 -0.293373
C2    C     C_3   0.522329 0.707731 0.278565 0.709954
C3    C     C_3   0.460599 0.316616 0.346207 0.748496
C4    C     C_3   0.345474 0.251153 0.327603 -0.259348
C5    C     C_3   0.040701 0.265213 0.693422 0.804577
C6    C     C_3   0.943252 0.193026 0.693246 -0.256661
C7    C     C_3   0.539553 0.270494 0.646528 0.411464
C8    C     C_3   0.486669 0.194567 0.657421 -0.278140
C9    C     C_R   0.334971 0.516656 0.331473 -0.232276
C10   C     C_R   0.192327 0.477110 0.923313 -0.018627
C11   C     C_R   0.150227 0.479721 0.863681 0.634027
C12   C     C_3   0.991369 0.733417 0.327131 0.675401
C13   C     C_R   0.886635 0.507427 0.891487 0.612565
C14   C     C_R   0.927538 0.508260 0.951926 -0.031845
C15   C     C_R   0.080371 0.491491 0.967702 -0.046370
C16   C     C_R   0.344265 0.459567 0.939462 -0.021795
C17   C     C_R   0.383645 0.455994 0.998469 -0.082309
C18   C     C_R   0.274187 0.471759 0.043567 -0.020522
C19   C     C_R   0.122264 0.489948 0.028089 -0.045921
C20   C     C_R   0.818819 0.525038 0.997134 -0.070645
C21   C     C_R   0.860328 0.524264 0.056438 -0.031506
C22   C     C_R   0.012168 0.506576 0.072730 -0.042547
C23   C     C_3   0.912637 0.802694 0.322401 -0.191616
C24   C     C_R   0.056818 0.506350 0.132580 0.644640
C25   C     C_R   0.313985 0.470008 0.103656 0.580970
C26   C     C_2   0.815443 0.440294 0.766494 -0.083549
C27   C     C_3   0.783006 0.419539 0.701270 -0.089553
C28   C     C_1   0.004512 0.507359 0.682058 0.006385
C29   C     C_2   0.048732 0.513680 0.738425 -0.034252
C30   C     C_2   0.947407 0.482108 0.784901 0.251432
C31   C     C_R   0.401614 0.530222 0.229897 -0.028008
C32   C     C_R   0.440051 0.542417 0.290416 -0.020777
C33   C     C_R   0.193214 0.478519 0.313522 0.018843
C34   C     C_3   0.253486 0.689117 0.670667 0.602844
C35   C     C_R   0.155094 0.465214 0.253119 0.028130
C36   C     C_R   0.255925 0.493437 0.210208 0.285598
C37   C     C_2   0.881516 0.464448 0.661314 -0.235308
C38   C     C_R   0.387005 0.701745 0.484546 -0.221910
C39   C     C_R   0.534017 0.724159 0.509470 0.079619
C40   C     C_R   0.581279 0.796549 0.519891 -0.022454
C41   C     C_R   0.480872 0.847097 0.504078 0.065611
C42   C     C_R   0.331645 0.823468 0.478681 0.041392
C43   C     C_R   0.284904 0.750801 0.470000 0.119821
C44   C     C_R   0.528290 0.960199 0.459574 -0.109587
C45   C     C_3   0.244076 0.679141 0.737749 0.339935
C46   C     C_R   0.590848 0.030397 0.459982 0.453908
C47   C     C_R   0.653424 0.068153 0.512946 -0.033476
C48   C     C_R   0.663002 0.030312 0.562627 -0.150479
C49   C     C_R   0.607471 0.958646 0.560476 -0.047329
C50   C     C_R   0.536884 0.923404 0.508992 -0.035216
C51   C     C_R   0.851474 0.172573 0.544680 -0.124197
C52   C     C_R   0.893400 0.246121 0.552875 -0.024355
C53   C     C_R   0.651929 0.267582 0.503103 0.000317
C54   C     C_R   0.604163 0.195021 0.498730 -0.071817
C55   C     C_R   0.704137 0.146088 0.518551 0.055643
C56   C     C_3   0.987574 0.321948 0.410168 0.256824
C57   C     C_R   0.791627 0.292895 0.532837 -0.276705
C58   C     C_3   0.948484 0.243200 0.395583 -0.298808
C59   C     C_3   0.730040 0.643267 0.652394 0.675731
C60   C     C_3   0.631173 0.579834 0.670185 -0.283196
H1    H     H_    0.128232 0.652450 0.746231 0.039150
H2    H     H_    0.332520 0.642099 0.747820 -0.026501
H3    H     H_    0.879078 0.346887 0.425845 0.039159
H4    H     H_    0.079981 0.330333 0.445143 0.066653
H5    H     H_    0.862281 0.233905 0.358586 0.181937
H6    H     H_    0.897851 0.219788 0.434090 0.107000
H7    H     H_    0.056322 0.215988 0.383110 0.099236
H8    H     H_    0.835657 0.626432 0.627858 -0.044466
H9    H     H_    0.646890 0.746830 0.202810 0.145039
H10   H     H_    0.522263 0.596366 0.692129 0.131312
H11   H     H_    0.695038 0.554377 0.703233 0.068643
H12   H     H_    0.602525 0.542126 0.630957 0.093328
H13   H     H_    0.409658 0.677124 0.286933 -0.057746
H14   H     H_    0.441198 0.719084 0.189344 0.132972
H15   H     H_    0.391162 0.359051 0.368171 -0.078506
H16   H     H_    0.325665 0.220449 0.366014 0.097302
H17   H     H_    0.230364 0.270581 0.316757 0.088018
H18   H     H_    0.585583 0.655054 0.192924 0.091711
H19   H     H_    0.961174 0.307893 0.688268 -0.208180
H20   H     H_    0.024456 0.150013 0.683909 0.096606
H21   H     H_    0.855808 0.187639 0.657122 0.002672
H22   H     H_    0.671267 0.275494 0.644786 -0.142142
H23   H     H_    0.489109 0.280100 0.603556 0.060195
H24   H     H_    0.565270 0.157852 0.633296 0.032586
H25   H     H_    0.364118 0.179593 0.641236 0.144811
H26   H     H_    0.905188 0.695462 0.346071 0.051362
H27   H     H_    0.491877 0.187101 0.704741 0.157480
H28   H     H_    0.772630 0.537628 0.089597 0.147061
H29   H     H_    0.701025 0.539122 0.986773 0.120327
H30   H     H_    0.500994 0.441245 0.008678 0.115194
H31   H     H_    0.483930 0.549520 0.198222 0.088733
H32   H     H_    0.433034 0.447552 0.906378 0.152836
H33   H     H_    0.165147 0.538034 0.750572 0.101301
H34   H     H_    0.742670 0.413744 0.798025 0.091495
H35   H     H_    0.045863 0.434352 0.239820 0.114327
H36   H     H_    0.364852 0.525840 0.377831 0.061760
H37   H     H_    0.859555 0.454616 0.614328 0.065557
H38   H     H_    0.490513 0.176982 0.478928 0.129533
H39   H     H_    0.478220 0.932616 0.419303 0.190108
H40   H     H_    0.695116 0.813285 0.540563 0.082601
H41   H     H_    0.712745 0.056383 0.603539 0.096062
H42   H     H_    0.617192 0.931091 0.599317 0.143261
H43   H     H_    0.933495 0.136311 0.558329 0.075368
H44   H     H_    0.253203 0.861212 0.465305 0.036650
H45   H     H_    0.827944 0.348810 0.535786 0.045278
H46   H     H_    0.831783 0.793363 0.284297 0.157031
H47   H     H_    0.349805 0.645878 0.477811 0.046540
H48   H     H_    0.840305 0.814150 0.362302 0.137712
H49   H     H_    0.363377 0.668042 0.652817 -0.020572
N1    N     N_R   0.995961 0.490899 0.847459 -0.441580
N2    N     N_R   0.207424 0.488752 0.148008 -0.439821
O1    O     O_2   0.896730 0.461690 0.361000 -0.388208
O2    O     O_3   0.636388 0.683002 0.620128 -0.614443
O3    O     O_3   0.129859 0.745310 0.361261 -0.621801
O4    O     O_2   0.292960 0.538340 0.639040 -0.516521
O5    O     O_3   0.052540 0.537650 0.567960 -0.463965
O6    O     O_3   0.532200 0.411510 0.604930 -0.498641
O7    O     O_3   0.123028 0.652601 0.638977 -0.660415
O8    O     O_3   0.629030 0.416090 0.471500 -0.462855
O9    O     O_3   0.120120 0.375640 0.576470 -0.460932
O10   O     O_2   0.213444 0.251006 0.537278 -0.497290
O11   O     O_3   0.157053 0.261639 0.648738 -0.599190
O12   O     O_3   0.137170 0.462400 0.432040 -0.506678
O13   O     O_3   0.560670 0.583970 0.528500 -0.505887
O14   O     O_2   0.373560 0.329680 0.473470 -0.487219
O15   O     O_3   0.580423 0.297793 0.382908 -0.657742
O16   O     O_2   0.457763 0.455248 0.713994 -0.395485
O17   O     O_3   0.485283 0.318807 0.691421 -0.510529
O18   O     O_2   0.251970 0.471465 0.826267 -0.513043
O19   O     O_2   0.753964 0.522128 0.878182 -0.552200
O20   O     O_2   0.961622 0.522947 0.170872 -0.488815
O21   O     O_2   0.443656 0.451269 0.116313 -0.592912
O22   O     O_3   0.657500 0.588540 0.395070 -0.471025
O23   O     O_2   0.772247 0.558432 0.289374 -0.343201
O24   O     O_3   0.042617 0.349192 0.358837 -0.625888
O25   O     O_3   0.653630 0.682162 0.305858 -0.645511
O26   O     O_2   0.816140 0.670340 0.526560 -0.466557
O27   O     O_3   0.069580 0.624410 0.423530 -0.502595
O28   O     O_2   0.952786 0.752178 0.456348 -0.518243
P1    P     P_3+3 0.067040 0.441110 0.370020 1.048457
P2    P     P_3+3 0.640420 0.660110 0.543790 1.011297
P3    P     P_3+3 0.102037 0.717398 0.431364 0.956290
P4    P     P_3+3 0.122660 0.558950 0.629980 0.959746
P5    P     P_3+3 0.090894 0.283495 0.580329 0.942872
P6    P     P_3+3 0.626660 0.592107 0.318792 1.042764
P7    P     P_3+3 0.555540 0.326842 0.457980 0.962291
P8    P     P_3+3 0.565735 0.403597 0.679276 1.032202
S1    S     S_3+6 0.501634 0.797713 0.308961 -0.075410
O29   O     O_2   0.333941 0.815548 0.304611 -0.269126
O30   O     O_2   0.548076 0.805262 0.372619 -0.335517
O31   O     O_3   0.612158 0.857260 0.273828 -0.523655
H50   H     H_    0.547044 0.866199 0.239622 0.339434
S2    S     S_3+6 0.267293 0.752704 0.794101 0.053140
O32   O     O_2   0.388356 0.809677 0.778779 -0.209368
O33   O     O_2   0.110349 0.783620 0.805443 -0.183825
O34   O     O_3   0.325995 0.721236 0.856038 -0.494336
H51   H     H_    0.348122 0.763555 0.884549 0.362807
S3    S     S_3+6 0.789090 0.697628 0.718022 -0.026220
O35   O     O_2   0.854488 0.654581 0.762536 -0.328021
O36   O     O_2   0.910423 0.754203 0.702989 -0.235218
O37   O     O_3   0.631379 0.735649 0.747278 -0.443728
H52   H     H_    0.675124 0.767952 0.781186 0.401487
S4    S     S_3+6 0.553711 0.352348 0.284062 -0.094262
O38   O     O_2   0.620795 0.425870 0.302927 -0.297440
O39   O     O_2   0.687509 0.309387 0.261862 -0.314081
O40   O     O_3   0.419364 0.353646 0.230100 -0.579567
H53   H     H_    0.482818 0.357278 0.193827 0.393341
C61   C     C_R   0.394171 0.201621 0.275545 0.103633
C62   C     C_R   0.289409 0.183844 0.227536 -0.033549
C63   C     C_R   0.331327 0.137311 0.179725 -0.073374
C64   C     C_R   0.478338 0.108343 0.179103 -0.068966
C65   C     C_R   0.583341 0.125703 0.226393 -0.083961
C66   C     C_R   0.540760 0.171374 0.274669 0.111993
H54   H     H_    0.174775 0.205690 0.227111 0.091143
H55   H     H_    0.249773 0.123781 0.143119 0.083887
H56   H     H_    0.510959 0.072540 0.141967 0.086288
H57   H     H_    0.697704 0.103585 0.225778 0.080466
H58   H     H_    0.623456 0.184320 0.310772 0.159001
C67   C     C_R   0.022499 0.867164 0.314695 0.129502
C68   C     C_R   0.057363 0.886920 0.258130 0.059766
C69   C     C_R   0.153036 0.948732 0.251272 -0.081348
C70   C     C_R   0.211377 0.992126 0.300689 0.016219
C71   C     C_R   0.173929 0.973875 0.357124 0.009862
C72   C     C_R   0.079257 0.911844 0.364177 0.002208
H59   H     H_    0.010434 0.854568 0.219385 0.106474
H60   H     H_    0.180993 0.963274 0.207615 0.066700
H61   H     H_    0.284239 0.040197 0.295114 0.110722
H62   H     H_    0.217179 0.007996 0.395427 0.101057
H63   H     H_    0.048114 0.899122 0.408045 0.057212
S5    S     S_3+6 0.147621 0.286662 0.761769 -0.036933
O41   O     O_2   0.255350 0.229309 0.770316 -0.286142
O42   O     O_2   0.246273 0.354545 0.758125 -0.211649
O43   O     O_3   0.029773 0.296451 0.820957 -0.527964
H64   H     H_    0.981395 0.341608 0.818238 0.308631
C73   C     C_R   0.850023 0.182595 0.748778 0.079226
C74   C     C_R   0.868246 0.122843 0.778779 0.016938
C75   C     C_R   0.780225 0.112331 0.829501 -0.037858
C76   C     C_R   0.673382 0.161251 0.850719 -0.038915
C77   C     C_R   0.654640 0.220872 0.821340 -0.010151
C78   C     C_R   0.742222 0.231456 0.770598 -0.030335
H65   H     H_    0.950135 0.084258 0.762912 0.090991
H66   H     H_    0.794773 0.066173 0.852338 0.095719
H67   H     H_    0.605444 0.153045 0.889994 0.087547
H68   H     H_    0.572594 0.259027 0.837922 0.121842
H69   H     H_    0.728609 0.278527 0.749153 0.059300
S6    S     S_3+6 0.038026 0.691365 0.255949 -0.032105
O44   O     O_2   0.892465 0.677491 0.218091 -0.277128
O45   O     O_2   0.160203 0.734591 0.224361 -0.293960
O46   O     O_3   0.107074 0.613873 0.266560 -0.496404
H70   H     H_    0.166843 0.624214 0.304772 0.283678
S7    S     S_3+6 0.602803 0.063836 0.391107 -0.151920
O47   O     O_2   0.464091 0.106925 0.384040 -0.401686
O48   O     O_2   0.755474 0.108282 0.386784 -0.350305
O49   O     O_3   0.596887 0.996397 0.337419 -0.471948
H71   H     H_    0.604474 0.018841 0.300128 0.349931
S8    S     S_3+6 0.264178 0.779200 0.651785 0.021498
O50   O     O_2   0.183634 0.829686 0.694699 -0.168560
O51   O     O_2   0.435207 0.805789 0.646889 -0.259210
O52   O     O_3   0.174461 0.779674 0.586416 -0.561004
H72   H     H_    0.059188 0.773616 0.594412 0.363917

loop_
_geom_bond_atom_site_label_1
_geom_bond_atom_site_label_2
_ccdc_geom_bond_type
C63   H55   S    
C59   H8    S    
C62   C63   A    
O6    P8    S    
C76   H67   S    
C12   S6    S    
S2    O33   D    
C6    H21   S    
C77   C78   A    
C17   C18   A    
C5    O11   S    
C53   C54   A    
C35   H35   S    
Ba2   O5    S    
C5    C6    S    
C51   C52   A    
C54   C55   A    
Ba2   P4    S    
C10   C11   A    
S4    O38   D    
S8    O52   S    
C9    H36   S    
C6    H20   S    
O1    P1    D    
C26   C27   S    
C33   C35   A    
C35   C36   A    
Ba1   O12   S    
Ba1   Ba2   S    
C11   N1    Am   
C53   C57   A    
C45   H1    S    
C28   C29   D    
C12   O3    S    
C41   C50   S    
S7    O49   S    
C61   C62   A    
C56   C58   S    
C13   C14   A    
C44   C50   A    
O13   P2    S    
C47   C55   S    
C70   C71   A    
C3    O15   S    
C34   C45   S    
O4    P4    D    
C16   C17   A    
C39   C40   A    
C72   H63   S    
C65   C66   A    
C2    H13   S    
C17   H30   S    
C7    H23   S    
O3    P3    S    
O26   P2    D    
C56   H4    S    
C8    H24   S    
C13   O19   D    
O37   H52   S    
C58   H5    S    
C14   C15   A    
S1    O31   S    
C10   C15   A    
C59   O2    S    
C43   P3    S    
C48   H41   S    
C20   H29   S    
C60   H11   S    
C74   C75   A    
Ba1   P1    S    
C3    S4    S    
C7    C8    S    
O12   P1    S    
Ba1   O26   S    
O14   P7    D    
C52   P5    S    
Ba2   O14   S    
Ba2   O9    S    
O7    P4    S    
S4    O39   D    
S2    O34   S    
C6    C73   S    
C73   C74   A    
C61   C66   A    
O17   P8    S    
C1    H18   S    
C40   H40   S    
Ba2   O4    S    
C23   C67   S    
C31   C32   A    
C44   C46   A    
C52   C57   A    
S7    O48   D    
C38   C43   A    
C44   H39   S    
O2    P2    S    
C8    H25   S    
C21   H28   S    
O24   P1    S    
C49   C50   A    
O23   P6    D    
S5    O43   S    
C26   C30   D    
O49   H71   S    
C8    H27   S    
O28   P3    D    
C34   S8    S    
C45   H2    S    
C36   N2    S    
C51   C55   A    
S6    O44   D    
C7    H22   S    
C49   H42   S    
C64   C65   A    
O11   P5    S    
C57   H45   S    
O43   H64   S    
S5    O42   D    
O34   H51   S    
C67   C68   A    
C1    H9    S    
C41   C42   A    
S3    O37   S    
C69   C70   A    
O16   P8    D    
O52   H72   S    
Ba1   P2    S    
C4    H17   S    
C51   H43   S    
C32   P6    S    
C56   H3    S    
C37   H37   S    
C29   C30   S    
O10   P5    D    
S7    O47   D    
O25   P6    S    
C77   H68   S    
C27   C37   S    
C34   H49   S    
C48   C49   A    
C11   O18   D    
O8    P7    S    
C60   H10   S    
C73   C78   A    
Ba1   O13   S    
C1    H14   S    
C66   H58   S    
Ba1   O27   S    
C23   H48   S    
C25   N2    Am   
C56   O24   S    
C58   H7    S    
C46   C47   A    
C5    H19   S    
S4    O40   S    
O22   P6    S    
C78   H69   S    
C75   H66   S    
C16   H32   S    
S1    O30   D    
C5    S5    S    
C59   S3    S    
C40   C41   A    
C54   H38   S    
C3    H15   S    
C1    C2    S    
Ba2   O13   S    
C74   H65   S    
C63   C64   A    
C28   P4    S    
C68   H59   S    
C4    C61   S    
Ba2   O8    S    
C46   S7    S    
O40   H53   S    
C14   C20   A    
C30   N1    S    
Ba1   O8    S    
C20   C21   A    
C25   O21   D    
C13   N1    Am   
O5    P4    S    
C9    C32   A    
O15   P7    S    
C42   C43   A    
O27   P3    S    
C22   C24   A    
C31   H31   S    
C67   C72   A    
C39   P2    S    
C38   H47   S    
C18   C25   A    
C42   H44   S    
C2    S1    S    
C62   H54   S    
C71   C72   A    
C31   C36   A    
S8    O51   D    
C26   H34   S    
S5    O41   D    
C9    C33   A    
C24   N2    Am   
C12   H26   S    
C24   O20   D    
C69   H60   S    
S3    O35   D    
S8    O50   D    
C3    C4    S    
C45   S2    S    
C64   H56   S    
C76   C77   A    
S6    O46   S    
C29   H33   S    
Ba2   O6    S    
C71   H62   S    
C28   C37   D    
C53   P7    S    
Ba1   O5    S    
O9    P5    S    
C12   C23   S    
C59   C60   S    
C34   O7    S    
C15   C19   A    
C27   P8    S    
C4    H16   S    
C21   C22   A    
C33   P1    S    
C2    O25   S    
O46   H70   S    
Ba2   O12   S    
C7    O17   S    
C75   C76   A    
C18   C19   A    
C58   H6    S    
S6    O45   D    
C47   C48   A    
Ba1   O1    S    
C19   C22   A    
C10   C16   A    
S2    O32   D    
S1    O29   D    
C60   H12   S    
C38   C39   A    
O31   H50   S    
Ba1   O22   S    
C65   H57   S    
C70   H61   S    
C68   C69   A    
C23   H46   S    
S3    O36   D    
