data_mof_unit_54663.cif
_audit_creation_date              2012-12-10T20:11:20-0500
_audit_creation_method            fapswitch 2.2
_symmetry_space_group_name_H-M    P1
_symmetry_Int_Tables_number       1
_space_group_crystal_system       triclinic
_cell_length_a                    15.876498
_cell_length_b                    15.876477
_cell_length_c                    51.594158
_cell_angle_alpha                 89.999963
_cell_angle_beta                  89.999929
_cell_angle_gamma                 90.0
_cell_volume                      13004.9707842

loop_
_atom_site_label
_atom_site_type_symbol
_atom_type_description
_atom_site_fract_x
_atom_site_fract_y
_atom_site_fract_z
_atom_type_partial_charge
C1    C     C_R   0.927120 0.525296 0.636447 -0.052724
C2    C     C_R   0.427120 0.974701 0.863553 -0.052723
C3    C     C_1   0.276619 0.223381 0.250000 -0.036107
C4    C     C_1   0.223402 0.723402 0.750000 -0.041953
C5    C     C_1   0.776619 0.276619 0.250000 -0.036115
C6    C     C_1   0.276598 0.223402 0.750000 -0.041952
C7    C     C_1   0.723381 0.776619 0.250000 -0.036108
C8    C     C_1   0.776596 0.723404 0.250000 -0.044438
C9    C     C_1   0.223382 0.276618 0.750000 -0.042661
C10   C     C_1   0.723404 0.223404 0.250000 -0.044444
C11   C     C_1   0.276618 0.776618 0.750000 -0.042662
C12   C     C_1   0.223404 0.276596 0.250000 -0.044438
C13   C     C_R   0.945907 0.444830 0.137251 -0.048159
C14   C     C_1   0.776618 0.723382 0.750000 -0.042661
C15   C     C_1   0.276596 0.776596 0.250000 -0.044443
C16   C     C_1   0.723382 0.223382 0.750000 -0.042661
C17   C     C_R   0.522310 0.071462 0.945546 0.387570
C18   C     C_R   0.470315 0.931135 0.055651 0.388204
C19   C     C_R   0.928539 0.522313 0.945546 0.387571
C20   C     C_R   0.068864 0.470314 0.055651 0.388203
C21   C     C_R   0.477689 0.928538 0.945546 0.387569
C22   C     C_R   0.529684 0.068866 0.055651 0.388203
C23   C     C_R   0.071462 0.477688 0.945546 0.387571
C24   C     C_R   0.025294 0.427119 0.863553 -0.052724
C25   C     C_R   0.931134 0.529684 0.055651 0.388203
C26   C     C_R   0.970314 0.568861 0.444348 0.388201
C27   C     C_R   0.022313 0.428539 0.554454 0.387572
C28   C     C_R   0.431137 0.970308 0.444348 0.388202
C29   C     C_R   0.571461 0.022310 0.554454 0.387567
C30   C     C_R   0.029686 0.431131 0.444349 0.388199
C31   C     C_R   0.977687 0.571461 0.554454 0.387571
C32   C     C_R   0.568855 0.029708 0.444348 0.388205
C33   C     C_R   0.428538 0.977686 0.554454 0.387570
C34   C     C_R   0.470329 0.928661 0.972957 0.006564
C35   C     C_R   0.555171 0.945909 0.137251 -0.048159
C36   C     C_R   0.532704 0.070307 0.028147 0.004609
C37   C     C_R   0.071339 0.470328 0.972957 0.006565
C38   C     C_R   0.929693 0.532704 0.028147 0.004609
C39   C     C_R   0.529670 0.071339 0.972957 0.006565
C40   C     C_R   0.467295 0.929693 0.028147 0.004609
C41   C     C_R   0.928661 0.529672 0.972957 0.006565
C42   C     C_R   0.070306 0.467294 0.028147 0.004609
C43   C     C_R   0.032705 0.429690 0.471853 0.004608
C44   C     C_R   0.970328 0.571338 0.527042 0.006565
C45   C     C_R   0.570300 0.032718 0.471852 0.004612
C46   C     C_R   0.572879 0.025298 0.863553 -0.052723
C47   C     C_R   0.428661 0.970327 0.527043 0.006565
C48   C     C_R   0.967294 0.570303 0.471852 0.004609
C49   C     C_R   0.029672 0.428660 0.527043 0.006566
C50   C     C_R   0.429694 0.967292 0.471852 0.004611
C51   C     C_R   0.571337 0.029674 0.527043 0.006563
C52   C     C_R   0.391480 0.789794 0.973019 0.092043
C53   C     C_R   0.432338 0.712118 0.969751 -0.059785
C54   C     C_R   0.391461 0.645946 0.957056 -0.112323
C55   C     C_R   0.309567 0.656834 0.947669 -0.095612
C56   C     C_R   0.268420 0.733931 0.950981 -0.101652
C57   C     C_R   0.054092 0.555169 0.137251 -0.048159
C58   C     C_R   0.309178 0.800355 0.963617 -0.065622
C59   C     C_R   0.612691 0.208958 0.027508 0.093028
C60   C     C_R   0.697708 0.199769 0.034438 -0.056182
C61   C     C_R   0.740068 0.265535 0.046902 -0.100068
C62   C     C_R   0.697883 0.340677 0.052460 -0.097286
C63   C     C_R   0.613396 0.350421 0.045401 -0.108067
C64   C     C_R   0.570871 0.284849 0.032910 -0.060706
C65   C     C_R   0.210204 0.391476 0.973020 0.092044
C66   C     C_R   0.287880 0.432332 0.969751 -0.059785
C67   C     C_R   0.354051 0.391453 0.957056 -0.112324
C68   C     C_R   0.974706 0.572881 0.863553 -0.052724
C69   C     C_R   0.343163 0.309559 0.947669 -0.095613
C70   C     C_R   0.266065 0.268413 0.950982 -0.101653
C71   C     C_R   0.199642 0.309173 0.963618 -0.065622
C72   C     C_R   0.791042 0.612691 0.027509 0.093027
C73   C     C_R   0.800231 0.697706 0.034440 -0.056178
C74   C     C_R   0.734464 0.740065 0.046904 -0.100066
C75   C     C_R   0.659322 0.697880 0.052461 -0.097286
C76   C     C_R   0.649578 0.613394 0.045401 -0.108068
C77   C     C_R   0.715150 0.570870 0.032910 -0.060710
C78   C     C_R   0.608521 0.210204 0.973019 0.092043
C79   C     C_R   0.499999 0.000000 0.986791 -0.059854
C80   C     C_R   0.567666 0.287881 0.969751 -0.059784
C81   C     C_R   0.608545 0.354052 0.957055 -0.112323
C82   C     C_R   0.690439 0.343162 0.947668 -0.095613
C83   C     C_R   0.731584 0.266064 0.950981 -0.101653
C84   C     C_R   0.690824 0.199642 0.963617 -0.065623
C85   C     C_R   0.387309 0.791042 0.027509 0.093028
C86   C     C_R   0.302292 0.800231 0.034439 -0.056182
C87   C     C_R   0.259932 0.734464 0.046903 -0.100067
C88   C     C_R   0.302118 0.659323 0.052461 -0.097286
C89   C     C_R   0.386605 0.649579 0.045402 -0.108067
C90   C     C_R   0.499999 0.000000 0.014351 -0.060571
C91   C     C_R   0.429130 0.715151 0.032911 -0.060707
C92   C     C_R   0.789798 0.608525 0.973020 0.092044
C93   C     C_R   0.712122 0.567669 0.969750 -0.059780
C94   C     C_R   0.645952 0.608549 0.957055 -0.112322
C95   C     C_R   0.656840 0.690446 0.947670 -0.095614
C96   C     C_R   0.733937 0.731592 0.950984 -0.101655
C97   C     C_R   0.800359 0.690830 0.963620 -0.065627
C98   C     C_R   0.208956 0.387307 0.027509 0.093028
C99   C     C_R   0.199768 0.302290 0.034439 -0.056181
C100  C     C_R   0.265534 0.259930 0.046903 -0.100068
C101  C     C_R   0.000000 0.500000 0.986791 -0.059855
C102  C     C_R   0.340676 0.302116 0.052461 -0.097286
C103  C     C_R   0.350419 0.386603 0.045402 -0.108067
C104  C     C_R   0.284847 0.429128 0.032911 -0.060707
C105  C     C_R   0.112689 0.291038 0.472492 0.093028
C106  C     C_R   0.197705 0.300224 0.465561 -0.056176
C107  C     C_R   0.240062 0.234456 0.453097 -0.100067
C108  C     C_R   0.197874 0.159315 0.447539 -0.097288
C109  C     C_R   0.113388 0.149574 0.454600 -0.108065
C110  C     C_R   0.070866 0.215147 0.467091 -0.060712
C111  C     C_R   0.891477 0.710203 0.526979 0.092046
C112  C     C_R   0.944841 0.445894 0.362748 -0.048161
C113  C     C_R   1.000000 0.499999 0.014351 -0.060571
C114  C     C_R   0.932335 0.787878 0.530248 -0.059784
C115  C     C_R   0.891456 0.854052 0.542942 -0.112323
C116  C     C_R   0.809558 0.843167 0.552327 -0.095612
C117  C     C_R   0.768411 0.766070 0.549014 -0.101656
C118  C     C_R   0.809171 0.699645 0.536379 -0.065626
C119  C     C_R   0.708950 0.112708 0.472492 0.093033
C120  C     C_R   0.699774 0.197736 0.465573 -0.056190
C121  C     C_R   0.765542 0.240099 0.453111 -0.100076
C122  C     C_R   0.840672 0.197905 0.447543 -0.097291
C123  C     C_R   0.850403 0.113407 0.454592 -0.108059
C124  C     C_R   1.000000 0.499997 0.485649 -0.060571
C125  C     C_R   0.784830 0.070879 0.467081 -0.060692
C126  C     C_R   0.289798 0.891473 0.526981 0.092044
C127  C     C_R   0.212121 0.932329 0.530249 -0.059784
C128  C     C_R   0.145951 0.891451 0.542945 -0.112322
C129  C     C_R   0.156839 0.809556 0.552331 -0.095612
C130  C     C_R   0.233938 0.768411 0.549019 -0.101653
C131  C     C_R   0.300360 0.809170 0.536382 -0.065623
C132  C     C_R   0.887304 0.708952 0.472490 0.093027
C133  C     C_R   0.802289 0.699758 0.465559 -0.056177
C134  C     C_R   0.759929 0.765521 0.453093 -0.100066
C135  C     C_R   0.000000 0.499998 0.513209 -0.059855
C136  C     C_R   0.802112 0.840664 0.447535 -0.097287
C137  C     C_R   0.886596 0.850413 0.454596 -0.108062
C138  C     C_R   0.929122 0.784845 0.467089 -0.060706
C139  C     C_R   0.108525 0.289796 0.526981 0.092046
C140  C     C_R   0.067669 0.212120 0.530250 -0.059781
C141  C     C_R   0.108550 0.145949 0.542945 -0.112322
C142  C     C_R   0.190446 0.156837 0.552331 -0.095614
C143  C     C_R   0.231592 0.233935 0.549016 -0.101655
C144  C     C_R   0.190830 0.300357 0.536381 -0.065627
C145  C     C_R   0.291046 0.887300 0.472492 0.093031
C146  C     C_R   0.499997 0.000004 0.485649 -0.060569
C147  C     C_R   0.300234 0.802281 0.465563 -0.056173
C148  C     C_R   0.234467 0.759919 0.453100 -0.100067
C149  C     C_R   0.159326 0.802104 0.447541 -0.097286
C150  C     C_R   0.149583 0.886592 0.454599 -0.108067
C151  C     C_R   0.215155 0.929120 0.467089 -0.060712
C152  C     C_R   0.710204 0.108521 0.526981 0.092043
C153  C     C_R   0.787883 0.067664 0.530244 -0.059797
C154  C     C_R   0.854057 0.108535 0.542940 -0.112328
C155  C     C_R   0.843169 0.190421 0.552333 -0.095610
C156  C     C_R   0.766069 0.231567 0.549026 -0.101645
C157  C     C_R   0.499998 0.000002 0.513209 -0.059853
C158  C     C_R   0.699643 0.190816 0.536389 -0.065610
C159  C     C_R   0.850014 0.558084 0.649068 0.057969
C160  C     C_R   0.774248 0.512625 0.647630 -0.089631
C161  C     C_R   0.701352 0.543965 0.659423 -0.116891
C162  C     C_R   0.703536 0.620939 0.672571 -0.093939
C163  C     C_R   0.778537 0.666862 0.673874 -0.087295
C164  C     C_R   0.851543 0.635829 0.662081 -0.053057
C165  C     C_R   0.888429 0.385019 0.349498 0.049480
C166  C     C_R   0.801118 0.387393 0.353911 -0.089924
C167  C     C_R   0.747796 0.330562 0.341261 -0.099002
C168  C     C_R   0.434306 0.860095 0.986772 -0.037947
C169  C     C_R   0.781179 0.270759 0.324243 -0.087280
C170  C     C_R   0.868019 0.267334 0.319961 -0.102393
C171  C     C_R   0.921597 0.323879 0.332614 -0.063253
C172  C     C_R   0.441913 0.850014 0.649069 0.057968
C173  C     C_R   0.487370 0.774247 0.647631 -0.089629
C174  C     C_R   0.456028 0.701353 0.659424 -0.116890
C175  C     C_R   0.379054 0.703538 0.672572 -0.093939
C176  C     C_R   0.333133 0.778541 0.673875 -0.087296
C177  C     C_R   0.364167 0.851546 0.662081 -0.053059
C178  C     C_R   0.615014 0.888466 0.349499 0.049472
C179  C     C_R   0.567922 0.139094 0.014134 -0.039425
C180  C     C_R   0.612676 0.801155 0.353915 -0.089931
C181  C     C_R   0.669525 0.747850 0.341266 -0.099000
C182  C     C_R   0.729311 0.781250 0.324246 -0.087286
C183  C     C_R   0.732700 0.868090 0.319960 -0.102404
C184  C     C_R   0.676137 0.921652 0.332612 -0.063260
C185  C     C_R   0.149986 0.441918 0.649068 0.057968
C186  C     C_R   0.225753 0.487376 0.647631 -0.089630
C187  C     C_R   0.298648 0.456036 0.659424 -0.116891
C188  C     C_R   0.296464 0.379061 0.672571 -0.093939
C189  C     C_R   0.221463 0.333138 0.673874 -0.087296
C190  C     C_R   0.139904 0.434304 0.986772 -0.037947
C191  C     C_R   0.148457 0.364171 0.662080 -0.053058
C192  C     C_R   0.111572 0.614977 0.349499 0.049480
C193  C     C_R   0.198883 0.612602 0.353911 -0.089926
C194  C     C_R   0.252205 0.669434 0.341262 -0.099004
C195  C     C_R   0.218821 0.729238 0.324244 -0.087280
C196  C     C_R   0.131982 0.732665 0.319962 -0.102393
C197  C     C_R   0.078403 0.676119 0.332615 -0.063253
C198  C     C_R   0.558086 0.149985 0.649068 0.057967
C199  C     C_R   0.512630 0.225752 0.647630 -0.089631
C200  C     C_R   0.543971 0.298647 0.659423 -0.116892
C201  C     C_R   0.860906 0.567922 0.014134 -0.039425
C202  C     C_R   0.620946 0.296461 0.672571 -0.093940
C203  C     C_R   0.666866 0.221459 0.673874 -0.087297
C204  C     C_R   0.635832 0.148453 0.662081 -0.053059
C205  C     C_R   0.384978 0.111533 0.349497 0.049474
C206  C     C_R   0.387308 0.198844 0.353913 -0.089929
C207  C     C_R   0.330455 0.252144 0.341263 -0.098998
C208  C     C_R   0.270674 0.218738 0.324242 -0.087286
C209  C     C_R   0.267293 0.131898 0.319956 -0.102405
C210  C     C_R   0.323859 0.078341 0.332609 -0.063259
C211  C     C_R   0.388404 0.114955 0.150501 0.049484
C212  C     C_R   0.565694 0.139905 0.986772 -0.037947
C213  C     C_R   0.301093 0.112559 0.146090 -0.089929
C214  C     C_R   0.247759 0.169378 0.158739 -0.099016
C215  C     C_R   0.281129 0.229193 0.175755 -0.087277
C216  C     C_R   0.367968 0.232641 0.180036 -0.102383
C217  C     C_R   0.421559 0.176107 0.167384 -0.063248
C218  C     C_R   0.350016 0.941910 0.850931 0.057968
C219  C     C_R   0.274248 0.987365 0.852369 -0.089630
C220  C     C_R   0.201354 0.956022 0.840576 -0.116890
C221  C     C_R   0.203541 0.879048 0.827428 -0.093939
C222  C     C_R   0.278545 0.833129 0.826125 -0.087296
C223  C     C_R   0.474703 0.927119 0.636447 -0.052723
C224  C     C_R   0.432078 0.860906 0.014134 -0.039425
C225  C     C_R   0.351549 0.864165 0.837919 -0.053059
C226  C     C_R   0.885042 0.388405 0.150501 0.049483
C227  C     C_R   0.887437 0.301095 0.146090 -0.089930
C228  C     C_R   0.830617 0.247761 0.158739 -0.099016
C229  C     C_R   0.770803 0.281133 0.175756 -0.087277
C230  C     C_R   0.767357 0.367972 0.180037 -0.102384
C231  C     C_R   0.823892 0.421562 0.167384 -0.063248
C232  C     C_R   0.058080 0.350012 0.850932 0.057968
C233  C     C_R   0.012619 0.274247 0.852369 -0.089631
C234  C     C_R   0.043958 0.201351 0.840577 -0.116891
C235  C     C_R   0.860096 0.565696 0.986773 -0.037947
C236  C     C_R   0.120933 0.203532 0.827429 -0.093939
C237  C     C_R   0.166857 0.278532 0.826126 -0.087296
C238  C     C_R   0.135826 0.351539 0.837920 -0.053058
C239  C     C_R   0.611597 0.885045 0.150501 0.049484
C240  C     C_R   0.698908 0.887443 0.146089 -0.089930
C241  C     C_R   0.752243 0.830624 0.158739 -0.099016
C242  C     C_R   0.718873 0.770809 0.175755 -0.087277
C243  C     C_R   0.632034 0.767360 0.180036 -0.102383
C244  C     C_R   0.578442 0.823894 0.167383 -0.063248
C245  C     C_R   0.649984 0.058089 0.850931 0.057968
C246  C     C_R   0.139093 0.432076 0.014134 -0.039425
C247  C     C_R   0.725752 0.012634 0.852369 -0.089629
C248  C     C_R   0.798645 0.043977 0.840576 -0.116890
C249  C     C_R   0.796458 0.120951 0.827428 -0.093939
C250  C     C_R   0.721455 0.166871 0.826125 -0.087297
C251  C     C_R   0.648451 0.135835 0.837919 -0.053059
C252  C     C_R   0.114956 0.611595 0.150501 0.049483
C253  C     C_R   0.112561 0.698905 0.146089 -0.089930
C254  C     C_R   0.169381 0.752239 0.158738 -0.099016
C255  C     C_R   0.229195 0.718868 0.175755 -0.087277
C256  C     C_R   0.232642 0.632029 0.180036 -0.102384
C257  C     C_R   0.067923 0.360903 0.485866 -0.039426
C258  C     C_R   0.176107 0.578439 0.167384 -0.063248
C259  C     C_R   0.941920 0.649988 0.850932 0.057969
C260  C     C_R   0.987380 0.725753 0.852369 -0.089630
C261  C     C_R   0.956041 0.798649 0.840576 -0.116891
C262  C     C_R   0.879066 0.796467 0.827429 -0.093939
C263  C     C_R   0.833141 0.721467 0.826126 -0.087296
C264  C     C_R   0.864173 0.648460 0.837920 -0.053058
C265  C     C_R   0.934304 0.639902 0.513227 -0.037947
C266  C     C_R   0.639087 0.067936 0.485866 -0.039427
C267  C     C_R   0.360097 0.934300 0.513227 -0.037949
C268  C     C_R   0.932075 0.639090 0.485865 -0.039426
C269  C     C_R   0.065696 0.360094 0.513228 -0.037947
C270  C     C_R   0.360909 0.932071 0.485866 -0.039426
C271  C     C_R   0.554120 0.944861 0.362748 -0.048157
C272  C     C_R   0.639901 0.065701 0.513227 -0.037950
C273  C     C_R   0.927546 0.522756 0.609286 -0.074932
C274  C     C_R   0.944937 0.447399 0.389926 -0.071007
C275  C     C_R   0.477244 0.927545 0.609286 -0.074931
C276  C     C_R   0.552613 0.944958 0.389926 -0.071007
C277  C     C_R   0.072455 0.477247 0.609286 -0.074932
C278  C     C_R   0.055065 0.552593 0.389926 -0.071006
C279  C     C_R   0.522756 0.072453 0.609286 -0.074934
C280  C     C_R   0.447380 0.055050 0.389925 -0.070999
C281  C     C_R   0.444925 0.052586 0.110073 -0.071006
C282  C     C_R   0.072881 0.474706 0.636447 -0.052723
C283  C     C_R   0.427546 0.977243 0.890714 -0.074932
C284  C     C_R   0.947412 0.444926 0.110074 -0.071005
C285  C     C_R   0.022754 0.427545 0.890714 -0.074933
C286  C     C_R   0.555074 0.947415 0.110073 -0.071006
C287  C     C_R   0.572453 0.022757 0.890714 -0.074932
C288  C     C_R   0.052586 0.555073 0.110073 -0.071007
C289  C     C_R   0.977247 0.572455 0.890714 -0.074932
C290  C     C_R   0.000001 0.500002 0.595558 0.206886
C291  C     C_R   0.000001 0.499995 0.403532 0.217776
C292  C     C_R   0.500000 0.999998 0.595558 0.206888
C293  C     C_R   0.055159 0.554101 0.362748 -0.048160
C294  C     C_R   0.499996 0.000006 0.403532 0.217774
C295  C     C_R   0.500000 0.000000 0.096467 0.217783
C296  C     C_R   0.500000 1.000000 0.904441 0.206887
C297  C     C_R   0.999999 0.499999 0.096467 0.217782
C298  C     C_R   0.000001 0.500000 0.904442 0.206888
C299  C     C_R   1.000000 0.500000 0.820336 0.493517
C300  C     C_R   1.000000 0.500000 0.179862 0.493812
C301  C     C_R   0.500000 1.000000 0.820336 0.493517
C302  C     C_R   0.500000 1.000000 0.179862 0.493812
C303  C     C_R   0.500000 1.000000 0.320138 0.493812
C304  C     C_R   0.525297 0.072879 0.636447 -0.052723
C305  C     C_R   0.500000 1.000000 0.679664 0.493517
C306  C     C_R   1.000000 0.500000 0.320138 0.493812
C307  C     C_R   1.000000 0.500000 0.679664 0.493517
C308  C     C_R   0.839700 0.660300 0.750000 0.507888
C309  C     C_R   0.160309 0.339691 0.250000 0.502623
C310  C     C_R   0.339700 0.839700 0.750000 0.507888
C311  C     C_R   0.660309 0.160309 0.250000 0.502624
C312  C     C_R   0.160300 0.339700 0.750000 0.507889
C313  C     C_R   0.839691 0.660309 0.250000 0.502625
C314  C     C_R   0.660300 0.160300 0.750000 0.507889
C315  C     C_R   0.445874 0.055143 0.362747 -0.048156
C316  C     C_R   0.339691 0.839691 0.250000 0.502623
C317  C     C_R   0.839700 0.339700 0.250000 0.512679
C318  C     C_R   0.160307 0.660307 0.750000 0.509365
C319  C     C_R   0.339700 0.160299 0.250000 0.512683
C320  C     C_R   0.660307 0.839692 0.750000 0.509365
C321  C     C_R   0.160299 0.660300 0.250000 0.512679
C322  C     C_R   0.839692 0.339693 0.750000 0.509364
C323  C     C_R   0.660300 0.839700 0.250000 0.512682
C324  C     C_R   0.339692 0.160307 0.750000 0.509365
C325  C     C_R   0.000000 0.500001 0.650631 0.001993
C326  C     C_R   0.444830 0.054092 0.137251 -0.048159
C327  C     C_R   0.000000 0.499998 0.348845 0.012332
C328  C     C_R   0.500000 1.000000 0.650631 0.001994
C329  C     C_R   0.499998 0.000001 0.348845 0.012341
C330  C     C_R   0.500000 0.000000 0.151155 0.012329
C331  C     C_R   0.500000 1.000000 0.849369 0.001994
C332  C     C_R   0.999999 0.500000 0.151155 0.012330
C333  C     C_R   0.000000 0.500000 0.849369 0.001993
C334  C     C_1   0.776598 0.276597 0.750000 -0.041952
C335  C     C_1   0.223381 0.723381 0.250000 -0.036114
C336  C     C_1   0.723402 0.776597 0.750000 -0.041952
H1    H     H_    0.871408 0.540543 0.598643 0.136550
H2    H     H_    0.371408 0.959452 0.901356 0.136549
H3    H     H_    0.780100 0.726492 0.684035 0.106503
H4    H     H_    0.909283 0.671995 0.663167 0.097623
H5    H     H_    0.774343 0.433771 0.366918 0.101332
H6    H     H_    0.680540 0.333014 0.344608 0.111488
H7    H     H_    0.739789 0.226997 0.314410 0.117417
H8    H     H_    0.893823 0.220860 0.306825 0.099445
H9    H     H_    0.988823 0.320162 0.329225 0.096173
H10   H     H_    0.547155 0.771858 0.637541 0.102937
H11   H     H_    0.491405 0.643167 0.658371 0.094393
H12   H     H_    0.354915 0.647118 0.681714 0.115754
H13   H     H_    0.906341 0.403009 0.099330 0.122958
H14   H     H_    0.273503 0.780105 0.684035 0.106502
H15   H     H_    0.328003 0.909287 0.663167 0.097624
H16   H     H_    0.566312 0.774366 0.366924 0.101331
H17   H     H_    0.667102 0.680594 0.344616 0.111489
H18   H     H_    0.773087 0.739873 0.314413 0.117402
H19   H     H_    0.779160 0.893908 0.306822 0.099449
H20   H     H_    0.679827 0.988879 0.329220 0.096181
H21   H     H_    0.228140 0.547161 0.637541 0.102936
H22   H     H_    0.356833 0.491414 0.658371 0.094394
H23   H     H_    0.352885 0.354922 0.681712 0.115753
H24   H     H_    0.040541 0.371407 0.901357 0.136547
H25   H     H_    0.219900 0.273507 0.684034 0.106503
H26   H     H_    0.090717 0.328005 0.663166 0.097624
H27   H     H_    0.225658 0.566223 0.366918 0.101330
H28   H     H_    0.319461 0.666982 0.344609 0.111486
H29   H     H_    0.260212 0.773001 0.314412 0.117417
H30   H     H_    0.106177 0.779140 0.306827 0.099445
H31   H     H_    0.011177 0.679837 0.329226 0.096174
H32   H     H_    0.452845 0.228141 0.637540 0.102936
H33   H     H_    0.508595 0.356833 0.658370 0.094394
H34   H     H_    0.645084 0.352882 0.681712 0.115754
H35   H     H_    0.596991 0.906344 0.099330 0.122957
H36   H     H_    0.726496 0.219895 0.684034 0.106502
H37   H     H_    0.671996 0.090713 0.663167 0.097624
H38   H     H_    0.433669 0.225637 0.366922 0.101332
H39   H     H_    0.332872 0.319401 0.344614 0.111492
H40   H     H_    0.226895 0.260112 0.314410 0.117399
H41   H     H_    0.220836 0.106076 0.306818 0.099448
H42   H     H_    0.320174 0.011114 0.329217 0.096180
H43   H     H_    0.274328 0.066171 0.133084 0.101329
H44   H     H_    0.180503 0.166909 0.155393 0.111468
H45   H     H_    0.239729 0.272946 0.185588 0.117432
H46   H     H_    0.628591 0.040547 0.901356 0.136549
H47   H     H_    0.393763 0.279124 0.193170 0.099446
H48   H     H_    0.488785 0.179841 0.170772 0.096175
H49   H     H_    0.271857 0.047150 0.862460 0.102935
H50   H     H_    0.143167 0.991397 0.841629 0.094393
H51   H     H_    0.147122 0.854908 0.818287 0.115755
H52   H     H_    0.280110 0.773499 0.815965 0.106501
H53   H     H_    0.409291 0.828002 0.836833 0.097623
H54   H     H_    0.933824 0.274329 0.133084 0.101330
H55   H     H_    0.833084 0.180506 0.155393 0.111469
H56   H     H_    0.727049 0.239734 0.185588 0.117431
H57   H     H_    0.093657 0.596989 0.099330 0.122957
H58   H     H_    0.720875 0.393767 0.193171 0.099447
H59   H     H_    0.820159 0.488788 0.170773 0.096176
H60   H     H_    0.952834 0.271862 0.862459 0.102937
H61   H     H_    0.008578 0.143166 0.841629 0.094394
H62   H     H_    0.145069 0.147110 0.818288 0.115751
H63   H     H_    0.226488 0.280093 0.815966 0.106504
H64   H     H_    0.171994 0.409278 0.836834 0.097624
H65   H     H_    0.725672 0.933831 0.133083 0.101330
H66   H     H_    0.819498 0.833094 0.155392 0.111468
H67   H     H_    0.760273 0.727056 0.185587 0.117432
H68   H     H_    0.959460 0.628594 0.901356 0.136549
H69   H     H_    0.606240 0.720877 0.193170 0.099446
H70   H     H_    0.511217 0.820159 0.170772 0.096175
H71   H     H_    0.728142 0.952850 0.862459 0.102936
H72   H     H_    0.856832 0.008601 0.841629 0.094393
H73   H     H_    0.852878 0.145091 0.818287 0.115755
H74   H     H_    0.719890 0.226501 0.815965 0.106501
H75   H     H_    0.590709 0.171998 0.836833 0.097623
H76   H     H_    0.066174 0.725671 0.133083 0.101329
H77   H     H_    0.166913 0.819495 0.155392 0.111468
H78   H     H_    0.272949 0.760268 0.185587 0.117432
H79   H     H_    0.495543 0.703053 0.977087 0.096809
H80   H     H_    0.279123 0.606235 0.193170 0.099447
H81   H     H_    0.179840 0.511213 0.170772 0.096176
H82   H     H_    0.047165 0.728139 0.862459 0.102937
H83   H     H_    0.991420 0.856834 0.841629 0.094394
H84   H     H_    0.854929 0.852889 0.818288 0.115752
H85   H     H_    0.773511 0.719905 0.815967 0.106503
H86   H     H_    0.828006 0.590721 0.836834 0.097624
H87   H     H_    0.423181 0.586203 0.954538 0.090144
H88   H     H_    0.277935 0.605502 0.937874 0.149919
H89   H     H_    0.903028 0.406319 0.400670 0.122968
H90   H     H_    0.204946 0.742193 0.943763 0.106672
H91   H     H_    0.276792 0.859829 0.966145 0.089827
H92   H     H_    0.730868 0.141768 0.030200 0.092078
H93   H     H_    0.805562 0.258248 0.052277 0.102204
H94   H     H_    0.730758 0.391396 0.062174 0.133837
H95   H     H_    0.580912 0.408792 0.049580 0.091993
H96   H     H_    0.505677 0.293021 0.027366 0.094112
H97   H     H_    0.296946 0.495538 0.977087 0.096810
H98   H     H_    0.413795 0.423172 0.954538 0.090146
H99   H     H_    0.394494 0.277925 0.937875 0.149924
H100  H     H_    0.459455 0.871406 0.598644 0.136550
H101  H     H_    0.257802 0.204939 0.943765 0.106672
H102  H     H_    0.140167 0.276788 0.966145 0.089827
H103  H     H_    0.858233 0.730867 0.030202 0.092077
H104  H     H_    0.741752 0.805558 0.052280 0.102203
H105  H     H_    0.608603 0.730754 0.062176 0.133834
H106  H     H_    0.591207 0.580909 0.049579 0.091991
H107  H     H_    0.706978 0.505678 0.027364 0.094112
H108  H     H_    0.504461 0.296947 0.977086 0.096809
H109  H     H_    0.576826 0.413796 0.954537 0.090145
H110  H     H_    0.722073 0.394493 0.937874 0.149918
H111  H     H_    0.593706 0.903064 0.400670 0.122963
H112  H     H_    0.795058 0.257801 0.943764 0.106671
H113  H     H_    0.723208 0.140167 0.966145 0.089827
H114  H     H_    0.269131 0.858232 0.030200 0.092078
H115  H     H_    0.194438 0.741751 0.052278 0.102203
H116  H     H_    0.269243 0.608604 0.062175 0.133834
H117  H     H_    0.419090 0.591209 0.049581 0.091992
H118  H     H_    0.494323 0.706979 0.027366 0.094111
H119  H     H_    0.703056 0.504462 0.977084 0.096810
H120  H     H_    0.586208 0.576830 0.954536 0.090147
H121  H     H_    0.605510 0.722081 0.937876 0.149925
H122  H     H_    0.128594 0.459459 0.598643 0.136549
H123  H     H_    0.742200 0.795068 0.943768 0.106672
H124  H     H_    0.859833 0.723215 0.966148 0.089827
H125  H     H_    0.141767 0.269130 0.030200 0.092078
H126  H     H_    0.258247 0.194436 0.052278 0.102204
H127  H     H_    0.391394 0.269241 0.062175 0.133835
H128  H     H_    0.408789 0.419088 0.049581 0.091993
H129  H     H_    0.293020 0.494321 0.027366 0.094112
H130  H     H_    0.230867 0.358224 0.469799 0.092079
H131  H     H_    0.305555 0.241741 0.447721 0.102205
H132  H     H_    0.230746 0.108596 0.437825 0.133817
H133  H     H_    0.096974 0.593672 0.400670 0.122966
H134  H     H_    0.080901 0.091204 0.450422 0.091992
H135  H     H_    0.005673 0.206977 0.472636 0.094112
H136  H     H_    0.995542 0.796941 0.522914 0.096811
H137  H     H_    0.923176 0.913795 0.545460 0.090149
H138  H     H_    0.777924 0.894500 0.562120 0.149931
H139  H     H_    0.704934 0.757810 0.556229 0.106674
H140  H     H_    0.776785 0.640172 0.533851 0.089828
H141  H     H_    0.641782 0.230903 0.469819 0.092078
H142  H     H_    0.758265 0.305602 0.447745 0.102206
H143  H     H_    0.891391 0.230783 0.437830 0.133834
H144  H     H_    0.540545 0.128591 0.598643 0.136544
H145  H     H_    0.908765 0.080916 0.450406 0.092003
H146  H     H_    0.792994 0.005677 0.472618 0.094111
H147  H     H_    0.203055 0.995535 0.522913 0.096809
H148  H     H_    0.086207 0.923170 0.545462 0.090146
H149  H     H_    0.105509 0.777923 0.562126 0.149920
H150  H     H_    0.242201 0.704936 0.556236 0.106670
H151  H     H_    0.359835 0.776786 0.533855 0.089826
H152  H     H_    0.769131 0.641755 0.469797 0.092077
H153  H     H_    0.694437 0.758229 0.447717 0.102199
H154  H     H_    0.769236 0.891379 0.437820 0.133793
H155  H     H_    0.406286 0.096946 0.400668 0.122971
H156  H     H_    0.919079 0.908785 0.450418 0.091988
H157  H     H_    0.994314 0.793021 0.472634 0.094108
H158  H     H_    0.004463 0.203053 0.522916 0.096809
H159  H     H_    0.076831 0.086205 0.545464 0.090147
H160  H     H_    0.222082 0.105506 0.562124 0.149923
H161  H     H_    0.295068 0.242197 0.556232 0.106671
H162  H     H_    0.223214 0.359832 0.533852 0.089827
H163  H     H_    0.358234 0.769121 0.469803 0.092080
H164  H     H_    0.241754 0.694423 0.447727 0.102204
H165  H     H_    0.108607 0.769227 0.437828 0.133832
H166  H     H_    0.403008 0.093657 0.099330 0.122957
H167  H     H_    0.091213 0.919076 0.450419 0.091995
H168  H     H_    0.206983 0.994314 0.472633 0.094110
H169  H     H_    0.796948 0.004465 0.522903 0.096809
H170  H     H_    0.913803 0.076815 0.545453 0.090138
H171  H     H_    0.894502 0.222048 0.562128 0.149914
H172  H     H_    0.757807 0.295036 0.556249 0.106672
H173  H     H_    0.640167 0.223201 0.533866 0.089826
H174  H     H_    0.771860 0.452841 0.637540 0.102935
H175  H     H_    0.643167 0.508587 0.658370 0.094394
H176  H     H_    0.647115 0.645077 0.681713 0.115752
N1    N     N_R   0.500000 1.000000 0.932504 -0.391879
N2    N     N_R   0.499999 0.000000 0.068521 -0.394545
N3    N     N_R   0.000000 0.500000 0.932504 -0.391879
N4    N     N_R   0.999999 0.499999 0.068521 -0.394545
N5    N     N_R   0.000000 0.499995 0.431478 -0.394543
N6    N     N_R   0.000000 0.500001 0.567496 -0.391879
N7    N     N_R   0.499996 0.000008 0.431478 -0.394544
N8    N     N_R   0.500000 0.999998 0.567496 -0.391878
O1    O     O_3   1.000000 0.500000 0.750000 -0.431632
O2    O     O_R   0.000000 0.430630 0.192350 -0.535000
O3    O     O_R   0.430630 1.000000 0.807650 -0.533109
O4    O     O_R   0.569370 1.000000 0.192350 -0.535000
O5    O     O_R   0.500000 0.930630 0.307650 -0.535004
O6    O     O_R   0.500000 0.069370 0.692350 -0.533109
O7    O     O_R   0.069370 0.500000 0.307650 -0.535001
O8    O     O_R   0.930630 0.500000 0.692350 -0.533109
O9    O     O_R   0.500000 0.069370 0.307650 -0.535004
O10   O     O_R   0.500000 0.930630 0.692350 -0.533109
O11   O     O_R   0.930630 0.500000 0.307650 -0.535001
O12   O     O_3   1.000000 0.500000 0.250000 -0.432170
O13   O     O_R   0.069370 0.500000 0.692350 -0.533110
O14   O     O_R   0.902350 0.666510 0.764820 -0.532952
O15   O     O_R   0.097650 0.333490 0.235180 -0.538938
O16   O     O_R   0.333490 0.902350 0.764820 -0.532951
O17   O     O_R   0.666510 0.097650 0.235180 -0.538935
O18   O     O_R   0.097650 0.333490 0.764820 -0.532952
O19   O     O_R   0.902350 0.666510 0.235180 -0.538937
O20   O     O_R   0.666510 0.097650 0.764820 -0.532951
O21   O     O_R   0.333490 0.902350 0.235180 -0.538935
O22   O     O_R   0.902350 0.333490 0.235180 -0.529848
O23   O     O_3   0.500000 1.000000 0.750000 -0.431632
O24   O     O_R   0.097650 0.666510 0.764820 -0.536826
O25   O     O_R   0.333490 0.097650 0.235180 -0.529850
O26   O     O_R   0.666510 0.902350 0.764820 -0.536826
O27   O     O_R   0.097650 0.666510 0.235180 -0.529848
O28   O     O_R   0.902350 0.333490 0.764820 -0.536826
O29   O     O_R   0.666510 0.902350 0.235180 -0.529849
O30   O     O_R   0.333490 0.097650 0.764820 -0.536826
O31   O     O_R   0.402350 0.166510 0.264820 -0.529841
O32   O     O_R   0.597650 0.833490 0.735180 -0.536826
O33   O     O_R   0.833490 0.402350 0.264820 -0.529843
O34   O     O_3   0.500000 1.000000 0.250000 -0.432169
O35   O     O_R   0.166510 0.597650 0.735180 -0.536826
O36   O     O_R   0.597650 0.833490 0.264820 -0.529841
O37   O     O_R   0.402350 0.166510 0.735180 -0.536826
O38   O     O_R   0.166510 0.597650 0.264820 -0.529842
O39   O     O_R   0.833490 0.402350 0.735180 -0.536826
O40   O     O_R   0.402350 0.833490 0.735180 -0.532952
O41   O     O_R   0.597650 0.166510 0.264820 -0.538931
O42   O     O_R   0.833490 0.597650 0.735180 -0.532952
O43   O     O_R   0.166510 0.402350 0.264820 -0.538924
O44   O     O_R   0.597650 0.166510 0.735180 -0.532952
O45   O     O_R   1.000000 0.430630 0.807650 -0.533109
O46   O     O_R   0.402350 0.833490 0.264820 -0.538931
O47   O     O_R   0.166510 0.402350 0.735180 -0.532951
O48   O     O_R   0.833490 0.597650 0.264820 -0.538924
O49   O     O_2   0.535501 0.142673 0.931889 -0.512214
O50   O     O_2   0.444006 0.864550 0.069708 -0.503392
O51   O     O_2   0.857329 0.535507 0.931889 -0.512212
O52   O     O_2   0.135450 0.444005 0.069708 -0.503392
O53   O     O_2   0.464499 0.857327 0.931889 -0.512214
O54   O     O_2   0.555992 0.135451 0.069708 -0.503393
O55   O     O_2   0.142672 0.464495 0.931889 -0.512212
O56   O     O_R   1.000000 0.569370 0.192350 -0.535000
O57   O     O_2   0.864548 0.555991 0.069708 -0.503393
O58   O     O_2   0.944004 0.635445 0.430291 -0.503397
O59   O     O_2   0.035507 0.357329 0.568112 -0.512211
O60   O     O_2   0.364559 0.943981 0.430292 -0.503393
O61   O     O_2   0.642673 0.035499 0.568111 -0.512213
O62   O     O_2   0.055997 0.364546 0.430292 -0.503396
O63   O     O_2   0.964493 0.642672 0.568111 -0.512213
O64   O     O_2   0.635430 0.056042 0.430291 -0.503385
O65   O     O_2   0.357328 0.964494 0.568111 -0.512214
O66   O     O_R   0.569370 1.000000 0.807650 -0.533109
O67   O     O_R   0.430630 1.000000 0.192350 -0.534999
O68   O     O_R   1.000000 0.569370 0.807650 -0.533109
Zn1   Zn    Zn3+2 0.900880 0.500000 0.727850 0.940676
Zn2   Zn    Zn3+2 0.599120 1.000000 0.772150 0.940677
Zn3   Zn    Zn3+2 1.000000 0.400880 0.227850 0.938650
Zn4   Zn    Zn3+2 1.000000 0.599120 0.772150 0.940676
Zn5   Zn    Zn3+2 0.599120 1.000000 0.227850 0.938650
Zn6   Zn    Zn3+2 0.400880 1.000000 0.772150 0.940677
Zn7   Zn    Zn3+2 1.000000 0.599120 0.227850 0.938650
Zn8   Zn    Zn3+2 1.000000 0.400880 0.772150 0.940676
Zn9   Zn    Zn3+2 0.099120 0.500000 0.272150 0.938659
Zn10  Zn    Zn3+2 0.500000 0.900880 0.727850 0.940676
Zn11  Zn    Zn3+2 0.500000 0.099120 0.272150 0.938657
Zn12  Zn    Zn3+2 0.099120 0.500000 0.727850 0.940676
Zn13  Zn    Zn3+2 0.900880 0.500000 0.272150 0.938659
Zn14  Zn    Zn3+2 0.500000 0.099120 0.727850 0.940677
Zn15  Zn    Zn3+2 0.500000 0.900880 0.272150 0.938656
Zn16  Zn    Zn3+2 0.400880 1.000000 0.227850 0.938650

loop_
_geom_bond_atom_site_label_1
_geom_bond_atom_site_label_2
_ccdc_geom_bond_type
C172  C177  A    
C105  C110  A    
C126  C127  A    
C4    C318  S    
C101  C113  A    
C32   C45   A    
O41   Zn11  S    
O44   Zn14  S    
C253  H76   S    
C87   C88   A    
O43   Zn9   S    
C114  C115  A    
C80   H108  S    
C5    C317  S    
C146  C157  A    
C180  C181  A    
C278  C291  A    
C250  H74   S    
C192  C293  S    
C111  C118  A    
O35   Zn12  S    
C292  N8    S    
C213  H43   S    
C106  C107  A    
C160  H174  S    
C143  C144  A    
C284  C297  A    
C108  C109  A    
C307  O13   A    
O8    Zn1   S    
C17   C39   A    
O32   Zn10  S    
C18   C40   A    
C182  C183  A    
C79   C90   A    
C149  H165  S    
C56   H90   S    
C50   C270  A    
C227  H54   S    
C305  C328  S    
C324  O30   A    
C156  H172  S    
C3    C319  S    
C89   H117  S    
C185  C282  S    
C29   O61   S    
O7    Zn9   S    
O38   Zn9   S    
C243  H69   S    
C44   C135  A    
C110  H135  S    
C59   C60   A    
C237  H63   S    
O9    Zn11  S    
C307  O8    A    
C69   H99   S    
C238  H64   S    
C255  H78   S    
C171  H9    S    
C36   C179  A    
C176  H14   S    
C228  C229  A    
C206  H38   S    
C57   C288  A    
C94   H120  S    
C18   N2    A    
C202  C203  A    
C290  N6    S    
C252  C258  A    
C202  H34   S    
C1    C159  S    
C35   C239  S    
C140  C141  A    
C74   C75   A    
O25   Zn16  S    
C206  C207  A    
C72   C73   A    
C23   C37   A    
C51   C157  A    
C284  H13   S    
C75   C76   A    
O56   Zn7   S    
C120  H141  S    
C289  H68   S    
C22   O54   S    
C276  C294  A    
C175  C176  A    
C296  N1    S    
O23   Zn14  S    
O12   Zn9   S    
C319  O31   A    
O10   Zn10  S    
C22   N2    A    
C142  H160  S    
C33   N8    A    
C256  H80   S    
C154  C155  A    
C52   C58   A    
C198  C204  A    
C33   C47   A    
C308  O42   A    
C30   C43   A    
C107  H131  S    
C78   C212  S    
C302  C330  S    
C29   N8    A    
C178  C271  S    
C274  H89   S    
C47   C267  A    
C205  C206  A    
C279  C304  A    
C124  C135  A    
C298  N3    S    
C221  H51   S    
C91   H118  S    
C299  O45   A    
C223  C328  A    
C20   C42   A    
C139  C140  A    
C143  H161  S    
C13   C284  A    
C44   C265  A    
C22   C36   A    
C102  H127  S    
C199  H32   S    
C156  C158  A    
C130  C131  A    
C288  H57   S    
C172  C223  S    
C251  H75   S    
C75   H105  S    
C112  C165  S    
C236  H62   S    
C273  H1    S    
C148  C149  A    
C214  H44   S    
C69   C70   A    
C85   C224  S    
C27   O59   S    
O1    Zn8   S    
C195  C196  A    
C60   H92   S    
C187  C188  A    
C61   H93   S    
C279  H144  S    
C200  C202  A    
C193  C194  A    
C230  H58   S    
C155  C156  A    
C2    C218  S    
C100  H126  S    
C196  H30   S    
C281  C326  A    
C287  H46   S    
C186  C187  A    
C149  C150  A    
C187  H22   S    
C275  H100  S    
C243  C244  A    
C252  C253  A    
C165  C171  A    
C324  O37   A    
C285  C298  A    
C147  C148  A    
C84   H113  S    
C128  C129  A    
C6    C9    T    
C140  H158  S    
C7    C8    T    
C32   O64   S    
C85   C86   A    
C137  H156  S    
C249  C250  A    
C249  H73   S    
O45   Zn8   S    
C219  H49   S    
C309  O43   A    
C130  H150  S    
C122  H143  S    
C247  H71   S    
C261  C262  A    
C77   H107  S    
C267  C270  A    
C78   C80   A    
C248  H72   S    
C170  C171  A    
C17   N1    A    
C115  C116  A    
O47   Zn12  S    
C76   H106  S    
C236  C237  A    
C241  C242  A    
C15   C316  S    
C183  H19   S    
C299  O68   A    
C189  C191  A    
C174  C175  A    
C92   C93   A    
C210  H42   S    
C256  C258  A    
C241  H66   S    
C280  C294  A    
C107  C108  A    
C186  H21   S    
C231  H59   S    
C89   C91   A    
C28   N7    A    
C233  C234  A    
O34   Zn16  S    
C259  C260  A    
C23   O55   S    
C66   C67   A    
C49   C135  A    
C158  H173  S    
C322  O28   A    
C237  C238  A    
C21   N1    A    
C230  C231  A    
O34   Zn5   S    
C258  H81   S    
C220  C221  A    
C30   O62   S    
C92   C97   A    
C216  H47   S    
C16   C334  T    
C286  H35   S    
C306  C327  S    
C271  C276  A    
C190  C246  A    
C102  C103  A    
C111  C265  S    
C229  H56   S    
C300  O2    A    
C41   C235  A    
C222  C225  A    
C179  C212  A    
C145  C270  S    
O1    Zn4   S    
C207  H39   S    
C221  C222  A    
C25   C38   A    
C83   C84   A    
C209  C210  A    
C183  C184  A    
C26   N5    A    
C145  C151  A    
C103  H128  S    
C233  H60   S    
C264  H86   S    
O67   Zn16  S    
C31   N6    A    
C33   O65   S    
O48   Zn13  S    
C271  C329  A    
C98   C99   A    
C293  C327  A    
C257  C269  A    
C62   H94   S    
C129  H149  S    
C103  C104  A    
C120  C121  A    
C129  C130  A    
C47   C157  A    
C36   C90   A    
C309  O15   A    
C163  H3    S    
C54   C55   A    
C42   C246  A    
O18   Zn8   S    
C211  C213  A    
C25   N4    A    
C313  O48   A    
O68   Zn4   S    
C136  C137  A    
C262  C263  A    
C14   C336  T    
C299  C333  S    
O12   Zn13  S    
C52   C168  S    
C225  H53   S    
C301  C331  S    
C291  N5    S    
C6    C324  S    
C141  H159  S    
C280  H155  S    
C117  C118  A    
C82   H110  S    
C191  H26   S    
C37   C101  A    
C71   H102  S    
C104  H129  S    
O28   Zn8   S    
C228  H55   S    
C302  O67   A    
C56   C58   A    
C39   C212  A    
C194  C195  A    
O40   Zn10  S    
C61   C62   A    
C53   H79   S    
C63   C64   A    
C301  O3    A    
C74   H104  S    
C152  C153  A    
C226  C227  A    
C155  H171  S    
C150  C151  A    
O34   Zn11  S    
O26   Zn2   S    
O15   Zn3   S    
C68   C289  A    
C153  H169  S    
O5    Zn15  S    
C27   C49   A    
C55   C56   A    
C321  C335  S    
C8    C313  S    
C73   C74   A    
C70   H101  S    
C239  C240  A    
C13   C332  A    
O31   Zn11  S    
C277  C282  A    
C276  H111  S    
C161  C162  A    
C263  C264  A    
C16   C314  S    
C213  C214  A    
C52   C53   A    
C211  C326  S    
C93   C94   A    
O23   Zn6   S    
C234  C236  A    
C20   N4    A    
C46   C287  A    
C261  H83   S    
C28   O60   S    
C112  C274  A    
C98   C246  S    
O1    Zn12  S    
C29   C51   A    
C205  C315  S    
C123  C125  A    
C132  C138  A    
C125  H146  S    
C147  H163  S    
C161  H175  S    
C96   H123  S    
C312  O18   A    
C68   C333  A    
O6    Zn14  S    
C314  O44   A    
C193  H27   S    
C222  H52   S    
C95   C96   A    
C208  C209  A    
C217  H48   S    
C326  C330  A    
C220  H50   S    
C288  C297  A    
C208  H40   S    
C63   H95   S    
C70   C71   A    
C315  C329  A    
C26   C48   A    
C305  O6    A    
C50   C146  A    
C31   O63   S    
C58   H91   S    
C245  C251  A    
O30   Zn6   S    
O17   Zn5   S    
O29   Zn5   S    
C304  C328  A    
C34   C168  A    
C200  H33   S    
C145  C147  A    
C134  H153  S    
C117  H139  S    
C211  C217  A    
C152  C158  A    
C322  O39   A    
C317  O33   A    
C207  C208  A    
C26   O58   S    
C24   C333  A    
C25   O57   S    
C167  C169  A    
C259  C264  A    
C13   C226  S    
C38   C113  A    
O27   Zn7   S    
C86   C87   A    
C115  H137  S    
O2    Zn3   S    
C21   C34   A    
C19   O51   S    
C250  C251  A    
C53   C54   A    
C119  C266  S    
C7    C323  S    
C2    C331  A    
C285  H24   S    
C60   C61   A    
C39   C79   A    
C297  N4    S    
C62   C63   A    
O24   Zn4   S    
C303  O5    A    
C112  C327  A    
C159  C160  A    
C54   H87   S    
C121  H142  S    
C323  O29   A    
C242  C243  A    
C320  O32   A    
O1    Zn1   S    
C317  O22   A    
C4    C11   T    
O37   Zn14  S    
C121  C122  A    
O36   Zn15  S    
C119  C125  A    
C57   C332  A    
C45   C266  A    
C164  H4    S    
C305  O10   A    
C245  C247  A    
C133  C134  A    
C273  C290  A    
C166  H5    S    
C127  C128  A    
C106  H130  S    
O42   Zn1   S    
C219  C220  A    
C248  C249  A    
O23   Zn2   S    
C162  C163  A    
C105  C257  S    
O12   Zn3   S    
C181  H17   S    
C14   C308  S    
C24   C232  S    
C144  H162  S    
C68   C259  S    
C178  C180  A    
C119  C120  A    
C105  C106  A    
C92   C235  S    
C275  C292  A    
C254  C255  A    
C59   C179  S    
O46   Zn15  S    
C266  C272  A    
C109  C110  A    
C192  C193  A    
C316  O46   A    
C313  O19   A    
C185  C186  A    
C253  C254  A    
C314  O20   A    
C55   H88   S    
C244  H70   S    
C232  C233  A    
C41   C101  A    
C286  C295  A    
C111  C114  A    
C215  C216  A    
C94   C95   A    
C306  O7    A    
C318  O24   A    
O14   Zn4   S    
C114  H136  S    
C83   H112  S    
C215  H45   S    
C65   C190  S    
C162  H176  S    
C82   C83   A    
O66   Zn2   S    
C278  H133  S    
C151  H168  S    
C311  O17   A    
C282  C325  A    
C142  C143  A    
C307  C325  S    
C40   C90   A    
C294  N7    S    
C27   N6    A    
O21   Zn16  S    
C177  H15   S    
C19   C41   A    
C194  H28   S    
C32   N7    A    
O33   Zn13  S    
C203  C204  A    
C34   C79   A    
C165  C166  A    
C323  O36   A    
C204  H37   S    
C169  C170  A    
C163  C164  A    
C128  H148  S    
C81   C82   A    
C85   C91   A    
C9    C312  S    
C173  C174  A    
C116  C117  A    
C10   C311  S    
C197  H31   S    
C81   H109  S    
C59   C64   A    
C229  C230  A    
C11   C310  S    
O19   Zn7   S    
C40   C224  A    
C289  C298  A    
C205  C210  A    
C312  O47   A    
C180  H16   S    
C118  H140  S    
C185  C191  A    
C98   C104  A    
C201  C235  A    
C48   C268  A    
C97   H124  S    
C116  H138  S    
C226  C231  A    
C181  C182  A    
C196  C197  A    
C287  C296  A    
C320  O26   A    
O34   Zn15  S    
C131  H151  S    
C300  C332  S    
C88   H116  S    
C240  C241  A    
O16   Zn6   S    
C3    C12   T    
C167  H6    S    
C108  H132  S    
C28   C50   A    
C18   O50   S    
C182  H18   S    
C227  C228  A    
C65   C71   A    
C132  C133  A    
C67   H98   S    
C306  O11   A    
C242  H67   S    
C216  C217  A    
C239  C244  A    
C203  H36   S    
C20   O52   S    
O20   Zn2   S    
C274  C291  A    
C218  C225  A    
C1    C273  A    
C150  H167  S    
C30   N5    A    
C88   C89   A    
C321  O27   A    
C263  H85   S    
O13   Zn12  S    
C87   H115  S    
O23   Zn10  S    
C86   H114  S    
C232  C238  A    
C318  O35   A    
C320  C336  S    
C281  C295  A    
C168  C224  A    
C66   H97   S    
O3    Zn6   S    
C322  C334  S    
C139  C269  S    
C31   C44   A    
C45   C146  A    
C76   C77   A    
C303  C329  S    
C234  H61   S    
C254  H77   S    
C310  O40   A    
C148  H164  S    
C214  C215  A    
C134  C136  A    
C277  C290  A    
C192  C197  A    
C278  C293  A    
C198  C304  S    
C195  H29   S    
C300  O56   A    
C188  C189  A    
C67   C69   A    
C35   C330  A    
C72   C77   A    
O11   Zn13  S    
C295  N2    S    
C132  C268  S    
C188  H23   S    
C189  H25   S    
C139  C144  A    
C42   C113  A    
C99   C100  A    
C283  C296  A    
C96   C97   A    
C100  C102  A    
C35   C286  A    
C240  H65   S    
C57   C252  S    
C311  O41   A    
C198  C199  A    
C99   H125  S    
C123  H145  S    
O22   Zn3   S    
C176  C177  A    
C93   H119  S    
C262  H84   S    
C279  C292  A    
C19   N3    A    
C166  C167  A    
C73   H103  S    
C260  H82   S    
C126  C267  S    
C95   H121  S    
O39   Zn1   S    
C255  C256  A    
C43   C257  A    
C172  C173  A    
C138  H157  S    
C308  O14   A    
C316  O21   A    
C175  H12   S    
C260  C261  A    
C24   C285  A    
C310  O16   A    
C174  H11   S    
C159  C164  A    
C21   O53   S    
C277  H122  S    
C109  H134  S    
C283  H2    S    
C15   C335  T    
C46   C245  S    
C209  H41   S    
C80   C81   A    
C136  H154  S    
C48   C124  A    
C247  C248  A    
C303  O9    A    
C2    C283  A    
C321  O38   A    
C64   H96   S    
C137  C138  A    
C12   C309  S    
C160  C161  A    
C122  C123  A    
C23   N3    A    
C5    C10   T    
C141  C142  A    
C281  H166  S    
C127  H147  S    
C173  H10   S    
C218  C219  A    
C126  C131  A    
C152  C272  S    
C280  C315  A    
C169  H7    S    
C46   C331  A    
C38   C201  A    
O4    Zn5   S    
C37   C190  A    
C199  C200  A    
C265  C268  A    
C1    C325  A    
C133  H152  S    
C170  H8    S    
C184  H20   S    
C78   C84   A    
C223  C275  A    
C302  O4    A    
C65   C66   A    
O12   Zn7   S    
C319  O25   A    
C301  O66   A    
C154  H170  S    
C153  C154  A    
C51   C272  A    
C43   C124  A    
C178  C184  A    
C17   O49   S    
C72   C201  S    
C49   C269  A    
