data_mof_unit_40432.cif
_audit_creation_date              2013-03-05T16:06:55-0500
_audit_creation_method            fapswitch 2.2
_symmetry_space_group_name_H-M    P1
_symmetry_Int_Tables_number       1
_space_group_crystal_system       triclinic
_cell_length_a                    14.514044
_cell_length_b                    16.165518
_cell_length_c                    6.952519
_cell_angle_alpha                 89.956537
_cell_angle_beta                  98.771061
_cell_angle_gamma                 90.024919
_cell_volume                      1612.17180324

loop_
_atom_site_label
_atom_site_type_symbol
_atom_site_description
_atom_site_fract_x
_atom_site_fract_y
_atom_site_fract_z
_atom_type_partial_charge
O1    O     O_R   0.584990 0.413650 0.534420 -0.602777
O2    O     O_R   0.584990 0.586350 0.534420 -0.601973
O3    O     O_R   0.596190 0.585230 0.208380 -0.559091
O4    O     O_R   0.596190 0.414770 0.208380 -0.560238
O5    O     O_R   0.415010 0.586420 0.976930 -0.608059
O6    O     O_R   0.415010 0.413580 0.976930 -0.595205
C1    C     C_R   0.619117 0.614001 0.384152 1.018804
C2    C     C_R   0.618434 0.385487 0.384150 1.027751
O7    O     O_3   0.440560 0.500000 0.319140 -0.295658
V1    V     V_3+5 0.511030 0.500000 0.068070 1.215832
O8    O     O_R   0.403810 0.414840 0.643540 -0.605175
O9    O     O_R   0.403810 0.585160 0.643540 -0.604916
C3    C     C_R   0.381666 0.385972 0.805913 1.055978
C4    C     C_R   0.381667 0.614048 0.805859 1.021199
V2    V     V_3+5 0.488970 0.500000 0.560620 1.172011
O10   O     O_3   0.559440 0.500000 0.859420 -0.264256
H1    H     H_    0.188689 0.806373 0.806266 0.155612
H2    H     H_    0.188644 0.193737 0.806219 0.155610
H3    H     H_    0.319000 0.693479 0.101630 0.156804
H4    H     H_    0.319033 0.306426 0.101687 0.159193
C5    C     C_2   0.312602 0.682012 0.796399 -0.489663
C6    C     C_2   0.312584 0.318042 0.796470 -0.481358
C7    C     C_2   0.288122 0.715942 0.958896 -0.059358
C8    C     C_2   0.288124 0.284050 0.958952 -0.036485
H5    H     H_    0.225512 0.795482 0.253817 0.156046
H6    H     H_    0.225528 0.204412 0.253743 0.158421
C9    C     C_2   0.194728 0.818185 0.111257 -0.482574
C10   C     C_2   0.194724 0.181779 0.111192 -0.478425
C11   C     C_2   0.219499 0.784076 0.949201 -0.059960
C12   C     C_2   0.219477 0.215951 0.949155 -0.066513
H7    H     H_    0.281745 0.705039 0.654181 0.155066
H8    H     H_    0.281698 0.295089 0.654262 0.151986
C13   C     C_R   0.679573 0.745336 0.553638 0.058327
C14   C     C_R   0.748657 0.308981 0.593602 0.001001
C15   C     C_R   0.686021 0.684556 0.412538 -0.395992
C16   C     C_R   0.689258 0.318057 0.415495 -0.367318
C17   C     C_R   0.755869 0.695689 0.293432 0.736944
C18   C     C_R   0.694773 0.257303 0.272157 0.764374
C19   C     C_R   0.819872 0.762105 0.325965 -0.255817
C20   C     C_R   0.760385 0.192354 0.304221 -0.263489
H9    H     H_    0.874560 0.766746 0.236552 0.151821
H10   H     H_    0.760957 0.145534 0.195070 0.211966
C21   C     C_R   0.817520 0.818413 0.480390 -0.307934
C22   C     C_R   0.818777 0.182916 0.483255 -0.247357
C23   C     C_R   0.743544 0.810192 0.587203 0.139720
C24   C     C_R   0.808623 0.240526 0.628521 -0.016012
C25   C     C_3   0.743156 0.806268 0.801998 0.167086
C26   C     C_3   0.776721 0.223277 0.818931 0.214495
C27   C     C_3   0.672442 0.736130 0.764205 -0.512972
C28   C     C_3   0.718667 0.301755 0.788401 -0.387620
H11   H     H_    0.811287 0.787353 0.886165 0.085122
H12   H     H_    0.834228 0.225381 0.944318 0.038985
H13   H     H_    0.601612 0.751543 0.795792 0.215271
H14   H     H_    0.642161 0.293050 0.778168 0.265410
H15   H     H_    0.699850 0.675526 0.821984 0.245238
H16   H     H_    0.747074 0.353004 0.886471 0.164353
O11   O     O_R   0.921430 0.915960 0.371040 -0.567496
O12   O     O_R   0.921430 0.084040 0.371040 -0.593363
O13   O     O_R   0.910450 0.087500 0.697310 -0.575284
O14   O     O_R   0.910450 0.912500 0.697310 -0.602045
O15   O     O_R   0.091710 0.087460 0.928430 -0.610947
O16   O     O_R   0.091710 0.912540 0.928430 -0.610289
C29   C     C_R   0.886989 0.113541 0.519202 1.005576
C30   C     C_R   0.888063 0.885657 0.519570 1.011594
O17   O     O_3   0.065970 0.000000 0.586140 -0.294020
V3    V     V_3+5 0.995640 0.000000 0.837400 1.221779
O18   O     O_R   0.103020 0.915700 0.261710 -0.606182
O19   O     O_R   0.103020 0.084300 0.261710 -0.604004
C31   C     C_R   0.125336 0.885979 0.100243 1.021744
C32   C     C_R   0.125330 0.114008 0.100189 1.020732
V4    V     V_3+5 0.017940 0.000000 0.344880 1.190178
O20   O     O_3   0.947330 0.000000 0.046180 -0.227144
F1    F     F_    0.767642 0.638591 0.156541 -0.729280
F2    F     F_    0.629510 0.255194 0.110867 -0.701294
N1    N     N_R   0.704171 0.880914 0.877023 0.273292
O21   O     O_R   0.743687 0.912503 0.040972 -0.340673
O22   O     O_R   0.629237 0.915366 0.784135 -0.318277
N2    N     N_R   0.719877 0.147557 0.809817 0.271389
O23   O     O_R   0.757193 0.079373 0.884017 -0.324941
O24   O     O_R   0.639218 0.143629 0.698552 -0.325274

loop_
_geom_bond_atom_site_label_1
_geom_bond_atom_site_label_2
_geom_bond_distance
_ccdc_geom_bond_type
O15   C32   1.292744 A    
C9    C11   1.351803 D    
O1    C2    1.299998 A    
H1    C11   1.086967 S    
O2    C1    1.301366 A    
O4    C2    1.304086 A    
C25   C27   1.524848 S    
C5    H7    1.086904 S    
C28   H14   1.110711 S    
C6    H8    1.086933 S    
C7    C11   1.479883 S    
C4    C5    1.482224 S    
C15   C17   1.414733 A    
C26   C28   1.520019 S    
O3    C1    1.302765 A    
O13   V3    2.027405 S    
N2    O24   1.302604 A    
O12   V4    1.980041 S    
C13   C27   1.490622 S    
V2    O10   2.171121 S    
C13   C23   1.396132 A    
C2    C16   1.491515 S    
C26   N2    1.471837 S    
O8    V2    1.992462 S    
O15   V3    2.018474 S    
V3    O20   1.705588 S    
H4    C8    1.086976 S    
O17   V4    1.715490 S    
O1    V2    2.000857 S    
O7    V1    2.153517 S    
O18   V4    1.984124 S    
C9    C31   1.482763 S    
C20   H10   1.073125 S    
O14   V3    2.027685 S    
C14   C24   1.406062 A    
C22   C24   1.398572 A    
C21   C30   1.489485 S    
C23   C25   1.495532 S    
C22   C29   1.491798 S    
C24   C26   1.493629 S    
C14   C28   1.488910 S    
O16   V3    2.018652 S    
C19   H9    1.082792 S    
N2    O23   1.299549 A    
C25   H11   1.112329 S    
C27   H15   1.109256 S    
C28   H16   1.111792 S    
O16   C31   1.292704 A    
O18   C31   1.306839 A    
H3    C7    1.086947 S    
N1    O21   1.300090 A    
N1    O22   1.302266 A    
O9    V2    1.993808 S    
C20   C22   1.403213 A    
O11   V4    1.979016 S    
O2    V2    1.999817 S    
C21   C23   1.401733 A    
O5    C4    1.293104 A    
H2    C12   1.086994 S    
O9    C4    1.306323 A    
C5    C7    1.351658 D    
C6    C8    1.351047 D    
O13   C29   1.302796 A    
O4    V1    2.002342 S    
O11   C30   1.300935 A    
C18   F2    1.353503 S    
O12   C29   1.302457 A    
C17   F1    1.355735 S    
C1    C15   1.491204 S    
C10   C32   1.481953 S    
O6    V1    2.006429 S    
C19   C21   1.412485 A    
H5    C9    1.086848 S    
H6    C10   1.086875 S    
O14   C30   1.303515 A    
C10   C12   1.351182 D    
O7    V2    1.718317 S    
C25   N1    1.462857 S    
O5    V1    2.006603 S    
C17   C19   1.415020 A    
O3    V1    2.002620 S    
V1    O10   1.705548 S    
O6    C3    1.293148 A    
C18   C20   1.412350 A    
O8    C3    1.305840 A    
O19   V4    1.982782 S    
C27   H13   1.111893 S    
C16   C18   1.410672 A    
C13   C15   1.402152 A    
C3    C6    1.481408 S    
C14   C16   1.404424 A    
C8    C12   1.479089 S    
C26   H12   1.111706 S    
V4    O20   2.171169 S    
O19   C32   1.306332 A    
O17   V3    2.153468 S    
