data_mof_unit_63141.cif
_audit_creation_date              2012-12-10T21:23:25-0500
_audit_creation_method            fapswitch 2.2
_symmetry_space_group_name_H-M    P1
_symmetry_Int_Tables_number       1
_space_group_crystal_system       triclinic
_cell_length_a                    25.29449
_cell_length_b                    24.497874
_cell_length_c                    16.806176
_cell_angle_alpha                 89.817061
_cell_angle_beta                  89.881378
_cell_angle_gamma                 90.161606
_cell_volume                      10414.0186511

loop_
_atom_site_label
_atom_site_type_symbol
_atom_type_description
_atom_site_fract_x
_atom_site_fract_y
_atom_site_fract_z
_atom_type_partial_charge
C1    C     C_R   0.073270 0.426671 0.499676 0.939064
C2    C     C_R   0.925385 0.572128 0.499652 0.924165
C3    C     C_R   0.925386 0.427500 0.500480 0.918885
C4    C     C_R   0.073397 0.573477 0.500198 0.928063
C5    C     C_R   0.573266 0.926666 0.499675 0.939047
C6    C     C_R   0.425389 0.072132 0.499652 0.924183
C7    C     C_R   0.425391 0.927500 0.500484 0.919099
C8    C     C_R   0.573403 0.073474 0.500198 0.927894
C9    C     C_R   0.993246 0.452238 0.748638 0.198313
C10   C     C_R   0.988911 0.546981 0.251530 0.204308
C11   C     C_R   0.007645 0.547831 0.747743 0.197846
C12   C     C_R   0.012006 0.453152 0.251715 0.193420
C13   C     C_R   0.493196 0.952244 0.748637 0.198321
C14   C     C_R   0.488929 0.046986 0.251532 0.204287
C15   C     C_R   0.507681 0.047825 0.747745 0.197863
C16   C     C_R   0.512005 0.953153 0.251713 0.193381
C17   C     C_R   0.999470 0.500405 0.875814 0.034344
C18   C     C_R   0.999075 0.500119 0.123983 0.027688
C19   C     C_R   0.499469 0.000404 0.875814 0.034336
C20   C     C_R   0.499079 0.000122 0.123983 0.027720
C21   C     C_1   0.999122 0.500519 0.963508 -0.048511
C22   C     C_1   0.998968 0.500408 0.036258 -0.050055
C23   C     C_1   0.499122 0.000519 0.963508 -0.048514
C24   C     C_1   0.498969 0.000411 0.036257 -0.050058
C25   C     C_R   0.184682 0.668574 0.557360 0.199306
C26   C     C_R   0.819088 0.330672 0.430248 0.184864
C27   C     C_R   0.795151 0.362619 0.562962 0.189843
C28   C     C_R   0.134655 0.708873 0.447444 0.155197
C29   C     C_R   0.797587 0.640509 0.438714 0.194606
C30   C     C_R   0.138630 0.293534 0.549435 0.135978
C31   C     C_R   0.188363 0.337821 0.442021 0.187823
C32   C     C_R   0.827960 0.679158 0.564608 0.185929
C33   C     C_R   0.684684 0.168595 0.557329 0.199386
C34   C     C_R   0.319280 0.830453 0.430333 0.185174
C35   C     C_R   0.295127 0.862650 0.562836 0.189867
C36   C     C_R   0.634580 0.208927 0.447520 0.155193
C37   C     C_R   0.297622 0.140558 0.438685 0.194591
C38   C     C_R   0.638600 0.793517 0.549452 0.136008
C39   C     C_R   0.688324 0.837768 0.441997 0.187813
C40   C     C_R   0.327971 0.179163 0.564621 0.185973
C41   C     C_R   0.152090 0.622284 0.555849 0.127255
C42   C     C_R   0.867239 0.358692 0.435004 0.149193
C43   C     C_R   0.840754 0.394913 0.565131 0.128282
C44   C     C_R   0.100059 0.664229 0.448761 0.148868
C45   C     C_R   0.840508 0.604769 0.438367 0.132178
C46   C     C_R   0.102238 0.336416 0.548704 0.147673
C47   C     C_R   0.153844 0.382283 0.443939 0.090410
C48   C     C_R   0.873396 0.646855 0.561135 0.142483
C49   C     C_R   0.652116 0.122286 0.555803 0.127232
C50   C     C_R   0.367391 0.858534 0.435124 0.149079
C51   C     C_R   0.340716 0.894963 0.565035 0.128276
C52   C     C_R   0.600011 0.164259 0.448821 0.148873
C53   C     C_R   0.340534 0.104809 0.438340 0.132181
C54   C     C_R   0.602217 0.836409 0.548715 0.147622
C55   C     C_R   0.653815 0.882240 0.443907 0.090384
C56   C     C_R   0.373403 0.146854 0.561152 0.142495
C57   C     C_R   0.109595 0.620074 0.501171 -0.244276
C58   C     C_R   0.878107 0.392140 0.501544 -0.272809
C59   C     C_R   0.879717 0.608911 0.498745 -0.275501
C60   C     C_R   0.110893 0.381761 0.498164 -0.212382
C61   C     C_R   0.609592 0.120081 0.501172 -0.244266
C62   C     C_R   0.378139 0.892116 0.501555 -0.272855
C63   C     C_R   0.379729 0.108924 0.498743 -0.275599
C64   C     C_R   0.610877 0.881744 0.498158 -0.212441
C65   C     C_R   0.176101 0.711075 0.502517 -0.082620
C66   C     C_R   0.784695 0.330803 0.495713 -0.086965
C67   C     C_R   0.791686 0.677381 0.501682 -0.093172
C68   C     C_R   0.180812 0.294322 0.495210 -0.052516
C69   C     C_R   0.676055 0.211123 0.502547 -0.082646
C70   C     C_R   0.284782 0.830706 0.495675 -0.087222
C71   C     C_R   0.291712 0.177412 0.501672 -0.093190
C72   C     C_R   0.680775 0.794284 0.495213 -0.052525
C73   C     C_1   0.211273 0.756230 0.500737 -0.036588
C74   C     C_1   0.743032 0.292026 0.498338 -0.040745
C75   C     C_1   0.750773 0.716661 0.498803 -0.033405
C76   C     C_1   0.218255 0.251475 0.496579 0.009254
C77   C     C_1   0.711206 0.256299 0.500777 -0.036579
C78   C     C_1   0.243113 0.791941 0.498295 -0.040737
C79   C     C_1   0.250810 0.216701 0.498791 -0.033428
C80   C     C_1   0.718214 0.751433 0.496591 0.009238
C81   C     C_R   0.992307 0.451561 0.833091 -0.038074
C82   C     C_R   0.987814 0.547820 0.167136 -0.038705
C83   C     C_R   0.007699 0.548945 0.832226 -0.038427
C84   C     C_R   0.011359 0.452329 0.166904 -0.014304
C85   C     C_R   0.492258 0.951568 0.833091 -0.038072
C86   C     C_R   0.487833 0.047827 0.167137 -0.038707
C87   C     C_R   0.507737 0.048938 0.832227 -0.038412
C88   C     C_R   0.511354 0.952330 0.166902 -0.014395
N1    N     N_R   0.000000 0.500000 0.707230 -0.115161
N2    N     N_R   0.000000 0.500000 0.292770 -0.120504
N3    N     N_R   0.500000 1.000000 0.707230 -0.115181
N4    N     N_R   0.500000 0.000000 0.292770 -0.120455
O1    O     O_R   0.055440 0.444550 0.566570 -0.584960
O2    O     O_R   0.944560 0.555450 0.433430 -0.605608
O3    O     O_R   0.944560 0.555450 0.566570 -0.593484
O4    O     O_R   0.055440 0.444550 0.433430 -0.616320
O5    O     O_R   0.944560 0.444550 0.433430 -0.612501
O6    O     O_R   0.055440 0.555450 0.566570 -0.622786
O7    O     O_R   0.055440 0.555450 0.433430 -0.575250
O8    O     O_R   0.944560 0.444550 0.566570 -0.604687
O9    O     O_R   0.555440 0.944550 0.566570 -0.585008
O10   O     O_R   0.444560 0.055450 0.433430 -0.605576
O11   O     O_R   0.444560 0.055450 0.566570 -0.593489
O12   O     O_R   0.555440 0.944550 0.433430 -0.616225
O13   O     O_R   0.444560 0.944550 0.433430 -0.612621
O14   O     O_R   0.555440 0.055450 0.566570 -0.622824
O15   O     O_R   0.555440 0.055450 0.433430 -0.575224
O16   O     O_R   0.444560 0.944550 0.566570 -0.604713
Zn1   Zn    Zn3+2 0.000000 0.500000 0.588860 0.967276
Zn2   Zn    Zn3+2 0.000000 0.500000 0.411140 0.961905
Zn3   Zn    Zn3+2 0.500000 0.000000 0.588860 0.967268
Zn4   Zn    Zn3+2 0.500000 0.000000 0.411140 0.961919
N5    N     N_2   0.225889 0.671897 0.615044 -0.279118
H1    H     H_    0.259920 0.691298 0.596201 0.223474
C89   C     C_3   0.208477 0.689864 0.692671 -0.780590
H2    H     H_    0.192800 0.732135 0.688996 0.234080
H3    H     H_    0.242334 0.689254 0.734603 0.231537
H4    H     H_    0.177240 0.662268 0.716368 0.255860
N6    N     N_2   0.806639 0.300972 0.359892 -0.298429
H5    H     H_    0.791113 0.262551 0.369451 0.228490
C90   C     C_3   0.777203 0.332119 0.301823 -0.817734
H6    H     H_    0.737689 0.343019 0.325980 0.247138
H7    H     H_    0.771770 0.307382 0.247195 0.240610
H8    H     H_    0.798938 0.370028 0.285552 0.241600
N7    N     N_2   0.759922 0.362555 0.629452 -0.277716
H9    H     H_    0.720603 0.356943 0.615477 0.224811
C91   C     C_3   0.776886 0.328676 0.695231 -0.773892
H10   H     H_    0.780078 0.285472 0.676032 0.234661
H11   H     H_    0.747669 0.331324 0.744455 0.232820
H12   H     H_    0.815813 0.342619 0.717986 0.250557
N8    N     N_2   0.126137 0.752352 0.392315 -0.303170
H13   H     H_    0.131469 0.790850 0.415679 0.234613
C92   C     C_3   0.152977 0.745386 0.316936 -0.821262
H14   H     H_    0.196450 0.745064 0.325786 0.250912
H15   H     H_    0.142667 0.779593 0.276401 0.241590
H16   H     H_    0.140826 0.706502 0.288418 0.241584
N9    N     N_2   0.760222 0.638510 0.375210 -0.278837
H17   H     H_    0.721942 0.648296 0.390683 0.221750
C93   C     C_3   0.777588 0.665515 0.303033 -0.770285
H18   H     H_    0.785087 0.709470 0.314572 0.239834
H19   H     H_    0.746540 0.661747 0.256750 0.231531
H20   H     H_    0.814336 0.646493 0.280011 0.250058
N10   N     N_2   0.131680 0.249134 0.603583 -0.304206
H21   H     H_    0.139674 0.211265 0.579850 0.231385
C94   C     C_3   0.156859 0.257375 0.679852 -0.823856
H22   H     H_    0.200299 0.261536 0.672176 0.250190
H23   H     H_    0.148537 0.221918 0.719283 0.241360
H24   H     H_    0.141471 0.294754 0.708962 0.242802
N11   N     N_2   0.230988 0.336552 0.386423 -0.291022
H25   H     H_    0.249646 0.373610 0.378012 0.248102
C95   C     C_3   0.217938 0.310221 0.312096 -0.791085
H26   H     H_    0.253881 0.307613 0.274291 0.233629
H27   H     H_    0.187414 0.334101 0.279778 0.243876
H28   H     H_    0.202928 0.268185 0.323047 0.248236
N12   N     N_2   0.819883 0.714131 0.631206 -0.290172
H29   H     H_    0.805143 0.752220 0.617604 0.231409
C96   C     C_3   0.792266 0.688344 0.696787 -0.817691
H30   H     H_    0.751861 0.675926 0.678188 0.244185
H31   H     H_    0.789102 0.717443 0.747075 0.239187
H32   H     H_    0.814051 0.651750 0.717711 0.242285
N13   N     N_2   0.725920 0.171908 0.614966 -0.279100
H33   H     H_    0.759934 0.191333 0.596101 0.223463
C97   C     C_3   0.708542 0.189830 0.692632 -0.780520
H34   H     H_    0.692858 0.232101 0.689023 0.234078
H35   H     H_    0.742419 0.189202 0.734527 0.231536
H36   H     H_    0.677320 0.162217 0.716330 0.255898
N14   N     N_2   0.306981 0.800565 0.360085 -0.298155
H37   H     H_    0.291423 0.762173 0.369778 0.228557
C98   C     C_3   0.277687 0.831564 0.301684 -0.817847
H38   H     H_    0.238130 0.842560 0.325585 0.247098
H39   H     H_    0.272356 0.806676 0.247180 0.240565
H40   H     H_    0.299476 0.869415 0.285288 0.241645
N15   N     N_2   0.259806 0.862683 0.629215 -0.277709
H41   H     H_    0.220506 0.857057 0.615130 0.224805
C99   C     C_3   0.276673 0.828889 0.695143 -0.773828
H42   H     H_    0.279876 0.785656 0.676080 0.234651
H43   H     H_    0.247392 0.831614 0.744273 0.232803
H44   H     H_    0.315574 0.842850 0.717972 0.250577
N16   N     N_2   0.626003 0.252436 0.392463 -0.303167
H45   H     H_    0.631325 0.290922 0.415875 0.234604
C100  C     C_3   0.652802 0.245540 0.317036 -0.821231
H46   H     H_    0.696280 0.245255 0.325823 0.250883
H47   H     H_    0.642436 0.279761 0.276561 0.241603
H48   H     H_    0.640668 0.206661 0.288486 0.241559
N17   N     N_2   0.260273 0.138586 0.375157 -0.278807
H49   H     H_    0.221990 0.148370 0.390616 0.221758
C101  C     C_3   0.277660 0.165621 0.303014 -0.770295
H50   H     H_    0.285159 0.209570 0.314596 0.239840
H51   H     H_    0.246624 0.161874 0.256710 0.231535
H52   H     H_    0.314413 0.146605 0.279997 0.250043
N18   N     N_2   0.631647 0.749131 0.603621 -0.304205
H53   H     H_    0.639637 0.711256 0.579905 0.231371
C102  C     C_3   0.656831 0.757385 0.679883 -0.823837
H54   H     H_    0.700271 0.761543 0.672200 0.250185
H55   H     H_    0.648510 0.721935 0.719330 0.241352
H56   H     H_    0.641447 0.794770 0.708980 0.242808
N19   N     N_2   0.730936 0.836476 0.386379 -0.291011
H57   H     H_    0.749598 0.873528 0.377933 0.248101
C103  C     C_3   0.717866 0.810122 0.312076 -0.791109
H58   H     H_    0.753799 0.807500 0.274253 0.233633
H59   H     H_    0.687336 0.833995 0.279759 0.243853
H60   H     H_    0.702855 0.768091 0.323063 0.248234
N20   N     N_2   0.319879 0.214114 0.631240 -0.290162
H61   H     H_    0.305135 0.252205 0.617662 0.231393
C104  C     C_3   0.292261 0.188301 0.696799 -0.817660
H62   H     H_    0.251859 0.175882 0.678183 0.244179
H63   H     H_    0.289087 0.217383 0.747105 0.239180
H64   H     H_    0.314052 0.151704 0.717702 0.242291
N21   N     N_2   0.162711 0.578793 0.610266 -0.295065
H65   H     H_    0.132511 0.560264 0.641287 0.247076
C105  C     C_3   0.210330 0.547185 0.598571 -0.767199
H66   H     H_    0.235993 0.551396 0.651674 0.255476
H67   H     H_    0.232734 0.560948 0.545110 0.243483
H68   H     H_    0.199911 0.503430 0.591511 0.224099
N22   N     N_2   0.905808 0.351434 0.374165 -0.286847
H69   H     H_    0.893859 0.365256 0.319076 0.239850
C106  C     C_3   0.929268 0.297543 0.371055 -0.809955
H70   H     H_    0.967343 0.299497 0.338335 0.229884
H71   H     H_    0.902885 0.268651 0.339349 0.256314
H72   H     H_    0.936891 0.281562 0.431816 0.244604
N23   N     N_2   0.847131 0.429908 0.632044 -0.280386
H73   H     H_    0.881688 0.427052 0.663705 0.246040
C107  C     C_3   0.825575 0.484176 0.623863 -0.728727
H74   H     H_    0.826339 0.504980 0.682434 0.228184
H75   H     H_    0.783970 0.482259 0.602941 0.240640
H76   H     H_    0.849504 0.508321 0.581291 0.229403
N24   N     N_2   0.053472 0.665457 0.401291 -0.276646
H77   H     H_    0.058035 0.684391 0.346911 0.241880
C108  C     C_3   0.007292 0.685000 0.443105 -0.753780
H78   H     H_    0.972173 0.682525 0.403776 0.234756
H79   H     H_    0.013068 0.728183 0.461298 0.229255
H80   H     H_    0.999654 0.659501 0.496513 0.254850
N25   N     N_2   0.841787 0.564168 0.377776 -0.283726
H81   H     H_    0.875499 0.561261 0.343949 0.247313
C109  C     C_3   0.817214 0.512710 0.398208 -0.737501
H82   H     H_    0.815478 0.486268 0.344740 0.229325
H83   H     H_    0.776283 0.519292 0.420225 0.243837
H84   H     H_    0.840586 0.491705 0.444485 0.224218
N26   N     N_2   0.054916 0.332248 0.594520 -0.279191
H85   H     H_    0.058785 0.311343 0.647432 0.244498
C110  C     C_3   0.009608 0.313466 0.549915 -0.769266
H86   H     H_    0.973748 0.314990 0.588050 0.234264
H87   H     H_    0.015794 0.270716 0.530084 0.230753
H88   H     H_    0.002908 0.339919 0.497197 0.246351
N27   N     N_2   0.161940 0.425639 0.388421 -0.301550
H89   H     H_    0.131264 0.432517 0.349531 0.267818
C111  C     C_3   0.185354 0.474668 0.420552 -0.802513
H90   H     H_    0.195316 0.503120 0.371186 0.243052
H91   H     H_    0.222308 0.464722 0.453075 0.238340
H92   H     H_    0.157172 0.495295 0.461053 0.240066
N28   N     N_2   0.913488 0.653344 0.619713 -0.270057
H93   H     H_    0.903164 0.638378 0.674990 0.233582
C112  C     C_3   0.939483 0.706187 0.621977 -0.786650
H94   H     H_    0.982582 0.700377 0.630324 0.235448
H95   H     H_    0.924073 0.730580 0.672529 0.247842
H96   H     H_    0.933477 0.729480 0.565814 0.242524
N29   N     N_2   0.662796 0.078770 0.610155 -0.295078
H97   H     H_    0.632602 0.060115 0.641027 0.247102
C113  C     C_3   0.710426 0.047203 0.598319 -0.767338
H98   H     H_    0.736133 0.051397 0.651375 0.255555
H99   H     H_    0.732774 0.061013 0.544830 0.243495
H100  H     H_    0.700030 0.003445 0.591224 0.224029
N30   N     N_2   0.406067 0.851172 0.374471 -0.286966
H101  H     H_    0.394271 0.864988 0.319303 0.239617
C114  C     C_3   0.429517 0.797270 0.371580 -0.809933
H102  H     H_    0.467957 0.799306 0.339850 0.230007
H103  H     H_    0.403455 0.768528 0.338995 0.256318
H104  H     H_    0.436458 0.781062 0.432415 0.244660
N31   N     N_2   0.347021 0.930036 0.631880 -0.280437
H105  H     H_    0.381562 0.927248 0.663594 0.246053
C115  C     C_3   0.325424 0.984275 0.623551 -0.728906
H106  H     H_    0.326098 0.005125 0.682089 0.228225
H107  H     H_    0.283846 0.982304 0.602516 0.240711
H108  H     H_    0.349386 0.008408 0.581009 0.229339
N32   N     N_2   0.553405 0.165483 0.401394 -0.276671
H109  H     H_    0.557939 0.184441 0.347027 0.241869
C116  C     C_3   0.507232 0.184990 0.443260 -0.753667
H110  H     H_    0.472097 0.182491 0.403968 0.234760
H111  H     H_    0.512988 0.228176 0.461451 0.229253
H112  H     H_    0.499638 0.159485 0.496675 0.254881
N33   N     N_2   0.341827 0.064237 0.377708 -0.283683
H113  H     H_    0.375539 0.061362 0.343874 0.247296
C117  C     C_3   0.317268 0.012760 0.398072 -0.737547
H114  H     H_    0.315472 0.986383 0.344541 0.229404
H115  H     H_    0.276361 0.019320 0.420205 0.243785
H116  H     H_    0.340690 0.991694 0.444233 0.224296
N34   N     N_2   0.554894 0.832256 0.594529 -0.279225
H117  H     H_    0.558765 0.811378 0.647463 0.244475
C118  C     C_3   0.509593 0.813441 0.549937 -0.769075
H118  H     H_    0.473729 0.814978 0.588063 0.234263
H119  H     H_    0.515788 0.770681 0.530155 0.230793
H120  H     H_    0.502891 0.839862 0.497185 0.246674
N35   N     N_2   0.661901 0.925571 0.388346 -0.301543
H121  H     H_    0.631217 0.932434 0.349464 0.267808
C119  C     C_3   0.685330 0.974612 0.420412 -0.802463
H122  H     H_    0.695278 0.003041 0.371012 0.243047
H123  H     H_    0.722295 0.964677 0.452914 0.238325
H124  H     H_    0.657164 0.995260 0.460916 0.240055
N36   N     N_2   0.413486 0.153324 0.619749 -0.270065
H125  H     H_    0.403175 0.138296 0.674996 0.233587
C120  C     C_3   0.439453 0.206180 0.622111 -0.786610
H126  H     H_    0.482556 0.200388 0.630436 0.235411
H127  H     H_    0.424035 0.230517 0.672715 0.247855
H128  H     H_    0.433430 0.229520 0.565994 0.242537
N37   N     N_3   0.984640 0.400690 0.874100 -0.483947
H129  H     H_    0.951070 0.404058 0.910135 0.193953
H130  H     H_    0.017304 0.393890 0.910814 0.191583
N38   N     N_3   0.975651 0.597841 0.126562 -0.484245
H131  H     H_    0.942470 0.591277 0.090813 0.193966
H132  H     H_    0.007526 0.608005 0.089619 0.192188
N39   N     N_3   0.016173 0.599805 0.872368 -0.483281
H133  H     H_    0.049416 0.595836 0.908777 0.194203
H134  H     H_    0.983418 0.607478 0.908659 0.191387
N40   N     N_3   0.023099 0.402752 0.125238 -0.482524
H135  H     H_    0.055630 0.409776 0.088070 0.193733
H136  H     H_    0.990635 0.392652 0.089731 0.190534
N41   N     N_3   0.484538 0.900705 0.874099 -0.483946
H137  H     H_    0.450971 0.904110 0.910132 0.193942
H138  H     H_    0.517194 0.893870 0.910814 0.191586
N42   N     N_3   0.475688 0.097854 0.126565 -0.484245
H139  H     H_    0.442505 0.091303 0.090815 0.193967
H140  H     H_    0.507567 0.108006 0.089623 0.192186
N43   N     N_3   0.516250 0.099791 0.872369 -0.483276
H141  H     H_    0.549491 0.095794 0.908779 0.194213
H142  H     H_    0.483501 0.107491 0.908659 0.191383
N44   N     N_3   0.523075 0.902748 0.125238 -0.482524
H143  H     H_    0.555606 0.909760 0.088064 0.193730
H144  H     H_    0.490606 0.892658 0.089736 0.190539
N45   N     N_3   0.988874 0.402170 0.705979 -0.377405
H145  H     H_    0.953197 0.383452 0.721835 0.162934
H146  H     H_    0.019213 0.376848 0.726041 0.184602
N46   N     N_3   0.979895 0.596364 0.294179 -0.378618
H147  H     H_    0.942287 0.610704 0.279445 0.163787
H148  H     H_    0.007089 0.625157 0.273229 0.184405
N47   N     N_3   0.016422 0.597137 0.704022 -0.386178
H149  H     H_    0.054499 0.611099 0.717191 0.173187
H150  H     H_    0.989894 0.626298 0.725032 0.188834
N48   N     N_3   0.026280 0.405238 0.295751 -0.425604
H151  H     H_    0.038718 0.373397 0.259198 0.184433
H152  H     H_    0.992518 0.391805 0.325223 0.222880
N49   N     N_3   0.488754 0.902183 0.705976 -0.377425
H153  H     H_    0.453039 0.883531 0.721809 0.162969
H154  H     H_    0.519045 0.876805 0.726048 0.184590
N50   N     N_3   0.479944 0.096374 0.294183 -0.378602
H155  H     H_    0.442351 0.110748 0.279436 0.163772
H156  H     H_    0.507163 0.125144 0.273241 0.184374
N51   N     N_3   0.516481 0.097126 0.704025 -0.386186
H157  H     H_    0.554565 0.111071 0.717196 0.173295
H158  H     H_    0.489964 0.126299 0.725030 0.188812
N52   N     N_3   0.526277 0.905239 0.295744 -0.425567
H159  H     H_    0.538808 0.873433 0.259198 0.184468
H160  H     H_    0.492489 0.891751 0.325092 0.222528

loop_
_geom_bond_atom_site_label_1
_geom_bond_atom_site_label_2
_ccdc_geom_bond_type
C96   H30   S    
C40   C71   A    
C98   H39   S    
O15   Zn4   S    
C107  H74   S    
C76   C79   T    
C42   C58   A    
C94   H22   S    
C107  H76   S    
C87   N43   S    
C99   H43   S    
C120  H126  S    
N20   C104  S    
C97   H35   S    
C19   C87   A    
C52   C61   A    
C93   H20   S    
C120  H128  S    
N10   H21   S    
C12   C84   A    
N19   C103  S    
C43   C58   A    
C3    O8    A    
C37   N17   S    
N32   H109  S    
C18   C84   A    
N34   C118  S    
N44   H143  S    
C84   N40   S    
C33   C69   A    
N15   C99   S    
C103  H58   S    
O6    Zn1   S    
N27   H89   S    
C13   N3    A    
C36   N16   S    
N13   C97   S    
C52   N32   S    
C50   N30   S    
C100  H47   S    
C27   C66   A    
C5    O9    A    
N18   H53   S    
N28   H93   S    
O3    Zn1   S    
C1    C60   S    
C25   C41   A    
N47   H150  S    
C2    C59   S    
C113  H99   S    
N40   H135  S    
O7    Zn2   S    
C28   C44   A    
C17   C21   S    
C30   N10   S    
C5    C64   S    
C29   C45   A    
C35   N15   S    
C6    C63   S    
C33   N13   S    
N22   H69   S    
C7    C62   S    
C108  H78   S    
N24   H77   S    
C44   C57   A    
C89   H4    S    
O13   Zn4   S    
C96   H32   S    
N31   C115  S    
C35   C51   A    
C34   N14   S    
C47   N27   S    
C94   H24   S    
C111  H92   S    
N30   C114  S    
C45   C59   A    
C46   C60   A    
C10   N46   S    
C19   C85   A    
C93   H18   S    
O16   Zn3   S    
C99   H42   S    
C9    N45   S    
C18   C82   A    
C6    O10   A    
N52   H159  S    
C44   N24   S    
C90   H7    S    
C85   N41   S    
N47   H149  S    
C1    O1    A    
C102  H54   S    
C13   C85   A    
N12   H29   S    
N7    C91   S    
N29   C113  S    
C33   C49   A    
C115  H106  S    
N5    C89   S    
C69   C77   S    
C71   C79   S    
C81   N37   S    
N14   C98   S    
N23   H73   S    
C12   N2    A    
C108  H80   S    
N11   C95   S    
C112  H94   S    
N17   C101  S    
C89   H2    S    
C66   C74   S    
C110  H86   S    
C42   N22   S    
C49   N29   S    
N37   H130  S    
C74   C77   T    
C103  H60   S    
C23   C24   T    
N25   H81   S    
C36   C52   A    
C37   C53   A    
C95   H27   S    
C116  H110  S    
C117  H116  S    
C92   H15   S    
N45   H146  S    
C51   C62   A    
N38   H132  S    
C118  H118  S    
O14   Zn3   S    
N49   H154  S    
C38   C72   A    
C26   C66   A    
C2    O2    A    
N46   H147  S    
C14   C86   A    
C88   N44   S    
O12   Zn4   S    
C89   H3    S    
C106  H70   S    
C15   N3    A    
N43   H142  S    
N42   H140  S    
C91   H11   S    
N35   H121  S    
N25   C109  S    
C11   N1    A    
C86   N42   S    
C109  H82   S    
C102  H56   S    
N21   H65   S    
N26   C110  S    
C46   N26   S    
C114  H103  S    
C32   C67   A    
N24   C108  S    
N48   H152  S    
N39   H134  S    
C109  H84   S    
C67   C75   S    
C8    O15   A    
C26   C42   A    
C48   C59   A    
C103  H59   S    
C82   N38   S    
C18   C22   S    
C30   C46   A    
C112  H96   S    
C107  H75   S    
C53   N33   S    
C68   C76   S    
C110  H88   S    
C51   N31   S    
C17   C83   A    
C72   C80   S    
C93   H19   S    
C54   C64   A    
N19   H57   S    
C55   N35   S    
O8    Zn1   S    
C105  H68   S    
N50   H155  S    
C38   N18   S    
C4    O7    A    
C117  H114  S    
N44   H144  S    
C21   C22   T    
O1    Zn1   S    
C115  H108  S    
N12   C96   S    
O10   Zn4   S    
N26   H85   S    
N39   H133  S    
N13   H33   S    
C12   N48   S    
N30   H101  S    
C100  H46   S    
C36   C69   A    
C106  H72   S    
N9    C93   S    
C11   N47   S    
C43   N23   S    
C45   N25   S    
C31   N11   S    
C117  H115  S    
N40   H136  S    
C118  H120  S    
O11   Zn3   S    
N45   H145  S    
N41   H138  S    
C101  H52   S    
C29   C67   A    
C39   C55   A    
C40   C56   A    
C20   C86   A    
C95   H26   S    
C7    O13   A    
C34   C70   A    
C16   N52   S    
C120  H127  S    
C39   N19   S    
C83   N39   S    
C96   H31   S    
C31   C47   A    
N31   H105  S    
C32   C48   A    
C94   H23   S    
C99   H44   S    
C111  H91   S    
C56   N36   S    
C31   C68   A    
C49   C61   A    
C97   H36   S    
C119  H123  S    
C9    N1    A    
C119  H122  S    
N4    Zn4   S    
C11   C83   A    
N15   H41   S    
O4    Zn2   S    
O2    Zn2   S    
N43   H141  S    
N36   H125  S    
N18   C102  S    
C25   N5    S    
C3    O5    A    
N34   H117  S    
C38   C54   A    
C6    O11   A    
N52   H160  S    
C90   H6    S    
C16   N4    A    
N27   C111  S    
N7    H9    S    
N33   C117  S    
C91   H10   S    
N14   H37   S    
N5    H1    S    
C100  H48   S    
C8    O14   A    
N6    H5    S    
O9    Zn3   S    
C29   N9    S    
C48   N28   S    
C28   C65   A    
C54   N34   S    
C41   C57   A    
C101  H50   S    
C108  H79   S    
N11   H25   S    
C27   N7    S    
N17   H49   S    
C20   C88   A    
C10   C82   A    
C17   C81   A    
N16   H45   S    
C3    C58   S    
C27   C43   A    
C10   N2    A    
N35   C119  S    
N37   H129  S    
C16   C88   A    
C30   C68   A    
N20   H61   S    
C4    O6    A    
C70   C78   S    
C53   C63   A    
C98   H38   S    
C19   C23   S    
C97   H34   S    
C113  H100  S    
C104  H62   S    
C2    O3    A    
N32   C116  S    
N46   H148  S    
N29   H97   S    
N22   C106  S    
N28   C112  S    
N1    Zn1   S    
C65   C73   S    
C95   H28   S    
N3    Zn3   S    
C90   H8    S    
N21   C105  S    
C47   C60   A    
N10   C94   S    
C20   C24   S    
C35   C70   A    
C102  H55   S    
C4    C57   S    
C92   H16   S    
C73   C78   T    
C75   C80   T    
C8    C61   S    
C41   N21   S    
C5    O12   A    
C14   N50   S    
C109  H83   S    
C119  H124  S    
C34   C50   A    
C15   N51   S    
C25   C65   A    
C26   N6    S    
C13   N49   S    
C112  H95   S    
N33   H113  S    
C110  H87   S    
C105  H66   S    
N51   H158  S    
C32   N12   S    
C40   N20   S    
C39   C72   A    
C55   C64   A    
C56   C63   A    
N36   C120  S    
C14   N4    A    
N6    C90   S    
C105  H67   S    
N50   H156  S    
C116  H111  S    
C50   C62   A    
C98   H40   S    
C116  H112  S    
N2    Zn2   S    
C113  H98   S    
N38   H131  S    
C15   C87   A    
C114  H102  S    
C104  H64   S    
C115  H107  S    
N8    C92   S    
C111  H90   S    
C106  H71   S    
N9    H17   S    
C28   N8    S    
N42   H139  S    
C37   C71   A    
C91   H12   S    
N23   C107  S    
N51   H157  S    
O5    Zn2   S    
C92   H14   S    
C1    O4    A    
C118  H119  S    
N41   H137  S    
C114  H104  S    
C101  H51   S    
N48   H151  S    
N49   H153  S    
C7    O16   A    
C104  H63   S    
N8    H13   S    
C9    C81   A    
N16   C100  S    
