data_mof_unit_11589.cif
_audit_creation_date              2013-03-05T15:58:06-0500
_audit_creation_method            fapswitch 2.2
_symmetry_space_group_name_H-M    P1
_symmetry_Int_Tables_number       1
_space_group_crystal_system       triclinic
_cell_length_a                    15.084334
_cell_length_b                    13.695456
_cell_length_c                    10.741963
_cell_angle_alpha                 90.117124
_cell_angle_beta                  89.920239
_cell_angle_gamma                 90.173664
_cell_volume                      2219.13115047

loop_
_atom_site_label
_atom_site_type_symbol
_atom_site_description
_atom_site_fract_x
_atom_site_fract_y
_atom_site_fract_z
_atom_type_partial_charge
O1    O     O_R   0.370250 0.582280 0.500040 -0.576523
O2    O     O_R   0.370250 0.417720 0.500040 -0.600480
C1    C     C_R   0.328528 0.499872 0.500760 0.835579
O3    O     O_R   0.499970 0.582270 0.317700 -0.594076
O4    O     O_R   0.499970 0.417730 0.317700 -0.597166
C2    C     C_R   0.501762 0.499778 0.259794 0.797905
Cu1   Cu    Cu3+1 0.499990 0.597420 0.500010 0.993357
Cu2   Cu    Cu3+1 0.499990 0.402580 0.500010 0.997709
O5    O     O_R   0.629730 0.582260 0.499980 -0.589576
O6    O     O_R   0.629730 0.417740 0.499980 -0.570464
O7    O     O_R   0.500000 0.582270 0.682320 -0.562286
O8    O     O_R   0.500000 0.417730 0.682320 -0.570377
C3    C     C_R   0.671490 0.500108 0.500308 0.820918
C4    C     C_R   0.501849 0.499891 0.740287 0.815882
C5    C     C_3   0.410389 0.530614 0.073497 -0.404692
C6    C     C_3   0.523723 0.394924 0.072366 -0.378741
H1    H     H_    0.394900 0.605293 0.108047 0.230856
H2    H     H_    0.588312 0.369918 0.110617 0.235462
H3    H     H_    0.358195 0.481267 0.111482 0.151354
H4    H     H_    0.472571 0.342115 0.105382 0.187291
C7    C     C_3   0.408550 0.526374 0.929376 0.146089
C8    C     C_3   0.524748 0.394299 0.928985 0.152342
H5    H     H_    0.562182 0.645722 0.108448 0.211492
H6    H     H_    0.640893 0.547814 0.104985 0.193725
H7    H     H_    0.558217 0.648283 0.897081 0.231346
H8    H     H_    0.639594 0.557020 0.891277 0.208102
C9    C     C_3   0.574131 0.570667 0.072284 -0.339579
C10   C     C_3   0.502544 0.498991 0.122148 -0.015541
C11   C     C_3   0.502803 0.499255 0.878265 -0.128288
C12   C     C_3   0.572676 0.573017 0.928893 -0.303293
C13   C     C_R   0.814595 0.586946 0.524394 -0.143990
C14   C     C_R   0.768310 0.500158 0.501607 -0.107331
C15   C     C_R   0.814179 0.413099 0.480757 -0.125264
C16   C     C_R   0.906714 0.410796 0.485241 0.006377
C17   C     C_R   0.953420 0.499671 0.504375 -0.007785
C18   C     C_R   0.907278 0.588721 0.522977 0.006520
C19   C     C_R   0.953869 0.322428 0.468008 0.320136
C20   C     C_R   0.046506 0.324350 0.465896 -0.213828
C21   C     C_R   0.092802 0.411666 0.484440 0.057739
C22   C     C_R   0.046444 0.499520 0.504629 0.067705
C23   C     C_R   0.093403 0.587269 0.524718 0.041466
C24   C     C_R   0.047735 0.674480 0.544658 -0.195884
C25   C     C_R   0.955136 0.676672 0.542401 0.314334
C26   C     C_R   0.185204 0.412218 0.483800 -0.188402
C27   C     C_R   0.231806 0.499619 0.502579 -0.080778
C28   C     C_R   0.185773 0.586814 0.523401 -0.125463
H9    H     H_    0.777570 0.652595 0.544445 0.205883
H10   H     H_    0.776968 0.347589 0.459425 0.202469
H11   H     H_    0.082576 0.256769 0.452431 0.197600
H12   H     H_    0.221760 0.654448 0.538817 0.190618
H13   H     H_    0.084278 0.741871 0.559033 0.211476
C29   C     C_R   0.447808 0.792934 0.582418 0.110459
C30   C     C_R   0.447294 0.207036 0.581764 0.130986
N1    N     N_R   0.499930 0.743810 0.499950 -0.221699
N2    N     N_R   0.499930 0.256190 0.499950 -0.210649
C31   C     C_R   0.551359 0.792960 0.416563 0.107421
C32   C     C_R   0.552393 0.207136 0.417848 0.119800
C33   C     C_R   0.553473 0.896289 0.414389 -0.117697
C34   C     C_R   0.552649 0.103846 0.413443 -0.118704
C35   C     C_R   0.499550 0.948215 0.499396 0.014545
C36   C     C_R   0.499634 0.051830 0.499501 0.012705
C37   C     C_R   0.445169 0.896232 0.583844 -0.127013
C38   C     C_R   0.446570 0.103755 0.585516 -0.115697
C39   C     C_R   0.606201 0.948459 0.327777 0.260567
C40   C     C_R   0.605304 0.051837 0.326767 0.255553
C41   C     C_R   0.392725 0.051696 0.670717 0.250931
C42   C     C_R   0.391000 0.948321 0.668693 0.239323
H14   H     H_    0.220753 0.344600 0.467910 0.167464
N3    N     N_R   0.911441 0.769020 0.557481 0.130323
O9    O     O_R   0.855128 0.798575 0.474147 -0.273363
O10   O     O_R   0.940376 0.831181 0.639831 -0.255162
H15   H     H_    0.408680 0.750641 0.647134 0.209156
H16   H     H_    0.405808 0.249308 0.643590 0.162455
H17   H     H_    0.590271 0.750623 0.351629 0.166912
H18   H     H_    0.593953 0.249478 0.356100 0.161774
N4    N     N_R   0.658670 0.897127 0.237411 0.136903
O11   O     O_R   0.647004 0.912945 0.119183 -0.255691
O12   O     O_R   0.723139 0.840951 0.273177 -0.281527
N5    N     N_R   0.658996 0.103392 0.237970 0.145334
O13   O     O_R   0.743899 0.087523 0.232182 -0.198254
O14   O     O_R   0.621982 0.159341 0.155352 -0.321929
N6    N     N_R   0.338083 0.103291 0.758217 0.135326
O15   O     O_R   0.252796 0.088899 0.759941 -0.260419
O16   O     O_R   0.374267 0.158575 0.842824 -0.334872
N7    N     N_R   0.334716 0.896880 0.754412 0.168213
O17   O     O_R   0.340501 0.913845 0.873350 -0.214149
O18   O     O_R   0.271614 0.840656 0.712882 -0.306785
H19   H     H_    0.362334 0.466278 0.902286 0.107259
H20   H     H_    0.470673 0.344004 0.898289 0.143130
N8    N     N_R   0.373397 0.617399 0.876863 0.148283
O19   O     O_R   0.405737 0.701998 0.908791 -0.316425
O20   O     O_R   0.304626 0.614237 0.803971 -0.339013
N9    N     N_R   0.608935 0.354993 0.881088 0.165889
O21   O     O_R   0.684858 0.389729 0.918177 -0.332357
O22   O     O_R   0.608145 0.277008 0.811662 -0.265421
N10   N     N_R   0.909345 0.230014 0.455204 0.136956
O23   O     O_R   0.851227 0.202802 0.537899 -0.281250
O24   O     O_R   0.938572 0.165903 0.375663 -0.251513

loop_
_geom_bond_atom_site_label_1
_geom_bond_atom_site_label_2
_geom_bond_distance
_ccdc_geom_bond_type
C6    C10   1.555159 S    
N9    O21   1.301477 A    
C40   N5    1.435791 S    
C8    C11   1.574544 S    
C16   C19   1.417337 A    
C23   C24   1.396601 A    
C3    C14   1.460546 S    
C17   C18   1.419693 A    
H6    C9    1.113047 S    
N8    O19   1.301315 A    
Cu1   Cu2   2.668421 S    
C20   H11   1.084374 S    
N7    O17   1.301117 A    
C5    H3    1.113596 S    
C19   C20   1.397690 A    
C37   C42   1.416369 A    
N4    O12   1.300774 A    
O4    C2    1.285664 A    
O7    C4    1.290157 A    
C32   C34   1.415312 A    
C33   C35   1.414194 A    
C35   C37   1.414092 A    
C16   C17   1.419266 A    
C34   C36   1.413778 A    
N3    O10   1.301354 A    
O5    C3    1.291124 A    
N9    O22   1.301427 A    
C2    C10   1.478636 S    
N10   O24   1.301377 A    
C23   C28   1.393438 A    
H5    C9    1.113243 S    
C6    H4    1.114071 S    
C24   H13   1.084491 S    
N7    O18   1.301274 A    
C41   C42   1.416044 A    
C7    H19   1.115429 S    
C25   N3    1.436719 S    
C13   H9    1.081023 S    
C9    C12   1.540897 S    
O3    Cu1   1.968907 S    
Cu2   N2    2.004874 S    
C29   N1    1.361753 A    
C7    N8    1.470102 S    
C30   N2    1.361323 A    
C33   C39   1.416311 A    
N1    C31   1.361855 A    
C42   N7    1.435911 S    
C31   H17   1.080055 S    
N4    O11   1.301071 A    
O3    C2    1.288912 A    
C21   C22   1.409727 A    
N5    O14   1.301241 A    
C27   C28   1.400624 A    
C7    C11   1.568735 S    
C1    C27   1.459074 S    
C19   N10   1.437446 S    
C35   C36   1.419048 A    
O1    C1    1.290594 A    
Cu1   O7    1.969750 S    
C11   C12   1.555645 S    
C29   H15   1.079615 S    
C41   N6    1.435546 S    
N8    O20   1.301130 A    
C13   C14   1.398004 A    
Cu2   O8    1.968906 S    
N10   O23   1.301442 A    
C36   C38   1.413809 A    
C15   C16   1.397191 A    
C39   N4    1.435742 S    
Cu2   O6    1.967399 S    
C22   C23   1.409532 A    
O8    C4    1.285165 A    
H8    C12   1.109072 S    
N6    O16   1.301240 A    
N2    C32   1.361714 A    
C8    N9    1.472521 S    
C26   H14   1.084613 S    
C24   C25   1.397461 A    
C4    C11   1.482284 S    
C26   C27   1.400701 A    
H7    C12   1.109019 S    
C5    H1    1.112674 S    
C6    C8    1.540256 S    
O1    Cu1   1.967370 S    
C30   H16   1.080424 S    
O2    Cu2   1.968619 S    
O6    C3    1.290357 A    
O4    Cu2   1.969750 S    
C21   C26   1.393823 A    
C28   H12   1.084741 S    
C14   C15   1.397844 A    
C32   H18   1.080493 S    
C17   C22   1.403212 A    
C29   C37   1.415450 A    
C34   C40   1.415539 A    
C30   C38   1.415141 A    
C5    C10   1.549078 S    
C20   C21   1.397041 A    
C39   C40   1.415978 A    
C8    H20   1.115778 S    
C31   C33   1.415639 A    
O2    C1    1.290835 A    
N3    O9    1.300930 A    
C38   C41   1.415187 A    
N5    O13   1.301049 A    
Cu1   O5    1.968651 S    
C5    C7    1.549392 S    
C6    H2    1.113126 S    
N6    O15   1.301040 A    
C9    C10   1.552628 S    
C15   H10   1.081197 S    
C13   C18   1.398258 A    
C18   C25   1.417628 A    
Cu1   N1    2.004882 S    
