data_mof_unit_18915.cif
_audit_creation_date              2013-03-05T15:40:53-0500
_audit_creation_method            fapswitch 2.2
_symmetry_space_group_name_H-M    P1
_symmetry_Int_Tables_number       1
_space_group_crystal_system       triclinic
_cell_length_a                    16.90585
_cell_length_b                    16.925388
_cell_length_c                    16.915674
_cell_angle_alpha                 66.090808
_cell_angle_beta                  65.701601
_cell_angle_gamma                 65.666632
_cell_volume                      3854.20000396

loop_
_atom_site_label
_atom_site_type_symbol
_atom_site_description
_atom_site_fract_x
_atom_site_fract_y
_atom_site_fract_z
_atom_type_partial_charge
O1    O     O_R   0.982940 0.138950 0.510160 -0.616490
O2    O     O_R   0.017060 0.861050 0.489840 -0.636821
O3    O     O_R   0.138950 0.510160 0.982940 -0.638153
O4    O     O_R   0.861050 0.489840 0.017060 -0.623819
O5    O     O_R   0.510160 0.982940 0.138950 -0.666563
O6    O     O_R   0.489840 0.017060 0.861050 -0.643434
O7    O     O_R   0.489840 0.861050 0.017060 -0.623902
O8    O     O_R   0.510160 0.138950 0.982940 -0.655159
O9    O     O_R   0.017060 0.489840 0.861050 -0.620716
O10   O     O_R   0.982940 0.510160 0.138950 -0.626056
O11   O     O_R   0.861050 0.017060 0.489840 -0.660972
O12   O     O_R   0.138950 0.982940 0.510160 -0.646619
O13   O     O_R   0.867700 0.025880 0.612340 -0.613490
O14   O     O_R   0.132300 0.974120 0.387660 -0.631513
O15   O     O_R   0.025880 0.612340 0.867700 -0.627163
O16   O     O_R   0.974120 0.387660 0.132300 -0.619060
O17   O     O_R   0.612340 0.867700 0.025880 -0.640069
O18   O     O_R   0.387660 0.132300 0.974120 -0.634451
O19   O     O_R   0.387660 0.974120 0.132300 -0.623973
O20   O     O_R   0.612340 0.025880 0.867700 -0.626241
O21   O     O_R   0.132300 0.387660 0.974120 -0.625075
O22   O     O_R   0.867700 0.612340 0.025880 -0.615183
O23   O     O_R   0.974120 0.132300 0.387660 -0.673247
O24   O     O_R   0.025880 0.867700 0.612340 -0.624053
C1    C     C_R   0.437046 0.961846 0.690144 -0.312879
C2    C     C_R   0.587225 0.944763 0.341711 -0.316742
C3    C     C_R   0.930629 0.691383 0.467011 -0.306433
C4    C     C_R   0.990608 0.324486 0.584465 -0.297966
C5    C     C_R   0.656110 0.401280 0.060345 -0.192694
C6    C     C_R   0.336079 0.595243 0.959661 -0.296987
C7    C     C_R   0.312556 0.025714 0.576608 -0.316245
C8    C     C_R   0.670676 0.020464 0.408527 -0.315180
C9    C     C_R   0.540245 0.306565 0.069162 -0.269254
C10   C     C_R   0.401760 0.670483 0.042582 -0.321816
C11   C     C_R   0.943722 0.599800 0.344622 -0.205126
C12   C     C_R   0.071293 0.401650 0.647902 -0.191900
C13   C     C_R   0.966566 0.179449 0.436290 0.926851
C14   C     C_R   0.023264 0.822799 0.568908 0.991631
C15   C     C_R   0.179954 0.437681 0.962398 0.865697
C16   C     C_R   0.820022 0.563258 0.036145 0.876492
C17   C     C_R   0.431633 0.975027 0.177822 1.011750
C18   C     C_R   0.568434 0.022204 0.823006 0.956929
C19   C     C_R   0.562484 0.820752 0.036695 1.017828
C20   C     C_R   0.432309 0.177512 0.975385 0.868455
C21   C     C_R   0.038331 0.561744 0.820542 0.878051
C22   C     C_R   0.964364 0.437007 0.179917 0.861855
C23   C     C_R   0.820130 0.036410 0.562573 0.978484
C24   C     C_R   0.166255 0.999919 0.426701 0.933632
Zn1   Zn    Zn3+2 0.004880 0.004880 0.583590 0.947575
Zn2   Zn    Zn3+2 0.995120 0.995120 0.416410 0.926941
Zn3   Zn    Zn3+2 0.004880 0.583590 0.004880 0.979496
Zn4   Zn    Zn3+2 0.995120 0.416410 0.995120 1.016377
Zn5   Zn    Zn3+2 0.583590 0.004880 0.004880 0.938593
Zn6   Zn    Zn3+2 0.416410 0.995120 0.995120 0.947930
H1    H     H_    0.377774 0.937902 0.728089 0.138227
H2    H     H_    0.660729 0.919866 0.319927 0.144807
H3    H     H_    0.886432 0.730662 0.424274 0.135171
H4    H     H_    0.991294 0.292676 0.654195 0.126831
H5    H     H_    0.687213 0.330215 0.065269 0.181667
H6    H     H_    0.316024 0.668470 0.939702 0.134564
H7    H     H_    0.279031 0.043731 0.639648 0.147251
H8    H     H_    0.695684 0.031159 0.335917 0.146291
H9    H     H_    0.587985 0.266049 0.108004 0.138026
H10   H     H_    0.330236 0.700711 0.047455 0.135279
H11   H     H_    0.933457 0.671869 0.317428 0.184122
H12   H     H_    0.096015 0.328692 0.663504 0.188149
C25   C     C_R   0.496549 0.950437 0.735157 0.003975
C26   C     C_R   0.536827 0.926220 0.306613 0.019543
C27   C     C_R   0.934055 0.733198 0.521441 0.004188
C28   C     C_R   0.954215 0.290039 0.549723 0.064053
C29   C     C_R   0.700019 0.444277 0.077266 0.014934
C30   C     C_R   0.300571 0.553041 0.931572 0.055580
C31   C     C_R   0.260822 0.046224 0.519753 0.016223
C32   C     C_R   0.706440 0.051647 0.447885 0.005791
C33   C     C_R   0.488758 0.263101 0.064128 0.029006
C34   C     C_R   0.441603 0.707481 0.071724 -0.003390
C35   C     C_R   0.927110 0.556646 0.300195 0.027576
C36   C     C_R   0.088758 0.443885 0.692592 0.013914
C37   C     C_R   0.551027 0.997024 0.548631 0.028928
C38   C     C_R   0.449411 0.990038 0.456505 0.035300
C39   C     C_R   0.008816 0.546442 0.551045 0.036284
C40   C     C_R   0.980326 0.458802 0.458019 0.036561
C41   C     C_R   0.534011 0.539619 0.038501 0.034775
C42   C     C_R   0.442388 0.451296 0.009135 0.036821
C43   C     C_R   0.590452 0.995825 0.457728 0.062442
C44   C     C_R   0.407753 0.998594 0.545039 0.060979
C45   C     C_R   0.028757 0.451739 0.579356 0.008862
C46   C     C_R   0.967574 0.552828 0.425115 0.011107
C47   C     C_R   0.448146 0.586922 0.023384 0.076817
C48   C     C_R   0.520706 0.401058 0.038197 0.055717
C49   C     C_R   0.543321 0.978776 0.416786 0.069517
C50   C     C_R   0.462984 0.987945 0.595278 0.065149
C51   C     C_R   0.407406 0.545202 0.998835 0.057456
C52   C     C_R   0.571652 0.446848 0.043574 0.008213
C53   C     C_R   0.004519 0.409655 0.539045 0.069720
C54   C     C_R   0.971824 0.597871 0.477818 0.066852
C55   C     C_R   0.567406 0.992721 0.687656 0.054879
C56   C     C_R   0.441446 0.966218 0.326790 0.063604
C57   C     C_R   0.993773 0.685422 0.576042 0.027322
C58   C     C_R   0.957792 0.325010 0.456563 0.095218
C59   C     C_R   0.669410 0.539860 0.060548 -0.052464
C60   C     C_R   0.324178 0.457493 0.956070 0.045664
C61   C     C_R   0.302390 0.018793 0.438781 0.053672
C62   C     C_R   0.677637 0.036596 0.543276 0.061871
C63   C     C_R   0.426250 0.311814 0.012040 0.014763
C64   C     C_R   0.537117 0.673663 0.059459 0.065962
C65   C     C_R   0.946840 0.460575 0.328260 -0.047926
C66   C     C_R   0.058572 0.539797 0.672158 -0.036811
C67   C     C_R   0.604025 0.025497 0.727872 -0.128303
C68   C     C_R   0.388692 0.983271 0.269681 -0.065441
C69   C     C_R   0.028350 0.727417 0.607987 -0.112366
C70   C     C_R   0.946558 0.278810 0.408512 -0.084711
C71   C     C_R   0.719258 0.591108 0.061129 -0.163426
C72   C     C_R   0.279972 0.410017 0.942053 -0.097899
C73   C     C_R   0.253814 0.017928 0.386640 -0.130818
C74   C     C_R   0.720914 0.052626 0.590735 -0.071158
C75   C     C_R   0.394748 0.272228 0.973522 -0.165124
C76   C     C_R   0.588860 0.721273 0.062177 -0.087338
C77   C     C_R   0.942068 0.409725 0.280195 -0.165036
C78   C     C_R   0.064178 0.588798 0.720605 -0.196309
C79   C     C_R   0.670293 0.069479 0.673353 0.016389
C80   C     C_R   0.294178 0.023529 0.296403 0.072066
C81   C     C_R   0.072432 0.675115 0.675103 0.067506
C82   C     C_R   0.924442 0.327003 0.328261 0.027436
C83   C     C_R   0.672210 0.674321 0.078626 0.051129
C84   C     C_R   0.330250 0.326720 0.926967 0.058926
C85   C     C_R   0.598736 0.008876 0.593126 0.027973
C86   C     C_R   0.397558 0.992531 0.407027 0.036131
C87   C     C_R   0.021985 0.590303 0.598609 0.051664
C88   C     C_R   0.963814 0.414190 0.413086 0.030914
C89   C     C_R   0.580882 0.584887 0.051239 0.050604
C90   C     C_R   0.398027 0.406982 0.991938 0.023827
C91   C     C_3   0.674593 0.148013 0.692333 -0.381695
C92   C     C_3   0.648714 0.236319 0.620060 -0.737694
H13   H     H_    0.699446 0.233913 0.553141 0.292356
H14   H     H_    0.580771 0.247713 0.615850 0.246292
H15   H     H_    0.645746 0.294171 0.637646 0.265662
H16   H     H_    0.625771 0.160716 0.756880 0.214072
H17   H     H_    0.742861 0.134046 0.696495 0.261792
C93   C     C_3   0.233841 0.077607 0.232485 -0.378232
C94   C     C_3   0.255064 0.165290 0.170409 -0.753157
H18   H     H_    0.327236 0.150510 0.133190 0.271375
H19   H     H_    0.214752 0.199571 0.121523 0.238070
H20   H     H_    0.238732 0.211257 0.210399 0.280380
H21   H     H_    0.235286 0.036601 0.194656 0.228927
H22   H     H_    0.161145 0.101445 0.269463 0.215808
C95   C     C_3   0.131095 0.706305 0.697782 -0.372567
C96   C     C_3   0.215134 0.722081 0.618427 -0.745413
H23   H     H_    0.256119 0.659250 0.597380 0.263775
H24   H     H_    0.196908 0.777504 0.559424 0.250233
H25   H     H_    0.257596 0.740670 0.639653 0.260988
H26   H     H_    0.091968 0.765589 0.724655 0.223967
H27   H     H_    0.156540 0.652896 0.752959 0.241875
C97   C     C_3   0.853000 0.307881 0.313047 -0.352331
C98   C     C_3   0.759510 0.370372 0.348996 -0.799938
H28   H     H_    0.739776 0.351398 0.423896 0.279726
H29   H     H_    0.761255 0.441020 0.323318 0.219859
H30   H     H_    0.707372 0.365729 0.328660 0.280547
H31   H     H_    0.869052 0.312922 0.241900 0.242167
H32   H     H_    0.849710 0.238640 0.348730 0.261178
C99   C     C_3   0.691511 0.694446 0.146757 -0.374146
C100  C     C_3   0.657981 0.632973 0.240836 -0.791278
H33   H     H_    0.583524 0.645776 0.259724 0.314493
H34   H     H_    0.690939 0.561651 0.240533 0.212378
H35   H     H_    0.673331 0.644785 0.292201 0.255453
H36   H     H_    0.763217 0.688769 0.128945 0.241621
H37   H     H_    0.657194 0.764367 0.148570 0.246275
C101  C     C_3   0.324714 0.305293 0.850526 -0.374659
C102  C     C_3   0.351291 0.374686 0.759843 -0.838927
H38   H     H_    0.303827 0.443330 0.760194 0.282074
H39   H     H_    0.421223 0.375798 0.745430 0.273842
H40   H     H_    0.349704 0.356136 0.704726 0.252240
H41   H     H_    0.372082 0.239690 0.839631 0.233276
H42   H     H_    0.255886 0.301893 0.866315 0.250376
C103  C     C_2   0.495884 0.877472 0.821373 0.491137
H43   H     H_    0.434191 0.858582 0.863983 0.024583
O25   O     O_2   0.565761 0.834526 0.843029 -0.577121
C104  C     C_2   0.580570 0.846473 0.273149 0.383351
H44   H     H_    0.654088 0.821834 0.249425 0.078450
O26   O     O_2   0.534447 0.803993 0.278183 -0.583044
C105  C     C_2   0.861459 0.818347 0.532739 0.454567
H45   H     H_    0.830577 0.862811 0.478995 0.050276
O27   O     O_2   0.831923 0.836858 0.604221 -0.585202
C106  C     C_2   0.889392 0.240323 0.618296 0.439629
H46   H     H_    0.897736 0.201326 0.684992 0.027566
O28   O     O_2   0.823362 0.246313 0.601638 -0.624897
C107  C     C_2   0.761176 0.385935 0.134038 0.463445
H47   H     H_    0.775192 0.416464 0.169866 0.041696
O29   O     O_2   0.795109 0.304929 0.141872 -0.611226
C108  C     C_2   0.262006 0.609305 0.856229 0.392595
H48   H     H_    0.211201 0.674295 0.858569 0.038394
O30   O     O_2   0.293551 0.586013 0.787291 -0.617283
C109  C     C_2   0.170704 0.113722 0.536566 0.482644
H49   H     H_    0.130223 0.116825 0.604988 0.010479
O31   O     O_2   0.143696 0.170322 0.473089 -0.591811
C110  C     C_2   0.747518 0.124209 0.386487 0.441662
H50   H     H_    0.799151 0.117203 0.322904 0.066622
O32   O     O_2   0.717378 0.195876 0.404303 -0.614851
C111  C     C_2   0.488485 0.174805 0.131943 0.418300
H51   H     H_    0.550560 0.118864 0.129015 0.082174
O33   O     O_2   0.421945 0.167440 0.197328 -0.596123
C112  C     C_2   0.377877 0.765425 0.132362 0.465153
H52   H     H_    0.309067 0.801721 0.128229 0.024917
O34   O     O_2   0.400275 0.770011 0.190071 -0.553552
C113  C     C_2   0.868643 0.615111 0.240766 0.428425
H53   H     H_    0.832907 0.584748 0.226645 0.055079
O35   O     O_2   0.859407 0.696216 0.208180 -0.626293
C114  C     C_2   0.147502 0.386601 0.752242 0.435374
H54   H     H_    0.173914 0.418015 0.776020 0.057501
O36   O     O_2   0.167182 0.304138 0.775070 -0.608444

loop_
_geom_bond_atom_site_label_1
_geom_bond_atom_site_label_2
_geom_bond_distance
_ccdc_geom_bond_type
C46   C54   1.424752 A    
O9    C21   1.249750 A    
C108  H48   1.085338 S    
C56   C68   1.443205 A    
C82   C97   1.508368 S    
C98   H29   1.103101 S    
C59   C71   1.441796 A    
C102  H38   1.107759 S    
C7    H7    1.084029 S    
O11   C23   1.240558 A    
C95   C96   1.531115 S    
C1    C25   1.407170 A    
C96   H25   1.110413 S    
C55   C85   1.407185 A    
C92   H15   1.110463 S    
O12   Zn1   2.044841 S    
C43   C49   1.415408 A    
C103  O25   1.220964 D    
C113  H53   1.077160 S    
C101  H42   1.102517 S    
O20   C18   1.290139 A    
C6    C30   1.399836 A    
C112  O34   1.221549 D    
C64   C89   1.411744 A    
O4    Zn4   2.044470 S    
C4    C53   1.398757 A    
O5    Zn5   2.050012 S    
C18   C67   1.453575 S    
C96   H24   1.107718 S    
C70   C82   1.384479 A    
C6    C51   1.404113 A    
C84   C101  1.523140 S    
C94   H19   1.110841 S    
C8    C32   1.402299 A    
C5    C52   1.400900 A    
C72   C84   1.378709 A    
C58   C88   1.412361 A    
C7    C31   1.407771 A    
C71   C83   1.387390 A    
C11   H11   1.079844 S    
C105  H45   1.085204 S    
C110  H50   1.085470 S    
C106  H46   1.085835 S    
C59   C89   1.415014 A    
C36   C66   1.422256 A    
C97   H32   1.092505 S    
C65   C77   1.444532 A    
C66   C78   1.431107 A    
C13   C70   1.478140 S    
C38   C44   1.408374 A    
C33   C111  1.470053 S    
O2    Zn2   2.056818 S    
C34   C64   1.427212 A    
C31   C109  1.476340 S    
C62   C74   1.441137 A    
C111  H51   1.084724 S    
C9    C33   1.394823 A    
O4    C16   1.249018 A    
C25   C103  1.479933 S    
C114  H54   1.077341 S    
C109  O31   1.219997 D    
C6    H6    1.083404 S    
O10   C22   1.248067 A    
C32   C62   1.424115 A    
O24   C14   1.275269 A    
O5    C17   1.252783 A    
C76   C83   1.383876 A    
O7    C19   1.243196 A    
C40   C88   1.428031 A    
C75   C84   1.396052 A    
C4    C28   1.390945 A    
C99   H36   1.093821 S    
C3    C27   1.399229 A    
C78   C81   1.383614 A    
O12   C24   1.238098 A    
C56   C86   1.407088 A    
C29   C59   1.422917 A    
O22   C16   1.299877 A    
C91   H16   1.105433 S    
C73   C80   1.372378 A    
C64   C76   1.435517 A    
C98   H30   1.109046 S    
C99   C100  1.529032 S    
C102  H39   1.111288 S    
C63   C75   1.445869 A    
C3    C54   1.409029 A    
C23   C74   1.478083 S    
O9    Zn4   2.056314 S    
C42   C48   1.409539 A    
O6    Zn6   2.050013 S    
C65   C88   1.413413 A    
O10   Zn3   2.056314 S    
C30   C108  1.464451 S    
C111  O33   1.218254 D    
C28   C58   1.425607 A    
C48   C52   1.422121 A    
C63   C90   1.412090 A    
C100  H34   1.102757 S    
C105  O27   1.221007 D    
C12   C45   1.402596 A    
C101  H41   1.104440 S    
C41   C47   1.412571 A    
C32   C110  1.464451 S    
C112  H52   1.085688 S    
C57   C87   1.408529 A    
C69   C81   1.402127 A    
C1    H1    1.083883 S    
C35   C65   1.427675 A    
C96   H23   1.111040 S    
C110  O32   1.217546 D    
C3    H3    1.080959 S    
C94   H20   1.111291 S    
O16   C22   1.302325 A    
O13   C23   1.305625 A    
C39   C54   1.413539 A    
O3    Zn3   2.044470 S    
C60   C90   1.407513 A    
O23   Zn2   2.073871 S    
O14   C24   1.307154 A    
C38   C86   1.419659 A    
C2    C49   1.399934 A    
C77   C82   1.389909 A    
C41   C52   1.410695 A    
C11   C35   1.401714 A    
C45   C53   1.415763 A    
O8    Zn5   2.050147 S    
C61   C73   1.438395 A    
O17   C19   1.297114 A    
C41   C89   1.426881 A    
C60   C72   1.433713 A    
C35   C113  1.473825 S    
C100  H35   1.109672 S    
C55   C67   1.445432 A    
C11   C46   1.399573 A    
O2    C14   1.255630 A    
C39   C87   1.419775 A    
C16   C71   1.486586 S    
O21   C15   1.303716 A    
C31   C61   1.428251 A    
C9    H9    1.080946 S    
C15   C72   1.481912 S    
C57   C69   1.432701 A    
C10   H10   1.083042 S    
C97   C98   1.529480 S    
C99   H37   1.089515 S    
C93   C94   1.516372 S    
C61   C86   1.402725 A    
C91   H17   1.105172 S    
O8    C20   1.239934 A    
C66   C87   1.413045 A    
C39   C45   1.406267 A    
C24   C73   1.456759 S    
O13   Zn1   2.067339 S    
C27   C57   1.419659 A    
O19   Zn6   2.071923 S    
C28   C106  1.475519 S    
C101  C102  1.530252 S    
C81   C95   1.522528 S    
C58   C70   1.439717 A    
O15   Zn3   2.072825 S    
C17   C68   1.457695 S    
C91   C92   1.529738 S    
C102  H40   1.110579 S    
O15   C21   1.296522 A    
C93   H22   1.108044 S    
C44   C50   1.420119 A    
O17   Zn5   2.072884 S    
O18   C20   1.287785 A    
C37   C43   1.407064 A    
C21   C78   1.479157 S    
C37   C50   1.409013 A    
C100  H33   1.110787 S    
O24   Zn1   2.073872 S    
C37   C85   1.418660 A    
C1    C50   1.403015 A    
C108  O30   1.219539 D    
C40   C53   1.412315 A    
C92   H14   1.111419 S    
C83   C99   1.506643 S    
O16   Zn4   2.072825 S    
C29   C107  1.474245 S    
O20   Zn5   2.071923 S    
C2    H2    1.083984 S    
C93   H21   1.106769 S    
C34   C112  1.486565 S    
C104  O26   1.220616 D    
C33   C63   1.425566 A    
C92   H13   1.108255 S    
C4    H4    1.082893 S    
C106  O28   1.215816 D    
O18   Zn6   2.072886 S    
C2    C26   1.401650 A    
C38   C49   1.408862 A    
O1    C13   1.241730 A    
C95   H26   1.107393 S    
C10   C47   1.403345 A    
C80   C93   1.543811 S    
C97   H31   1.093790 S    
C103  H43   1.085768 S    
O23   C13   1.300573 A    
C94   H18   1.091611 S    
C68   C80   1.407025 A    
C36   C114  1.477383 S    
C67   C79   1.392939 A    
O14   Zn2   2.067339 S    
C62   C85   1.407061 A    
C30   C60   1.416785 A    
C20   C75   1.452857 S    
C40   C46   1.409576 A    
C8    C43   1.400650 A    
C26   C104  1.463342 S    
C42   C90   1.424639 A    
C22   C77   1.488289 S    
O11   Zn2   2.044841 S    
C12   H12   1.081874 S    
C42   C51   1.411386 A    
C47   C51   1.421019 A    
C95   H27   1.095190 S    
C26   C56   1.417642 A    
C107  O29   1.222121 D    
C25   C55   1.428640 A    
C19   C76   1.473332 S    
C8    H8    1.084257 S    
C107  H47   1.078601 S    
C114  O36   1.222306 D    
C109  H49   1.085572 S    
O6    C18   1.238291 A    
C27   C105  1.480674 S    
C98   H28   1.109175 S    
C7    C44   1.403065 A    
C5    H5    1.078794 S    
O22   Zn3   2.067252 S    
C12   C36   1.401907 A    
C74   C79   1.380055 A    
O7    Zn6   2.050148 S    
C79   C91   1.523140 S    
C14   C69   1.455309 S    
C9    C48   1.403325 A    
C113  O35   1.222086 D    
O1    Zn1   2.056818 S    
O21   Zn4   2.067254 S    
O3    C15   1.246059 A    
O19   C17   1.279034 A    
C10   C34   1.399973 A    
C104  H44   1.085251 S    
C5    C29   1.396941 A    
