data_mof_unit_63966.cif
_audit_creation_date              2012-12-10T19:24:17-0500
_audit_creation_method            fapswitch 2.2
_symmetry_space_group_name_H-M    P1
_symmetry_Int_Tables_number       1
_space_group_crystal_system       triclinic
_cell_length_a                    30.505047
_cell_length_b                    30.518594
_cell_length_c                    25.70907
_cell_angle_alpha                 89.545465
_cell_angle_beta                  89.638594
_cell_angle_gamma                 90.086128
_cell_volume                      23933.1441702

loop_
_atom_site_label
_atom_site_type_symbol
_atom_type_description
_atom_site_fract_x
_atom_site_fract_y
_atom_site_fract_z
_atom_type_partial_charge
C1    C     C_R   0.881158 0.617853 0.750969 -0.030941
C2    C     C_R   0.118659 0.618021 0.750068 -0.026604
C3    C     C_R   0.618742 0.959714 0.970331 0.035623
C4    C     C_R   0.924837 0.597489 0.030154 0.034959
C5    C     C_R   0.038201 0.388163 0.985028 0.043738
C6    C     C_R   0.619350 0.960334 0.025484 0.037554
C7    C     C_R   0.380288 0.961028 0.975192 0.037371
C8    C     C_R   0.499824 0.994725 0.890350 0.495651
C9    C     C_R   0.500139 0.994711 0.109738 0.494416
C10   C     C_R   0.997445 0.499266 0.890302 0.500357
C11   C     C_R   0.999790 0.500399 0.109892 0.474040
C12   C     C_R   0.999707 0.499234 0.390366 0.477263
C13   C     C_R   0.617880 0.880976 0.248868 -0.029802
C14   C     C_R   0.000587 0.496192 0.609911 0.490994
C15   C     C_R   0.495568 0.999499 0.390089 0.491844
C16   C     C_R   0.499551 0.000248 0.609592 0.474533
C17   C     C_R   0.415834 0.915781 0.750312 0.517208
C18   C     C_R   0.584302 0.084087 0.249955 0.539257
C19   C     C_R   0.915760 0.584076 0.750130 0.520115
C20   C     C_R   0.084268 0.415900 0.249865 0.517144
C21   C     C_R   0.584038 0.084120 0.749834 0.543005
C22   C     C_R   0.415866 0.915727 0.250071 0.511181
C23   C     C_R   0.084212 0.415682 0.749922 0.530968
C24   C     C_R   0.381088 0.117952 0.749072 -0.029358
C25   C     C_R   0.915644 0.584155 0.249779 0.520289
C26   C     C_R   0.415758 0.084126 0.250050 0.520003
C27   C     C_R   0.584155 0.915811 0.750089 0.509799
C28   C     C_R   0.915823 0.415853 0.250244 0.517104
C29   C     C_R   0.084268 0.584081 0.749946 0.534856
C30   C     C_R   0.584184 0.915663 0.249852 0.523497
C31   C     C_R   0.415682 0.084186 0.749863 0.524851
C32   C     C_R   0.084163 0.584189 0.249814 0.522326
C33   C     C_R   0.916100 0.415870 0.749995 0.524839
C34   C     C_R   0.544405 0.935527 0.539120 0.048182
C35   C     C_R   0.118422 0.618230 0.249307 -0.029648
C36   C     C_R   0.440523 0.067825 0.448666 0.048463
C37   C     C_R   0.934714 0.438758 0.553734 0.051232
C38   C     C_R   0.062253 0.547079 0.458259 0.054753
C39   C     C_R   0.442714 0.064621 0.555662 0.056710
C40   C     C_R   0.484601 0.915427 0.458791 0.049233
C41   C     C_R   0.084514 0.492132 0.542723 0.055703
C42   C     C_R   0.937273 0.439437 0.446537 0.051780
C43   C     C_R   0.059262 0.448594 0.042826 0.044016
C44   C     C_R   0.934920 0.559498 0.948166 0.047120
C45   C     C_R   0.421730 0.955047 0.055351 0.059481
C46   C     C_R   0.882763 0.381507 0.749304 -0.027679
C47   C     C_R   0.577881 0.954642 0.945417 0.059548
C48   C     C_R   0.936979 0.558036 0.055218 0.052225
C49   C     C_R   0.006567 0.416554 0.961163 0.053997
C50   C     C_R   0.578998 0.954924 0.052280 0.051655
C51   C     C_R   0.420576 0.955349 0.948478 0.051549
C52   C     C_R   0.839868 0.609561 0.728745 0.098076
C53   C     C_R   0.116043 0.346162 0.215031 0.081201
C54   C     C_R   0.635378 0.133005 0.701262 0.089607
C55   C     C_R   0.389623 0.840367 0.273798 0.083461
C56   C     C_R   0.157087 0.386938 0.720321 0.083362
C57   C     C_R   0.381307 0.118154 0.250271 -0.027881
C58   C     C_R   0.887573 0.657721 0.221781 0.077491
C59   C     C_R   0.341021 0.888784 0.775471 0.074252
C60   C     C_R   0.623578 0.145654 0.293416 0.095752
C61   C     C_R   0.892060 0.338574 0.235589 0.090997
C62   C     C_R   0.160947 0.608804 0.730782 0.079783
C63   C     C_R   0.610557 0.840714 0.274797 0.088815
C64   C     C_R   0.340610 0.110371 0.774387 0.090025
C65   C     C_R   0.109295 0.660632 0.230283 0.097298
C66   C     C_R   0.838716 0.391990 0.758592 0.081099
C67   C     C_R   0.386088 0.156166 0.280612 0.073345
C68   C     C_R   0.618115 0.881335 0.750732 -0.031124
C69   C     C_R   0.658140 0.888141 0.776659 0.069778
C70   C     C_R   0.343168 0.113142 0.220082 0.098127
C71   C     C_R   0.610867 0.841057 0.725668 0.084921
C72   C     C_R   0.160735 0.608646 0.267809 0.073640
C73   C     C_R   0.894679 0.338187 0.738426 0.065516
C74   C     C_R   0.657668 0.887521 0.221626 0.072429
C75   C     C_R   0.388010 0.158133 0.722810 0.075209
C76   C     C_R   0.838924 0.391254 0.267801 0.076964
C77   C     C_R   0.109664 0.659985 0.769936 0.097802
C78   C     C_R   0.390144 0.840317 0.728346 0.091892
C79   C     C_R   0.987095 0.495943 0.946292 -0.016599
C80   C     C_R   0.647455 0.123030 0.207318 0.091518
C81   C     C_R   0.111900 0.341925 0.777881 0.086264
C82   C     C_R   0.840301 0.610036 0.273612 0.094996
C83   C     C_R   0.634247 0.134914 0.795626 0.093577
C84   C     C_R   0.341184 0.889053 0.225821 0.070201
C85   C     C_R   0.888916 0.658767 0.774303 0.078402
C86   C     C_R   0.154748 0.384576 0.283407 0.095588
C87   C     C_R   0.807264 0.641548 0.729686 0.119354
C88   C     C_R   0.148326 0.313878 0.215096 0.112477
C89   C     C_R   0.668684 0.164421 0.700343 0.123487
C90   C     C_R   0.996740 0.501540 0.053436 0.003484
C91   C     C_R   0.357466 0.807869 0.273312 0.115004
C92   C     C_R   0.188971 0.354259 0.719809 0.116554
C93   C     C_R   0.854559 0.689247 0.220371 0.107855
C94   C     C_R   0.308949 0.856180 0.775933 0.114074
C95   C     C_R   0.656267 0.177634 0.293704 0.120238
C96   C     C_R   0.859861 0.306087 0.236454 0.116853
C97   C     C_R   0.193397 0.641025 0.731001 0.114566
C98   C     C_R   0.642294 0.807907 0.273510 0.113605
C99   C     C_R   0.308007 0.142325 0.773586 0.117353
C100  C     C_R   0.141802 0.692806 0.230133 0.119346
C101  C     C_R   0.499574 0.977395 0.945589 -0.020628
C102  C     C_R   0.806811 0.359195 0.758073 0.120256
C103  C     C_R   0.353512 0.188142 0.280860 0.112911
C104  C     C_R   0.690002 0.855425 0.777505 0.109459
C105  C     C_R   0.310878 0.145429 0.220162 0.118170
C106  C     C_R   0.642835 0.808456 0.726652 0.113505
C107  C     C_R   0.193007 0.641006 0.267991 0.110524
C108  C     C_R   0.862639 0.305555 0.736281 0.115022
C109  C     C_R   0.689260 0.854567 0.220413 0.113299
C110  C     C_R   0.355171 0.189841 0.721823 0.108537
C111  C     C_R   0.806740 0.358730 0.268275 0.111931
C112  C     C_R   0.118712 0.381860 0.249444 -0.029673
C113  C     C_R   0.500234 0.977418 0.054779 -0.020712
C114  C     C_R   0.142289 0.691991 0.770387 0.119830
C115  C     C_R   0.358041 0.807799 0.729083 0.115034
C116  C     C_R   0.679903 0.155306 0.207638 0.120614
C117  C     C_R   0.143844 0.309308 0.777087 0.115089
C118  C     C_R   0.807468 0.641749 0.272247 0.118638
C119  C     C_R   0.666577 0.167331 0.794715 0.124744
C120  C     C_R   0.309103 0.856515 0.225593 0.109595
C121  C     C_R   0.856123 0.690539 0.775410 0.111658
C122  C     C_R   0.187024 0.352285 0.283117 0.117476
C123  C     C_R   0.815252 0.682142 0.752956 -0.004418
C124  C     C_R   0.481965 0.997021 0.445607 -0.022358
C125  C     C_R   0.183892 0.316715 0.249172 -0.004174
C126  C     C_R   0.684350 0.182106 0.747062 -0.006414
C127  C     C_R   0.317062 0.815796 0.249304 -0.003148
C128  C     C_R   0.182518 0.315319 0.748136 -0.003716
C129  C     C_R   0.814482 0.681500 0.245786 -0.004824
C130  C     C_R   0.317250 0.815627 0.752598 -0.004876
C131  C     C_R   0.684455 0.182654 0.250826 -0.002687
C132  C     C_R   0.817076 0.316077 0.252557 -0.003850
C133  C     C_R   0.184207 0.682659 0.750894 -0.003426
C134  C     C_R   0.681774 0.814684 0.246407 -0.003000
C135  C     C_R   0.494354 0.000650 0.552811 -0.002871
C136  C     C_R   0.315158 0.182147 0.747368 -0.001516
C137  C     C_R   0.183673 0.683144 0.249144 -0.003073
C138  C     C_R   0.818455 0.315721 0.746552 -0.008476
C139  C     C_R   0.315921 0.182982 0.250515 -0.001573
C140  C     C_R   0.682551 0.815469 0.752479 -0.002182
C141  C     C_3   0.582175 0.951711 0.573073 -0.253207
C142  C     C_3   0.625800 0.955284 0.543531 -0.438718
C143  C     C_3   0.412680 0.060070 0.400571 -0.255884
C144  C     C_3   0.363848 0.059207 0.414461 -0.452391
C145  C     C_3   0.945836 0.408820 0.599696 -0.245583
C146  C     C_R   0.999205 0.494346 0.447189 -0.002633
C147  C     C_3   0.960176 0.363820 0.580306 -0.448649
C148  C     C_3   0.044174 0.584850 0.425505 -0.259283
C149  C     C_3   0.034386 0.624700 0.459406 -0.439106
C150  C     C_3   0.410801 0.050284 0.598454 -0.246257
C151  C     C_3   0.365808 0.040105 0.575573 -0.450070
C152  C     C_3   0.445454 0.906496 0.423234 -0.242867
C153  C     C_3   0.405854 0.887391 0.452410 -0.445229
C154  C     C_3   0.096967 0.451978 0.575248 -0.247913
C155  C     C_3   0.116405 0.416044 0.541022 -0.441305
C156  C     C_3   0.951225 0.411013 0.400844 -0.255541
C157  C     C_R   0.003454 0.483189 0.554635 -0.020050
C158  C     C_3   0.954721 0.362810 0.417117 -0.449347
C159  C     C_3   0.090874 0.471772 0.079825 -0.257575
C160  C     C_3   0.135948 0.481024 0.055564 -0.437444
C161  C     C_3   0.908748 0.547586 0.899894 -0.258260
C162  C     C_3   0.860189 0.541100 0.913194 -0.448799
C163  C     C_3   0.425103 0.920235 0.098084 -0.244408
C164  C     C_3   0.425059 0.874383 0.074629 -0.456606
C165  C     C_3   0.574206 0.919960 0.903204 -0.245105
C166  C     C_3   0.573912 0.874045 0.927354 -0.456467
C167  C     C_3   0.907721 0.541276 0.099469 -0.247288
C168  C     C_R   0.006765 0.461490 0.975214 -0.018917
C169  C     C_3   0.863336 0.526473 0.078508 -0.445537
C170  C     C_3   0.963864 0.398973 0.937814 -0.251686
C171  C     C_3   0.968050 0.370914 0.889005 -0.372146
C172  C     C_3   0.577183 0.923328 0.098402 -0.250776
C173  C     C_3   0.587407 0.876473 0.081625 -0.451144
C174  C     C_3   0.422022 0.923870 0.902795 -0.249894
C175  C     C_3   0.411159 0.877068 0.920244 -0.451240
C176  C     C_3   0.429286 0.145892 0.564936 -0.272688
C177  C     C_3   0.381207 0.159444 0.570161 -0.423236
C178  C     C_3   0.498370 0.833005 0.472692 -0.271894
C179  C     C_R   0.965519 0.529185 0.028097 -0.012650
C180  C     C_3   0.473617 0.812412 0.518850 -0.417747
C181  C     C_3   0.163220 0.520452 0.543383 -0.289769
C182  C     C_3   0.165076 0.551470 0.589599 -0.404949
C183  C     C_3   0.856598 0.420662 0.438359 -0.290435
C184  C     C_3   0.842398 0.461417 0.408102 -0.395701
C185  C     C_3   0.579107 0.858937 0.531152 -0.266996
C186  C     C_3   0.611671 0.853155 0.486079 -0.420855
C187  C     C_3   0.428795 0.150332 0.446330 -0.285917
C188  C     C_3   0.471235 0.163619 0.418616 -0.392907
C189  C     C_3   0.853148 0.422227 0.556972 -0.273063
C190  C     C_R   0.459893 0.968528 0.973279 -0.010886
C191  C     C_3   0.841749 0.373497 0.561584 -0.433188
C192  C     C_3   0.139054 0.580779 0.455550 -0.291169
C193  C     C_3   0.162145 0.559260 0.409557 -0.403917
C194  C     C_3   0.914599 0.637502 0.062856 -0.272377
C195  C     C_3   0.865400 0.645578 0.069348 -0.427394
C196  C     C_3   0.039802 0.339406 0.972224 -0.269932
C197  C     C_3   0.009292 0.312258 0.007170 -0.419798
C198  C     C_3   0.661594 0.964278 0.056485 -0.292046
C199  C     C_3   0.661614 0.006066 0.088808 -0.389135
C200  C     C_3   0.338078 0.965327 0.944136 -0.291402
C201  C     C_R   0.539831 0.968361 0.027238 -0.009856
C202  C     C_3   0.338424 0.007237 0.911246 -0.391415
C203  C     C_3   0.105882 0.378683 0.043407 -0.263205
C204  C     C_3   0.144259 0.376502 0.004631 -0.424917
C205  C     C_3   0.912297 0.639682 0.944304 -0.287761
C206  C     C_3   0.952872 0.658632 0.917330 -0.397633
C207  C     C_3   0.339442 0.964247 0.063040 -0.273120
C208  C     C_3   0.313281 0.921449 0.065661 -0.420936
C209  C     C_3   0.660264 0.963327 0.937618 -0.273177
C210  C     C_3   0.686025 0.920367 0.935810 -0.422040
C211  C     C_R   0.963368 0.528898 0.973089 -0.018836
C212  C     C_R   0.618250 0.117861 0.748909 -0.016562
C213  C     C_R   0.021854 0.471428 0.024333 -0.016982
C214  C     C_R   0.539395 0.968330 0.972026 -0.007344
C215  C     C_R   0.460333 0.968529 0.028498 -0.008246
C216  C     C_R   0.493168 0.959083 0.474357 -0.011243
C217  C     C_R   0.467251 0.032805 0.527966 -0.010306
C218  C     C_R   0.968107 0.466055 0.472957 -0.014053
C219  C     C_R   0.040741 0.496348 0.525582 -0.011477
C220  C     C_R   0.464319 0.033211 0.472937 -0.012841
C221  C     C_R   0.511355 0.965459 0.523067 -0.013973
C222  C     C_R   0.033576 0.513412 0.476255 -0.011847
C223  C     C_R   0.381852 0.881345 0.249968 -0.030633
C224  C     C_R   0.967988 0.463796 0.528078 -0.013869
C225  C     C_R   0.716462 0.781235 0.752737 -0.003064
C226  C     C_R   0.282064 0.217079 0.250145 -0.003333
C227  C     C_R   0.784582 0.281049 0.745735 -0.009542
C228  C     C_R   0.217783 0.717049 0.249162 -0.002789
C229  C     C_R   0.281077 0.216052 0.747463 -0.002744
C230  C     C_R   0.715544 0.780378 0.246079 -0.003013
C231  C     C_R   0.218412 0.716479 0.751378 -0.003601
C232  C     C_R   0.783052 0.282010 0.252318 -0.004327
C233  C     C_R   0.718528 0.216684 0.251127 -0.004574
C234  C     C_R   0.118126 0.381181 0.749438 -0.026731
C235  C     C_R   0.283185 0.781540 0.752256 -0.004261
C236  C     C_R   0.780292 0.715362 0.245762 -0.002381
C237  C     C_R   0.216359 0.281063 0.747855 -0.003960
C238  C     C_R   0.283034 0.781648 0.249242 -0.003805
C239  C     C_R   0.719084 0.215962 0.746137 -0.008796
C240  C     C_R   0.217695 0.282414 0.249482 -0.004066
C241  C     C_R   0.781145 0.716095 0.752973 -0.002683
C242  C     C_R   0.763172 0.730748 0.800112 0.118849
C243  C     C_R   0.242145 0.273866 0.204224 0.122167
C244  C     C_R   0.757291 0.210350 0.775752 0.125919
C245  C     C_R   0.880847 0.617718 0.248512 -0.033340
C246  C     C_R   0.266965 0.765669 0.201943 0.120502
C247  C     C_R   0.236319 0.268120 0.794577 0.123381
C248  C     C_R   0.761306 0.729164 0.198818 0.117094
C249  C     C_R   0.266498 0.764596 0.799313 0.121816
C250  C     C_R   0.716007 0.252402 0.216565 0.126741
C251  C     C_R   0.748067 0.285027 0.217287 0.126156
C252  C     C_R   0.234160 0.732269 0.798861 0.126484
C253  C     C_R   0.729040 0.761526 0.198977 0.120562
C254  C     C_R   0.268458 0.235700 0.794384 0.127726
C255  C     C_R   0.234371 0.733599 0.201924 0.126481
C256  C     C_R   0.381934 0.881284 0.751367 -0.030934
C257  C     C_R   0.789456 0.242906 0.776160 0.126261
C258  C     C_R   0.274102 0.241248 0.204531 0.127502
C259  C     C_R   0.730911 0.763117 0.800002 0.119939
C260  C     C_R   0.257758 0.225645 0.295422 0.119235
C261  C     C_R   0.734566 0.766613 0.705616 0.123488
C262  C     C_R   0.233920 0.732828 0.296437 0.119654
C263  C     C_R   0.746869 0.286192 0.715143 0.120098
C264  C     C_R   0.734584 0.766569 0.292987 0.124109
C265  C     C_R   0.261250 0.229015 0.700716 0.117402
C266  C     C_R   0.785673 0.246211 0.286747 0.120459
C267  C     C_R   0.618839 0.117956 0.250192 -0.023133
C268  C     C_R   0.235151 0.733279 0.704346 0.121350
C269  C     C_R   0.267313 0.765760 0.704765 0.124599
C270  C     C_R   0.753429 0.213752 0.286298 0.125590
C271  C     C_R   0.228945 0.261313 0.700916 0.124039
C272  C     C_R   0.766780 0.734212 0.292829 0.127675
C273  C     C_R   0.714093 0.254237 0.715955 0.128334
C274  C     C_R   0.266304 0.765105 0.296499 0.123981
C275  C     C_R   0.766682 0.734150 0.705740 0.127664
C276  C     C_R   0.225608 0.258073 0.295064 0.125604
C277  C     C_R   0.543743 0.892410 0.517628 0.052545
C278  C     C_R   0.881870 0.381515 0.251206 -0.030214
C279  C     C_R   0.435123 0.107535 0.476255 0.038093
C280  C     C_R   0.895313 0.430552 0.526613 0.037694
C281  C     C_R   0.105246 0.549619 0.479648 0.044817
C282  C     C_R   0.435498 0.105609 0.531386 0.034386
C283  C     C_R   0.509179 0.881026 0.482781 0.048829
C284  C     C_R   0.117263 0.519826 0.520300 0.040907
C285  C     C_R   0.896678 0.430538 0.471411 0.039998
C286  C     C_R   0.067940 0.406059 0.022363 0.048833
C287  C     C_R   0.924139 0.598492 0.975001 0.040767
C288  C     C_R   0.380911 0.960383 0.030359 0.033942
F1    F     F_    0.776427 0.713161 0.846068 -0.158132
F2    F     F_    0.218637 0.715837 0.844645 -0.149396
F3    F     F_    0.710449 0.774029 0.153368 -0.157013
F4    F     F_    0.287914 0.224006 0.839775 -0.148538
F5    F     F_    0.219454 0.718112 0.155923 -0.149788
F6    F     F_    0.824986 0.237539 0.807113 -0.147795
F7    F     F_    0.297859 0.233705 0.160669 -0.148400
F8    F     F_    0.713211 0.776293 0.845873 -0.157481
F9    F     F_    0.264762 0.202084 0.339617 -0.156478
F10   F     F_    0.721689 0.784416 0.659617 -0.153041
F11   F     F_    0.217716 0.717444 0.342401 -0.156544
F12   F     F_    0.235564 0.297669 0.160113 -0.154147
F13   F     F_    0.741898 0.322076 0.684174 -0.152535
F14   F     F_    0.722560 0.785097 0.338753 -0.152253
F15   F     F_    0.272761 0.209863 0.655136 -0.159467
F16   F     F_    0.819213 0.243050 0.321044 -0.154131
F17   F     F_    0.219700 0.718746 0.658149 -0.154413
F18   F     F_    0.282447 0.782415 0.658909 -0.151843
F19   F     F_    0.756398 0.179224 0.319721 -0.149456
F20   F     F_    0.209411 0.272854 0.655520 -0.152978
F21   F     F_    0.785451 0.721841 0.338445 -0.148554
F22   F     F_    0.677070 0.261096 0.688008 -0.145284
F23   F     F_    0.763632 0.173145 0.804022 -0.146692
F24   F     F_    0.280775 0.780847 0.342581 -0.153021
F25   F     F_    0.784327 0.720873 0.659881 -0.148329
F26   F     F_    0.201658 0.265257 0.338869 -0.150758
F27   F     F_    0.830659 0.570356 0.706682 -0.140745
F28   F     F_    0.082222 0.342149 0.181294 -0.152680
F29   F     F_    0.620872 0.116260 0.655698 -0.153417
F30   F     F_    0.428526 0.831304 0.296878 -0.152840
F31   F     F_    0.164809 0.424332 0.692766 -0.155559
F32   F     F_    0.926371 0.666939 0.197925 -0.151008
F33   F     F_    0.331514 0.927909 0.797640 -0.158772
F34   F     F_    0.283388 0.780655 0.155903 -0.156118
F35   F     F_    0.597087 0.141455 0.335824 -0.147783
F36   F     F_    0.933301 0.327780 0.220227 -0.144911
F37   F     F_    0.171377 0.568308 0.713151 -0.157239
F38   F     F_    0.572554 0.832689 0.300997 -0.148078
F39   F     F_    0.332204 0.071940 0.799524 -0.154234
F40   F     F_    0.068768 0.671288 0.212712 -0.140754
F41   F     F_    0.826859 0.433793 0.769612 -0.155313
F42   F     F_    0.422508 0.162979 0.309480 -0.164107
F43   F     F_    0.667033 0.926706 0.800390 -0.162164
F44   F     F_    0.336806 0.077048 0.190497 -0.144794
F45   F     F_    0.225234 0.287519 0.840153 -0.152704
F46   F     F_    0.572680 0.832768 0.700698 -0.148232
F47   F     F_    0.171366 0.567671 0.284294 -0.156728
F48   F     F_    0.937151 0.327833 0.728311 -0.162786
F49   F     F_    0.666592 0.926038 0.196937 -0.163001
F50   F     F_    0.426843 0.167352 0.699065 -0.156231
F51   F     F_    0.827731 0.432456 0.282277 -0.155539
F52   F     F_    0.069153 0.670411 0.788174 -0.142487
F53   F     F_    0.429415 0.831294 0.705708 -0.144171
F54   F     F_    0.643642 0.097359 0.164678 -0.155512
F55   F     F_    0.074783 0.334674 0.806125 -0.156663
F56   F     F_    0.773596 0.710788 0.153063 -0.161317
F57   F     F_    0.832050 0.571726 0.299093 -0.144795
F58   F     F_    0.617580 0.121117 0.842058 -0.149263
F59   F     F_    0.331908 0.928323 0.203285 -0.159268
F60   F     F_    0.928553 0.668626 0.794887 -0.155001
F61   F     F_    0.159019 0.418387 0.317030 -0.144902
F62   F     F_    0.767593 0.632744 0.708451 -0.147222
F63   F     F_    0.144469 0.279324 0.182463 -0.152343
F64   F     F_    0.686317 0.176851 0.653882 -0.147185
F65   F     F_    0.366022 0.768299 0.295527 -0.150698
F66   F     F_    0.226628 0.360958 0.692402 -0.150291
F67   F     F_    0.282101 0.778859 0.845557 -0.154368
F68   F     F_    0.862089 0.727890 0.195295 -0.153600
F69   F     F_    0.269343 0.864529 0.798116 -0.151490
F70   F     F_    0.660145 0.204137 0.335616 -0.149247
F71   F     F_    0.870217 0.264946 0.220871 -0.149322
F72   F     F_    0.234117 0.631378 0.712807 -0.152527
F73   F     F_    0.634284 0.769183 0.298201 -0.151150
F74   F     F_    0.269141 0.134242 0.797900 -0.151065
F75   F     F_    0.132275 0.733670 0.212272 -0.147770
F76   F     F_    0.764705 0.369712 0.769956 -0.146535
F77   F     F_    0.359028 0.224682 0.309929 -0.154662
F78   F     F_    0.682202 0.255839 0.182671 -0.147501
F79   F     F_    0.728626 0.863105 0.801814 -0.155782
F80   F     F_    0.274328 0.139852 0.191043 -0.149532
F81   F     F_    0.634766 0.769652 0.703018 -0.150735
F82   F     F_    0.233705 0.631045 0.285588 -0.153872
F83   F     F_    0.874611 0.264232 0.723181 -0.149967
F84   F     F_    0.727690 0.861946 0.194837 -0.153506
F85   F     F_    0.362774 0.228575 0.696980 -0.155352
F86   F     F_    0.765469 0.368737 0.284277 -0.152483
F87   F     F_    0.132829 0.732408 0.789086 -0.147806
F88   F     F_    0.366958 0.768333 0.707411 -0.149773
F89   F     F_    0.745363 0.319298 0.183457 -0.149414
F90   F     F_    0.707205 0.159682 0.165989 -0.149911
F91   F     F_    0.136749 0.271458 0.804003 -0.151589
F92   F     F_    0.768528 0.633505 0.296315 -0.148176
F93   F     F_    0.679865 0.184958 0.840327 -0.145326
F94   F     F_    0.269823 0.865062 0.203125 -0.154480
F95   F     F_    0.864583 0.729990 0.797296 -0.152980
F96   F     F_    0.221752 0.356009 0.315597 -0.149258
H1    H     H_    0.644091 0.924023 0.544856 0.154443
H2    H     H_    0.419183 0.028103 0.382213 0.134005
H3    H     H_    0.863439 0.393877 0.410616 0.148505
H4    H     H_    0.596272 0.836681 0.452582 0.164028
H5    H     H_    0.624403 0.885212 0.472095 0.160796
H6    H     H_    0.639687 0.832799 0.499244 0.164640
H7    H     H_    0.564805 0.826707 0.541476 0.154438
H8    H     H_    0.597473 0.868030 0.566389 0.155699
H9    H     H_    0.497885 0.167978 0.447379 0.164479
H10   H     H_    0.481229 0.138319 0.390089 0.193378
H11   H     H_    0.466341 0.195108 0.397528 0.173377
H12   H     H_    0.402166 0.147457 0.417448 0.160181
H13   H     H_    0.934838 0.348959 0.555159 0.163209
H14   H     H_    0.418876 0.177817 0.471505 0.153738
H15   H     H_    0.845788 0.356550 0.523833 0.155207
H16   H     H_    0.862832 0.357201 0.590882 0.157052
H17   H     H_    0.807182 0.369856 0.574710 0.170471
H18   H     H_    0.855459 0.436101 0.596688 0.164561
H19   H     H_    0.825711 0.440460 0.538730 0.153651
H20   H     H_    0.179383 0.529010 0.422120 0.162627
H21   H     H_    0.137923 0.550636 0.379229 0.195572
H22   H     H_    0.186541 0.582349 0.392454 0.172769
H23   H     H_    0.163530 0.591790 0.484265 0.151429
H24   H     H_    0.991154 0.366908 0.557583 0.148080
H25   H     H_    0.124368 0.611817 0.441813 0.149657
H26   H     H_    0.860028 0.679191 0.084303 0.180975
H27   H     H_    0.847858 0.642207 0.031908 0.154843
H28   H     H_    0.851124 0.622215 0.098066 0.154904
H29   H     H_    0.930813 0.666894 0.045749 0.154585
H30   H     H_    0.929323 0.633941 0.102059 0.180040
H31   H     H_    0.015487 0.319479 0.048761 0.173777
H32   H     H_    0.974443 0.318729 0.998454 0.155793
H33   H     H_    0.015421 0.276862 0.000636 0.160405
H34   H     H_    0.033620 0.333487 0.930755 0.158731
H35   H     H_    0.965937 0.341637 0.614016 0.164945
H36   H     H_    0.072872 0.325511 0.976458 0.149470
H37   H     H_    0.658510 0.035250 0.063000 0.172860
H38   H     H_    0.634159 0.005873 0.117368 0.195649
H39   H     H_    0.692872 0.008539 0.110500 0.167474
H40   H     H_    0.665835 0.935480 0.082521 0.160114
H41   H     H_    0.691307 0.965121 0.031712 0.153357
H42   H     H_    0.341778 0.036306 0.936659 0.166617
H43   H     H_    0.365880 0.006994 0.882690 0.195310
H44   H     H_    0.307186 0.009960 0.889524 0.173734
H45   H     H_    0.308377 0.966240 0.968906 0.153947
H46   H     H_    0.973098 0.420822 0.623646 0.143036
H47   H     H_    0.333576 0.936668 0.918464 0.158605
H48   H     H_    0.136029 0.357377 0.969625 0.159088
H49   H     H_    0.154098 0.409678 0.991174 0.158653
H50   H     H_    0.172797 0.360683 0.023648 0.165875
H51   H     H_    0.094751 0.345181 0.054126 0.161031
H52   H     H_    0.118377 0.391468 0.080594 0.156853
H53   H     H_    0.978338 0.666508 0.946524 0.162151
H54   H     H_    0.966505 0.634943 0.888936 0.193578
H55   H     H_    0.944001 0.689213 0.896246 0.177565
H56   H     H_    0.886940 0.632879 0.914777 0.151838
H57   H     H_    0.917576 0.405011 0.626606 0.159652
H58   H     H_    0.898045 0.665619 0.968915 0.155083
H59   H     H_    0.280435 0.927901 0.082766 0.175902
H60   H     H_    0.308941 0.907074 0.026530 0.153204
H61   H     H_    0.329980 0.897117 0.090891 0.168136
H62   H     H_    0.347550 0.974279 0.103309 0.178910
H63   H     H_    0.318692 0.991253 0.047859 0.153699
H64   H     H_    0.718945 0.926620 0.918627 0.174408
H65   H     H_    0.690197 0.905944 0.975208 0.152325
H66   H     H_    0.669117 0.896157 0.911002 0.168974
H67   H     H_    0.681258 0.990197 0.952320 0.152663
H68   H     H_    0.007619 0.616675 0.487427 0.165782
H69   H     H_    0.652277 0.973433 0.897164 0.175619
H70   H     H_    0.063421 0.635293 0.481782 0.156581
H71   H     H_    0.023576 0.652448 0.434428 0.156303
H72   H     H_    0.066908 0.593495 0.393142 0.151247
H73   H     H_    0.620477 0.965641 0.502525 0.168068
H74   H     H_    0.012605 0.576958 0.407024 0.151240
H75   H     H_    0.352542 0.068687 0.553922 0.162196
H76   H     H_    0.368321 0.011966 0.548553 0.153968
H77   H     H_    0.342535 0.031355 0.607390 0.151779
H78   H     H_    0.421061 0.020032 0.618808 0.148732
H79   H     H_    0.407473 0.075876 0.628536 0.158667
H80   H     H_    0.408108 0.851310 0.455823 0.162870
H81   H     H_    0.402559 0.902157 0.491608 0.160662
H82   H     H_    0.375475 0.894555 0.430310 0.151845
H83   H     H_    0.433102 0.937223 0.405405 0.151165
H84   H     H_    0.647015 0.980140 0.562284 0.157525
H85   H     H_    0.455128 0.885272 0.390245 0.182523
H86   H     H_    0.091239 0.404228 0.513366 0.157056
H87   H     H_    0.145150 0.427886 0.518337 0.164425
H88   H     H_    0.126860 0.388051 0.565836 0.162696
H89   H     H_    0.119792 0.460877 0.606893 0.180650
H90   H     H_    0.068057 0.436715 0.594507 0.158575
H91   H     H_    0.979278 0.359062 0.448578 0.157604
H92   H     H_    0.922822 0.349704 0.431190 0.155046
H93   H     H_    0.965457 0.343045 0.383276 0.156783
H94   H     H_    0.927787 0.414466 0.368402 0.170934
H95   H     H_    0.576200 0.985351 0.586967 0.150974
H96   H     H_    0.984145 0.419740 0.385770 0.147459
H97   H     H_    0.158804 0.453530 0.062709 0.153699
H98   H     H_    0.133209 0.487734 0.013169 0.167288
H99   H     H_    0.150774 0.510274 0.074034 0.154823
H100  H     H_    0.078562 0.504632 0.090273 0.150426
H101  H     H_    0.094063 0.453193 0.116921 0.149945
H102  H     H_    0.856317 0.513979 0.941961 0.156333
H103  H     H_    0.845379 0.571168 0.929612 0.155364
H104  H     H_    0.841994 0.532428 0.877426 0.159983
H105  H     H_    0.912545 0.573239 0.869492 0.170961
H106  H     H_    0.585586 0.930906 0.608441 0.160135
H107  H     H_    0.919037 0.516205 0.882632 0.138705
H108  H     H_    0.395493 0.869057 0.050539 0.164009
H109  H     H_    0.454697 0.869896 0.049897 0.147996
H110  H     H_    0.425440 0.849435 0.106302 0.151867
H111  H     H_    0.455711 0.922683 0.120703 0.143859
H112  H     H_    0.397729 0.922904 0.126285 0.178290
H113  H     H_    0.603406 0.868534 0.951577 0.163605
H114  H     H_    0.544217 0.869610 0.952111 0.147893
H115  H     H_    0.573386 0.849181 0.896059 0.151877
H116  H     H_    0.543598 0.922593 0.880585 0.142574
H117  H     H_    0.356983 0.032129 0.442506 0.154601
H118  H     H_    0.601551 0.922596 0.874902 0.178526
H119  H     H_    0.846857 0.553185 0.056675 0.161976
H120  H     H_    0.867874 0.498192 0.052061 0.155884
H121  H     H_    0.841765 0.516155 0.111350 0.154468
H122  H     H_    0.921110 0.512402 0.119902 0.150006
H123  H     H_    0.902823 0.566831 0.129335 0.153295
H124  H     H_    0.997705 0.379515 0.865867 0.216238
H125  H     H_    0.968205 0.335553 0.899231 0.131713
H126  H     H_    0.938447 0.375567 0.864816 0.169064
H127  H     H_    0.945687 0.380362 0.968206 0.134254
H128  H     H_    0.353036 0.090521 0.431944 0.157949
H129  H     H_    0.941376 0.426426 0.928145 0.143693
H130  H     H_    0.562746 0.865269 0.053013 0.151089
H131  H     H_    0.620560 0.874130 0.063867 0.159791
H132  H     H_    0.586112 0.854330 0.116098 0.153215
H133  H     H_    0.600822 0.933521 0.128304 0.194321
H134  H     H_    0.544289 0.921853 0.116810 0.139425
H135  H     H_    0.435633 0.865535 0.949072 0.151223
H136  H     H_    0.377959 0.874990 0.937978 0.159743
H137  H     H_    0.412218 0.855014 0.886100 0.153319
H138  H     H_    0.398593 0.934394 0.872599 0.193411
H139  H     H_    0.344399 0.053623 0.378739 0.152296
H140  H     H_    0.454950 0.922079 0.884552 0.139923
H141  H     H_    0.379337 0.192842 0.586835 0.181883
H142  H     H_    0.364495 0.159612 0.531951 0.154591
H143  H     H_    0.363476 0.136827 0.596943 0.157189
H144  H     H_    0.449187 0.173511 0.549225 0.153185
H145  H     H_    0.442588 0.139845 0.604446 0.181492
H146  H     H_    0.494942 0.808958 0.553339 0.165285
H147  H     H_    0.445083 0.832719 0.530283 0.166160
H148  H     H_    0.461732 0.779316 0.508088 0.160786
H149  H     H_    0.478519 0.828743 0.437283 0.156731
H150  H     H_    0.419139 0.085818 0.371007 0.184351
H151  H     H_    0.528172 0.813583 0.464710 0.153079
H152  H     H_    0.156442 0.585354 0.577488 0.155614
H153  H     H_    0.141804 0.540482 0.620449 0.193574
H154  H     H_    0.198703 0.551674 0.605874 0.175003
H155  H     H_    0.173935 0.487623 0.556526 0.154246
H156  H     H_    0.188509 0.529809 0.514290 0.150823
H157  H     H_    0.834818 0.488470 0.435367 0.163585
H158  H     H_    0.868616 0.472227 0.380694 0.198451
H159  H     H_    0.812504 0.453940 0.385396 0.175294
H160  H     H_    0.828133 0.409207 0.461543 0.154092
O1    O     O_3   0.500000 0.000000 0.750000 -0.448183
O2    O     O_R   0.536370 0.000000 0.134270 -0.550254
O3    O     O_R   0.000000 0.536370 0.865730 -0.540122
O4    O     O_R   0.000000 0.463630 0.134270 -0.538689
O5    O     O_R   0.036370 0.500000 0.365730 -0.541266
O6    O     O_R   0.963630 0.500000 0.634270 -0.533263
O7    O     O_R   0.500000 0.963630 0.365730 -0.552818
O8    O     O_R   0.500000 0.036370 0.634270 -0.543911
O9    O     O_R   0.963630 0.500000 0.365730 -0.553273
O10   O     O_R   0.036370 0.500000 0.634270 -0.560505
O11   O     O_R   0.500000 0.036370 0.365730 -0.538865
O12   O     O_3   0.500000 0.000000 0.250000 -0.445944
O13   O     O_R   0.500000 0.963630 0.634270 -0.541812
O14   O     O_R   0.412560 0.948890 0.780280 -0.552371
O15   O     O_R   0.587440 0.051110 0.219720 -0.520482
O16   O     O_R   0.948890 0.587440 0.780280 -0.540607
O17   O     O_R   0.051110 0.412560 0.219720 -0.520930
O18   O     O_R   0.587440 0.051110 0.780280 -0.516510
O19   O     O_R   0.412560 0.948890 0.219720 -0.542324
O20   O     O_R   0.051110 0.412560 0.780280 -0.527227
O21   O     O_R   0.948890 0.587440 0.219720 -0.529501
O22   O     O_R   0.412560 0.051110 0.219720 -0.508506
O23   O     O_3   0.000000 0.500000 0.750000 -0.444612
O24   O     O_R   0.587440 0.948890 0.780280 -0.544751
O25   O     O_R   0.948890 0.412560 0.219720 -0.511693
O26   O     O_R   0.051110 0.587440 0.780280 -0.510160
O27   O     O_R   0.587440 0.948890 0.219720 -0.550839
O28   O     O_R   0.412560 0.051110 0.780280 -0.517071
O29   O     O_R   0.051110 0.587440 0.219720 -0.511732
O30   O     O_R   0.948890 0.412560 0.780280 -0.552943
O31   O     O_R   0.912560 0.448890 0.280280 -0.547814
O32   O     O_R   0.087440 0.551110 0.719720 -0.527385
O33   O     O_R   0.448890 0.087440 0.280280 -0.543827
O34   O     O_3   0.000000 0.500000 0.250000 -0.449525
O35   O     O_R   0.551110 0.912560 0.719720 -0.521656
O36   O     O_R   0.087440 0.551110 0.280280 -0.534442
O37   O     O_R   0.912560 0.448890 0.719720 -0.536537
O38   O     O_R   0.551110 0.912560 0.280280 -0.510718
O39   O     O_R   0.448890 0.087440 0.719720 -0.534550
O40   O     O_R   0.912560 0.551110 0.719720 -0.507393
O41   O     O_R   0.087440 0.448890 0.280280 -0.515198
O42   O     O_R   0.448890 0.912560 0.719720 -0.511220
O43   O     O_R   0.551110 0.087440 0.280280 -0.511805
O44   O     O_R   0.087440 0.448890 0.719720 -0.531648
O45   O     O_R   0.536370 0.000000 0.865730 -0.536225
O46   O     O_R   0.912560 0.551110 0.280280 -0.514321
O47   O     O_R   0.551110 0.087440 0.719720 -0.515463
O48   O     O_R   0.448890 0.912560 0.280280 -0.534270
O49   O     O_R   0.463630 0.000000 0.134270 -0.538146
O50   O     O_R   0.000000 0.463630 0.865730 -0.555133
O51   O     O_R   1.000000 0.536370 0.134270 -0.548779
O52   O     O_R   0.463630 0.000000 0.865730 -0.551993
Zn1   Zn    Zn3+2 0.500000 0.948100 0.706560 0.944326
Zn2   Zn    Zn3+2 0.000000 0.551900 0.793440 0.951974
Zn3   Zn    Zn3+2 0.448100 0.000000 0.206560 0.940221
Zn4   Zn    Zn3+2 0.551900 0.000000 0.793440 0.945749
Zn5   Zn    Zn3+2 0.000000 0.551900 0.206560 0.947906
Zn6   Zn    Zn3+2 0.000000 0.448100 0.793440 0.917552
Zn7   Zn    Zn3+2 0.551900 0.000000 0.206560 0.935504
Zn8   Zn    Zn3+2 0.448100 0.000000 0.793440 0.925679
Zn9   Zn    Zn3+2 0.500000 0.051900 0.293440 0.949393
Zn10  Zn    Zn3+2 0.948100 0.500000 0.706560 0.952240
Zn11  Zn    Zn3+2 0.051900 0.500000 0.293440 0.941730
Zn12  Zn    Zn3+2 0.500000 0.051900 0.706560 0.956162
Zn13  Zn    Zn3+2 0.500000 0.948100 0.293440 0.935088
Zn14  Zn    Zn3+2 0.051900 0.500000 0.706560 0.936368
Zn15  Zn    Zn3+2 0.948100 0.500000 0.293440 0.927841
Zn16  Zn    Zn3+2 0.000000 0.448100 0.206560 0.949925

loop_
_geom_bond_atom_site_label_1
_geom_bond_atom_site_label_2
_ccdc_geom_bond_type
C124  C220  A    
C40   C283  A    
C18   O43   A    
C175  H136  S    
C80   C267  A    
C61   C278  A    
O20   Zn6   S    
C78   C115  A    
C161  H107  S    
C23   O44   A    
C185  H8    S    
C28   O25   A    
C275  F25   S    
C154  H89   S    
C155  H87   S    
C39   C150  S    
C91   C127  A    
C192  C281  S    
C2    C29   S    
C119  F93   S    
C55   C223  A    
O1    Zn4   S    
C137  C228  S    
C186  H5    S    
C164  H110  S    
C166  H114  S    
O3    Zn2   S    
O7    Zn13  S    
O14   Zn8   S    
C246  C255  A    
O44   Zn14  S    
C143  C144  S    
C135  C217  A    
C81   C117  A    
C130  C235  S    
C236  C272  A    
O5    Zn11  S    
C174  H140  S    
C5    C286  A    
C83   C119  A    
C99   F74   S    
C280  C285  A    
C7    C288  A    
C265  F15   S    
C23   C234  S    
C192  H25   S    
C80   C116  A    
C243  F12   S    
C182  H154  S    
C157  C224  A    
C180  H146  S    
O9    Zn15  S    
C85   C121  A    
C113  C201  A    
C65   F40   S    
C92   C128  A    
O38   Zn13  S    
C103  F77   S    
O40   Zn10  S    
O32   Zn14  S    
C59   C256  A    
C231  C268  A    
C172  H134  S    
C203  H52   S    
C5    C49   A    
C19   O40   A    
C253  F3    S    
O23   Zn10  S    
C254  F4    S    
C171  H126  S    
C160  H98   S    
C233  C250  A    
C69   F43   S    
C194  H29   S    
C169  H120  S    
C262  C274  A    
O35   Zn1   S    
C25   O46   A    
C97   F72   S    
C13   C30   S    
C145  H46   S    
C225  C259  A    
C147  H13   S    
O1    Zn8   S    
C207  C288  S    
C19   O16   A    
C141  H106  S    
C73   C108  A    
C199  H39   S    
O39   Zn12  S    
C128  C237  S    
C159  H100  S    
C84   C223  A    
C151  H77   S    
C163  H112  S    
C104  C140  A    
C281  C284  A    
C42   C156  S    
C183  C184  S    
C36   C279  A    
C13   C63   A    
C151  H76   S    
C30   O27   A    
C189  H19   S    
C92   F66   S    
O4    Zn16  S    
C144  H128  S    
C38   C148  S    
C154  C155  S    
C51   C190  A    
C116  F90   S    
C257  F6    S    
C208  H59   S    
C259  F8    S    
C173  H131  S    
O21   Zn5   S    
C17   O42   A    
O16   Zn2   S    
C235  C269  A    
C44   C161  S    
C82   C118  A    
C60   C267  A    
C263  F13   S    
C64   F39   S    
C175  H137  S    
C11   O4    A    
C135  C221  A    
C248  C253  A    
C26   O33   A    
C178  H151  S    
C58   C245  A    
C94   F69   S    
C196  C197  S    
C42   C218  A    
C70   C105  A    
C185  C277  S    
C102  F76   S    
C187  C279  S    
C63   C98   A    
C136  C229  S    
C249  F67   S    
C174  H138  S    
C11   O51   A    
C156  C158  S    
C45   C163  S    
C22   O48   A    
O47   Zn12  S    
C118  C129  A    
C241  C275  A    
C23   O20   A    
C47   C165  S    
C33   O30   A    
C45   C215  A    
C197  H33   S    
C99   C136  A    
C26   C57   S    
C201  C214  A    
C121  C123  A    
C27   O35   A    
C100  C137  A    
C37   C280  A    
C15   O11   A    
C146  C218  A    
C119  C126  A    
C205  H56   S    
C127  C238  S    
C200  C202  S    
C206  H55   S    
C71   C106  A    
O46   Zn15  S    
C171  H124  S    
C62   F37   S    
C22   O19   A    
C199  H38   S    
C178  H149  S    
C31   O28   A    
C191  H16   S    
C107  F82   S    
C52   F27   S    
C236  C248  A    
C110  C136  A    
C97   C133  A    
C188  H9    S    
C3    C6    A    
C133  C231  S    
C268  F17   S    
C61   C96   A    
C67   C103  A    
C167  C169  S    
C165  H116  S    
C207  H63   S    
C131  C233  S    
C81   F55   S    
C45   C288  A    
C139  C226  S    
C43   C159  S    
C68   C71   A    
C70   F44   S    
C49   C170  S    
O24   Zn4   S    
C164  H108  S    
C170  C171  S    
C192  H23   S    
C47   C214  A    
C40   C152  S    
C241  C242  A    
C12   O5    A    
C189  C191  S    
C176  C282  S    
C272  F21   S    
C100  F75   S    
O31   Zn15  S    
C38   C281  A    
O11   Zn9   S    
C258  F7    S    
C53   F28   S    
C64   C99   A    
C27   C68   S    
C190  C215  A    
O18   Zn4   S    
C54   C212  A    
C147  H24   S    
C117  F91   S    
C29   O32   A    
C200  H45   S    
C193  H20   S    
C153  H81   S    
C61   F36   S    
C56   C234  A    
O26   Zn2   S    
C30   O38   A    
O29   Zn5   S    
C55   F30   S    
O28   Zn8   S    
C122  F96   S    
O51   Zn5   S    
C230  C264  A    
C4    C287  A    
C15   C124  S    
C49   C168  A    
C158  H92   S    
C96   F71   S    
C226  C260  A    
C233  C270  A    
C229  C265  A    
C27   O24   A    
C195  H28   S    
C210  H64   S    
O25   Zn16  S    
C10   O50   A    
C152  H83   S    
C243  C258  A    
O34   Zn15  S    
C51   C174  S    
O13   Zn1   S    
C60   C95   A    
C184  H157  S    
C196  H34   S    
C62   C97   A    
C142  H84   S    
C206  H53   S    
C40   C216  A    
C209  C210  S    
C6    C50   A    
C98   F73   S    
C15   O7    A    
C125  C240  S    
C111  F86   S    
C150  H79   S    
C181  H155  S    
C180  H147  S    
C198  H40   S    
C239  C273  A    
C149  H68   S    
C210  H66   S    
C209  H67   S    
C4    C194  S    
C188  H11   S    
C94   C130  A    
O1    Zn12  S    
C123  C241  S    
C167  H123  S    
C53   C112  A    
C44   C287  A    
C75   C110  A    
C175  H135  S    
C39   C217  A    
C142  H1    S    
C84   F59   S    
C108  F83   S    
C154  H90   S    
C95   F70   S    
C14   O10   A    
C44   C211  A    
C9    C113  S    
C122  C125  A    
C186  H6    S    
C219  C222  A    
C87   C123  A    
C166  H115  S    
C250  F78   S    
C48   C167  S    
C76   C111  A    
O30   Zn6   S    
C76   F51   S    
C3    C47   A    
C20   O41   A    
C252  F2    S    
C134  C230  S    
O42   Zn1   S    
C138  C227  S    
C260  C276  A    
C247  C254  A    
C197  H32   S    
C29   O26   A    
C24   C64   A    
C200  H47   S    
C193  H22   S    
C235  C249  A    
C150  C151  S    
C148  H72   S    
C50   C172  S    
C66   F41   S    
C46   C73   A    
C187  H14   S    
C115  C130  A    
C3    C209  S    
C17   C256  S    
C203  H51   S    
C242  C259  A    
C202  H44   S    
C63   F38   S    
C261  F10   S    
C41   C284  A    
C171  H125  S    
C161  C162  S    
C202  H43   S    
C56   F31   S    
C227  C263  A    
C34   C141  S    
C67   F42   S    
C118  F92   S    
C181  C182  S    
C169  H119  S    
C217  C220  A    
C79   C211  A    
C93   F68   S    
C149  H71   S    
C183  H160  S    
C58   C93   A    
C32   O29   A    
C46   C66   A    
C184  H159  S    
O10   Zn14  S    
C124  C216  A    
C18   C267  S    
C146  C222  A    
C35   C65   A    
C39   C282  A    
C163  H111  S    
C176  H144  S    
C204  H49   S    
C7    C200  S    
C83   F58   S    
C216  C221  A    
C55   C91   A    
O34   Zn11  S    
C145  C147  S    
C20   C112  S    
O45   Zn4   S    
C151  H75   S    
C68   C69   A    
C249  C252  A    
C177  H141  S    
C86   C122  A    
C104  F79   S    
C189  H18   S    
C10   O3    A    
C59   C94   A    
C225  C261  A    
C57   C70   A    
C248  F56   S    
O12   Zn3   S    
C8    C101  S    
C83   C212  A    
C109  F84   S    
C34   C221  A    
C32   O36   A    
C43   C286  A    
C230  C253  A    
C31   O39   A    
C194  C195  S    
C208  H60   S    
C173  H130  S    
C264  C272  A    
C95   C131  A    
C33   C46   S    
O8    Zn12  S    
C93   C129  A    
C126  C239  S    
C26   O22   A    
C21   O18   A    
C41   C219  A    
C73   F48   S    
C228  C262  A    
O34   Zn5   S    
C89   C126  A    
C155  H88   S    
C189  C280  S    
C274  F24   S    
C120  C127  A    
O36   Zn11  S    
C1    C19   S    
C14   C157  S    
C207  C208  S    
C194  H30   S    
C181  C284  S    
O37   Zn10  S    
C164  H109  S    
C166  H113  S    
C129  C236  S    
C250  C251  A    
C240  C243  A    
C91   F65   S    
C117  C128  A    
C107  C137  A    
C20   O17   A    
C105  C139  A    
C228  C255  A    
C106  C140  A    
C159  C160  S    
C178  C283  S    
C84   C120  A    
C238  C246  A    
C182  H153  S    
C148  H74   S    
C232  C251  A    
C162  H102  S    
C17   O14   A    
O49   Zn3   S    
O12   Zn7   S    
C187  H12   S    
C60   F35   S    
C34   C277  A    
C141  H95   S    
C35   C72   A    
C101  C190  A    
C72   F47   S    
C8    O45   A    
C202  H42   S    
O41   Zn11  S    
C82   F57   S    
C276  F26   S    
C77   C114  A    
C87   F62   S    
C160  H97   S    
O43   Zn9   S    
C156  H94   S    
C199  H37   S    
C50   C201  A    
C169  H121  S    
C191  H15   S    
C80   F54   S    
C109  C134  A    
O15   Zn7   S    
C105  F80   S    
C244  C257  A    
C65   C100  A    
C188  H10   S    
C242  F1    S    
C178  C180  S    
C10   C79   S    
C21   C212  S    
C24   C75   A    
C218  C224  A    
C247  F45   S    
C158  H93   S    
C208  H61   S    
C162  H103  S    
C78   C256  A    
C38   C222  A    
O23   Zn2   S    
C265  C271  A    
C24   C31   S    
C7    C51   A    
C187  C188  S    
C2    C77   A    
C108  C138  A    
C185  C186  S    
C195  H26   S    
C177  H143  S    
O23   Zn14  S    
C85   F60   S    
C71   F46   S    
C209  H69   S    
C1    C52   A    
C162  H104  S    
C42   C285  A    
C269  F18   S    
C142  H73   S    
C183  C285  S    
C268  C269  A    
C88   C125  A    
C173  H132  S    
C260  F9    S    
C81   C234  A    
C77   F52   S    
C238  C274  A    
C273  F22   S    
C143  H150  S    
C9    O49   A    
C13   C74   A    
C25   C245  S    
C155  H86   S    
C203  C204  S    
C58   F32   S    
C165  C166  S    
C86   F61   S    
O48   Zn13  S    
C153  H80   S    
C66   C102  A    
C163  C164  S    
C255  F5    S    
C18   O15   A    
C36   C220  A    
C74   C109  A    
C205  C206  S    
C205  H58   S    
C237  C247  A    
C140  C225  S    
C5    C196  S    
C205  C287  S    
C204  H48   S    
C198  H41   S    
C78   F53   S    
C36   C143  S    
C25   O21   A    
O23   Zn6   S    
O22   Zn3   S    
C144  H139  S    
C74   F49   S    
O34   Zn16  S    
C179  C211  A    
C157  C219  A    
C4    C48   A    
C102  C138  A    
C279  C282  A    
C12   C146  S    
C229  C254  A    
O2    Zn7   S    
O1    Zn1   S    
O12   Zn9   S    
C115  F88   S    
C121  F95   S    
C174  C175  S    
C141  C142  S    
C165  H118  S    
C206  H54   S    
C184  H158  S    
C75   F50   S    
C198  C199  S    
C54   F29   S    
C79   C168  A    
C101  C214  A    
C160  H99   S    
C96   C132  A    
C89   F64   S    
C277  C283  A    
C180  H148  S    
C147  H35   S    
C177  H142  S    
C57   C67   A    
C231  C252  A    
C132  C232  S    
C170  H129  S    
C183  H3    S    
C1    C85   A    
C90   C213  A    
C32   C35   S    
C161  H105  S    
C148  C149  S    
C54   C89   A    
C266  C270  A    
O19   Zn3   S    
C6    C198  S    
O27   Zn7   S    
C240  C276  A    
C196  H36   S    
C168  C213  A    
C86   C112  A    
C28   O31   A    
C103  C139  A    
C226  C258  A    
C14   O6    A    
O12   Zn13  S    
C270  F19   S    
C72   C107  A    
C263  C273  A    
C176  H145  S    
C21   O47   A    
C237  C271  A    
C191  H17   S    
C271  F20   S    
C152  C153  S    
C167  H122  S    
C239  C244  A    
C143  H2    S    
C170  H127  S    
C16   O8    A    
C159  H101  S    
C203  C286  S    
C176  C177  S    
C197  H31   S    
C251  F89   S    
C262  F11   S    
C193  H21   S    
C153  H82   S    
C120  F94   S    
C113  C215  A    
C43   C213  A    
C244  F23   S    
C172  C173  S    
C41   C154  S    
C152  H85   S    
C69   C104  A    
C172  H133  S    
C90   C179  A    
C185  H7    S    
C82   C245  A    
C8    O52   A    
C52   C87   A    
C37   C224  A    
C158  H91   S    
C16   O13   A    
C28   C278  S    
O50   Zn6   S    
C261  C275  A    
C33   O37   A    
C12   O9    A    
C22   C223  S    
C98   C134  A    
C114  F87   S    
C76   C278  A    
C149  H70   S    
C192  C193  S    
C88   F63   S    
C144  H117  S    
O17   Zn16  S    
C266  F16   S    
C11   C90   S    
C116  C131  A    
C110  F85   S    
O33   Zn9   S    
C114  C133  A    
C232  C266  A    
C53   C88   A    
C204  H50   S    
C48   C179  A    
C246  F34   S    
C264  F14   S    
C227  C257  A    
C106  F81   S    
C111  C132  A    
C56   C92   A    
C150  H78   S    
C181  H156  S    
C195  H27   S    
C145  H57   S    
C156  H96   S    
C210  H65   S    
C182  H152  S    
O52   Zn8   S    
C37   C145  S    
C9    O2    A    
C16   C135  S    
O6    Zn10  S    
C59   F33   S    
C2    C62   A    
C186  H4    S    
C207  H62   S    
