data_mof_unit_49540.cif
_audit_creation_date              2012-12-11T17:43:18-0500
_audit_creation_method            fapswitch 2.2
_symmetry_space_group_name_H-M    P1
_symmetry_Int_Tables_number       1
_space_group_crystal_system       triclinic
_cell_length_a                    15.077864
_cell_length_b                    15.227051
_cell_length_c                    16.894017
_cell_angle_alpha                 108.675333
_cell_angle_beta                  105.886375
_cell_angle_gamma                 109.593084
_cell_volume                      3130.26034801

loop_
_atom_site_label
_atom_site_type_symbol
_atom_type_description
_atom_site_fract_x
_atom_site_fract_y
_atom_site_fract_z
_atom_type_partial_charge
C1    C     C_R   0.088182 0.286915 0.071343 -0.115689
C2    C     C_R   0.908405 0.720129 0.956604 -0.144096
C3    C     C_R   0.023322 0.562934 0.736033 0.112416
C4    C     C_R   0.970411 0.546179 0.270986 0.103874
C5    C     C_R   0.762109 0.199133 0.725938 0.067659
C6    C     C_R   0.331892 0.785868 0.257566 0.082411
C7    C     C_R   0.317773 0.494978 0.995499 0.025342
C8    C     C_R   0.639366 0.429687 0.938202 0.034783
C9    C     C_R   0.016476 0.947933 0.952877 0.232914
C10   C     C_R   0.977788 0.063917 0.097250 0.211376
C11   C     C_R   0.994389 0.912496 0.015955 -0.056502
C12   C     C_R   0.001118 0.100170 0.034842 -0.041152
C13   C     C_R   0.975640 0.968739 0.087897 -0.076954
C14   C     C_R   0.021815 0.044378 0.963808 -0.072971
C15   C     C_R   0.156430 0.140367 0.921081 -0.166750
C16   C     C_R   0.859842 0.843738 0.126571 -0.139031
C17   C     C_R   0.108519 0.181756 0.793784 -0.066151
C18   C     C_R   0.926643 0.836400 0.270791 -0.018645
C19   C     C_R   0.624998 0.751631 0.282892 0.360258
C20   C     C_R   0.441663 0.204964 0.654421 0.370904
C21   C     C_R   0.579797 0.686814 0.187952 -0.251250
C22   C     C_R   0.457343 0.257322 0.745651 -0.224913
C23   C     C_R   0.934159 0.513667 0.744684 -0.092844
C24   C     C_R   0.062870 0.553844 0.264325 -0.087874
C25   C     C_R   0.517946 0.578860 0.152155 0.045959
C26   C     C_R   0.442887 0.346851 0.774224 0.029028
C27   C     C_R   0.498848 0.536555 0.211889 -0.195186
C28   C     C_R   0.411528 0.382577 0.709790 -0.209556
C29   C     C_R   0.541047 0.602064 0.307072 0.323787
C30   C     C_R   0.395954 0.330387 0.618201 0.317935
C31   C     C_R   0.605677 0.709431 0.342344 -0.232168
C32   C     C_R   0.411301 0.241426 0.590875 -0.200663
C33   C     C_R   0.565443 0.486506 0.038078 -0.258392
C34   C     C_R   0.382964 0.425009 0.888955 -0.269025
C35   C     C_R   0.550175 0.433908 0.947232 0.074545
C36   C     C_R   0.399088 0.477385 0.980400 0.074251
C37   C     C_R   0.459258 0.402451 0.871037 0.067377
C38   C     C_R   0.490745 0.509729 0.055673 0.055848
C39   C     C_R   0.184842 0.186308 0.866449 -0.112921
C40   C     C_R   0.845517 0.797783 0.184695 -0.082412
C41   C     C_R   0.954189 0.588241 0.354531 0.030714
C42   C     C_R   0.025637 0.593101 0.662147 0.032183
C43   C     C_R   0.115759 0.708486 0.607572 -0.129876
C44   C     C_R   0.849200 0.521580 0.426429 -0.133307
C45   C     C_R   0.777669 0.204036 0.812393 -0.090527
C46   C     C_R   0.276906 0.786496 0.177640 -0.131376
C47   C     C_R   0.111294 0.682543 0.678866 -0.238365
C48   C     C_R   0.856073 0.533231 0.350580 -0.220595
C49   C     C_R   0.940720 0.533250 0.574225 0.238789
C50   C     C_R   0.037980 0.660781 0.441810 0.238020
C51   C     C_R   0.939456 0.568879 0.507743 0.054865
C52   C     C_R   0.031369 0.649250 0.519950 0.044610
C53   C     C_R   0.721063 0.104868 0.639566 0.109361
C54   C     C_R   0.438390 0.862821 0.325884 0.130490
C55   C     C_R   0.581696 0.037308 0.396435 -0.122318
C56   C     C_R   0.615254 0.917129 0.554795 -0.176751
C57   C     C_R   0.489272 0.956722 0.322521 -0.149947
C58   C     C_R   0.686579 0.005842 0.637437 -0.129858
C59   C     C_R   0.486447 0.846685 0.399738 -0.219329
C60   C     C_R   0.698743 0.112212 0.556535 -0.210097
C61   C     C_R   0.576526 0.928116 0.475280 0.201206
C62   C     C_R   0.622085 0.025392 0.475008 0.215289
C63   C     C_R   0.003523 0.130467 0.775171 -0.097719
C64   C     C_R   0.022439 0.920836 0.298743 -0.064437
C65   C     C_R   0.974738 0.083870 0.829335 -0.144237
C66   C     C_R   0.037553 0.966112 0.240270 -0.170374
C67   C     C_R   0.281040 0.558058 0.970620 0.323290
C68   C     C_R   0.696949 0.398015 0.989174 0.287023
C69   C     C_R   0.051202 0.089083 0.902917 0.175326
C70   C     C_R   0.956302 0.927745 0.153763 0.176468
C71   C     C_R   0.783172 0.298895 0.734938 -0.101684
C72   C     C_R   0.272257 0.691893 0.254520 -0.078219
C73   C     C_R   0.268564 0.456804 0.043198 -0.180860
C74   C     C_R   0.704294 0.498264 0.918372 -0.196624
C75   C     C_R   0.106123 0.594861 0.817871 -0.138473
C76   C     C_R   0.890654 0.473077 0.184762 -0.151003
C77   C     C_R   0.914634 0.201996 0.995378 -0.163558
C78   C     C_R   0.083569 0.806180 0.035838 -0.125513
C79   C     C_R   0.001000 0.195081 0.039588 0.105409
C80   C     C_R   0.994662 0.816957 0.008436 0.125880
H1    H     H_    0.167153 0.309084 0.115213 0.092303
H2    H     H_    0.828624 0.701789 0.919342 0.098157
H3    H     H_    0.216216 0.145446 0.977948 0.115491
H4    H     H_    0.796849 0.812333 0.059543 0.107097
H5    H     H_    0.641867 0.759898 0.416016 0.157539
H6    H     H_    0.399374 0.200191 0.520380 0.152505
H7    H     H_    0.597192 0.719566 0.142538 0.152759
H8    H     H_    0.479570 0.227497 0.793842 0.154285
H9    H     H_    0.454027 0.452703 0.184681 0.117501
H10   H     H_    0.400214 0.451609 0.731055 0.139988
H11   H     H_    0.638888 0.514995 0.095826 0.134283
H12   H     H_    0.310486 0.400633 0.832232 0.139730
H13   H     H_    0.786035 0.486631 0.286836 0.134187
H14   H     H_    0.176722 0.730739 0.746125 0.138919
H15   H     H_    0.186143 0.773282 0.621367 0.191075
H16   H     H_    0.774406 0.469459 0.418743 0.176561
H17   H     H_    0.856877 0.499629 0.704817 0.132550
H18   H     H_    0.140680 0.600260 0.318779 0.147626
H19   H     H_    0.266051 0.225676 0.880708 0.128892
H20   H     H_    0.771955 0.731511 0.162598 0.115895
H21   H     H_    0.729913 0.186995 0.556041 0.159914
H22   H     H_    0.450517 0.774195 0.402886 0.118161
H23   H     H_    0.707067 0.996951 0.699865 0.106752
H24   H     H_    0.455539 0.970948 0.265691 0.114332
H25   H     H_    0.616756 0.111365 0.395074 0.153067
H26   H     H_    0.582980 0.842097 0.555135 0.124291
H27   H     H_    0.130736 0.217858 0.751868 0.114885
H28   H     H_    0.915430 0.800570 0.315603 0.133170
H29   H     H_    0.944492 0.126997 0.718915 0.127682
H30   H     H_    0.085423 0.950277 0.365193 0.152941
H31   H     H_    0.893321 0.044807 0.814764 0.103423
H32   H     H_    0.112903 0.029684 0.261539 0.118713
H33   H     H_    0.767082 0.140848 0.830508 0.089222
H34   H     H_    0.305749 0.839401 0.150245 0.087636
H35   H     H_    0.777748 0.324232 0.681966 0.135760
H36   H     H_    0.296249 0.657666 0.297882 0.090669
H37   H     H_    0.283451 0.409905 0.076151 0.114372
H38   H     H_    0.682651 0.533693 0.875180 0.120743
H39   H     H_    0.184478 0.652492 0.840902 0.111622
H40   H     H_    0.809209 0.450164 0.163822 0.121441
H41   H     H_    0.834225 0.146198 0.970342 0.109651
H42   H     H_    0.163595 0.866627 0.070891 0.097415
N1    N     N_R   0.055660 0.348550 0.045620 -0.039212
N2    N     N_R   0.944340 0.651450 0.954380 -0.040943
N3    N     N_R   0.960830 0.507850 0.823700 -0.051391
N4    N     N_R   0.039170 0.492150 0.176300 -0.052636
N5    N     N_R   0.811290 0.303410 0.871650 -0.040211
N6    N     N_R   0.188710 0.696590 0.128350 -0.040646
N7    N     N_R   0.205200 0.552990 0.997670 -0.059223
N8    N     N_R   0.794800 0.447010 0.002330 -0.057216
N9    N     N_R   0.814800 0.361830 0.823700 -0.045920
N10   N     N_R   0.185200 0.638170 0.176300 -0.045466
N11   N     N_R   0.201680 0.494570 0.045620 -0.056101
N12   N     N_R   0.798320 0.505430 0.954380 -0.052404
N13   N     N_R   0.068420 0.560530 0.871650 -0.042700
N14   N     N_R   0.931580 0.439470 0.128350 -0.043679
N15   N     N_R   0.948070 0.295860 0.997670 -0.041418
N16   N     N_R   0.051930 0.704140 0.002330 -0.043190
Ni1   Ni    Ni4+2 0.119340 0.493420 0.109960 0.215212
Ni2   Ni    Ni4+2 0.880660 0.506580 0.890040 0.214240
Ni3   Ni    Ni4+2 0.872590 0.372590 0.000000 0.216356
Ni4   Ni    Ni4+2 0.127410 0.627410 0.000000 0.209170
Br1   Br    Br    0.719152 0.896226 0.331487 -0.590599
Br2   Br    Br    0.460379 0.082635 0.616208 -0.552002
C81   C     C_3   0.520727 0.558153 0.371766 -1.023390
H43   H     H_    0.595437 0.573320 0.422876 0.259702
H44   H     H_    0.483215 0.596327 0.408938 0.248108
H45   H     H_    0.468574 0.472387 0.334147 0.251118
C82   C     C_3   0.363104 0.370210 0.550632 -0.989808
H46   H     H_    0.422725 0.451579 0.575451 0.251798
H47   H     H_    0.353725 0.321098 0.481117 0.247647
H48   H     H_    0.287589 0.369605 0.544210 0.257979
Br3   Br    Br    0.157222 0.772711 0.452894 -0.586026
Br4   Br    Br    0.840259 0.389814 0.533602 -0.651160
C83   C     C_3   0.338840 0.642512 0.950015 -1.047011
H49   H     H_    0.424033 0.674333 0.988960 0.257837
H50   H     H_    0.319471 0.610088 0.875127 0.250852
H51   H     H_    0.320248 0.708305 0.972820 0.245742
C84   C     C_3   0.653222 0.303247 0.003488 -1.046465
H52   H     H_    0.620134 0.319242 0.054439 0.249421
H53   H     H_    0.590915 0.236076 0.937079 0.260213
H54   H     H_    0.714601 0.281349 0.028750 0.256525
C85   C     C_3   0.033046 0.881629 0.874759 -0.964417
H55   H     H_    0.104563 0.874793 0.903634 0.242316
H56   H     H_    0.965344 0.802201 0.834079 0.247607
H57   H     H_    0.041258 0.913476 0.825247 0.257152
C86   C     C_3   0.955478 0.124719 0.173254 -0.921757
H58   H     H_    0.014470 0.146483 0.241691 0.249012
H59   H     H_    0.957164 0.198036 0.173303 0.246754
H60   H     H_    0.877044 0.075396 0.165280 0.257628

loop_
_geom_bond_atom_site_label_1
_geom_bond_atom_site_label_2
_ccdc_geom_bond_type
C63   C65   A    
C3    C42   S    
C31   H5    S    
C83   H50   S    
C34   C37   A    
C7    C36   S    
C20   Br2   S    
C3    C23   A    
C85   H55   S    
C19   C31   A    
C21   H7    S    
C81   H43   S    
C76   N14   A    
C86   H59   S    
C67   N7    A    
N10   Ni1   S    
C6    C72   A    
C76   H40   S    
C55   H25   S    
C24   H18   S    
C60   C62   A    
C85   H56   S    
C77   N15   A    
C17   H27   S    
C2    C80   A    
N12   Ni2   S    
C4    C24   A    
C75   N13   A    
C43   C52   A    
C27   C29   A    
C4    C41   S    
C50   Br3   S    
C1    H1    S    
C12   C79   S    
N1    Ni1   S    
C16   H4    S    
C67   C83   S    
C17   C39   A    
C9    C85   S    
N8    Ni3   S    
C18   C40   A    
C65   H31   S    
C21   C25   A    
N9    Ni2   S    
C39   H19   S    
C41   C48   A    
N13   Ni4   S    
C10   C86   S    
C49   C51   A    
C50   C52   A    
C84   H53   S    
C22   H8    S    
C68   C84   S    
C3    C75   A    
C15   C39   A    
C34   C36   A    
C23   N3    A    
N3    N13   A    
C18   H28   S    
N4    N14   A    
C83   H51   S    
C24   N4    A    
N8    N12   A    
C6    C54   S    
C74   H38   S    
C64   H30   S    
C78   N16   A    
C81   H44   S    
C53   C60   A    
C72   N10   A    
C86   H60   S    
N5    N9    A    
C54   C59   A    
C77   C79   A    
N3    Ni2   S    
C15   C69   A    
N4    Ni1   S    
C59   C61   A    
C73   H37   S    
C48   H13   S    
C46   H34   S    
C51   C52   A    
C49   Br4   S    
C85   H57   S    
C75   H39   S    
C7    C73   A    
N16   Ni4   S    
C82   H48   S    
C86   H58   S    
C30   C82   S    
C15   H3    S    
N7    Ni4   S    
C5    C45   A    
C8    C35   S    
C64   C66   A    
C63   H29   S    
C9    C14   A    
C1    N1    A    
C16   C70   A    
N14   Ni3   S    
C44   H16   S    
C25   C38   S    
C43   H15   S    
C84   H52   S    
C32   H6    S    
C8    C74   A    
C84   H54   S    
C71   H35   S    
C68   N8    A    
C9    C11   A    
C56   H26   S    
C10   C12   A    
C16   C40   A    
N5    Ni3   S    
C44   C51   A    
C23   H17   S    
C12   C14   A    
C8    C68   A    
C55   C57   A    
C22   C26   A    
C1    C79   A    
C14   C69   S    
N7    N11   A    
C2    H2    S    
C20   C22   A    
C60   H21   S    
C41   C50   A    
C81   H45   S    
C20   C32   A    
N2    N16   A    
C57   H24   S    
N15   Ni3   S    
N6    N10   A    
C19   Br1   S    
C6    C46   A    
C35   C37   A    
C72   H36   S    
C59   H22   S    
N2    Ni2   S    
C73   N11   A    
C10   C13   A    
C40   H20   S    
C53   C58   A    
C26   C37   S    
N11   Ni1   S    
C2    N2    A    
C25   C27   A    
N1    N15   A    
C26   C28   A    
C33   C38   A    
C82   H47   S    
C5    C53   S    
C29   C31   A    
C82   H46   S    
C17   C63   A    
C36   C38   A    
C30   C32   A    
C11   C13   A    
C18   C64   A    
C66   C70   A    
C43   C47   A    
C45   N5    A    
C65   C69   A    
C74   N12   A    
C28   C30   A    
C33   C35   A    
C47   H14   S    
C56   C58   A    
C27   H9    S    
C78   C80   A    
C42   C47   A    
C61   C62   A    
C78   H42   S    
C34   H12   S    
C46   N6    A    
C4    C76   A    
C77   H41   S    
C11   C80   S    
C42   C49   A    
C7    C67   A    
C45   H33   S    
C55   C62   A    
C71   N9    A    
C5    C71   A    
C13   C70   S    
C83   H49   S    
C56   C61   A    
C28   H10   S    
C58   H23   S    
C66   H32   S    
N6    Ni4   S    
C54   C57   A    
C44   C48   A    
C29   C81   S    
C19   C21   A    
C33   H11   S    
