data_mof_unit_34351.cif
_audit_creation_date              2012-10-26T20:22:31-0400
_audit_creation_method            fapswitch 2.2
_symmetry_space_group_name_H-M    P1
_symmetry_Int_Tables_number       1
_space_group_crystal_system       triclinic
_cell_length_a                    9.507464
_cell_length_b                    10.834136
_cell_length_c                    17.214377
_cell_angle_alpha                 90.117598
_cell_angle_beta                  86.56018
_cell_angle_gamma                 90.001395
_cell_volume                      1769.97128933

loop_
_atom_site_label
_atom_site_type_symbol
_atom_type_description
_atom_site_fract_x
_atom_site_fract_y
_atom_site_fract_z
_atom_type_partial_charge
C1    C     C_R   0.500032 0.737962 0.500061 0.551235
C2    C     C_R   0.079992 0.427731 0.448914 0.008492
C3    C     C_R   0.068923 0.572261 0.551050 0.009176
C4    C     C_R   0.931077 0.427739 0.448950 0.009176
C5    C     C_R   0.482522 0.503669 0.650271 0.546621
C6    C     C_R   0.517478 0.496331 0.349729 0.546621
C7    C     C_R   0.476193 0.518035 0.735031 -0.003305
C8    C     C_R   0.523807 0.481964 0.264969 -0.003304
C9    C     C_R   0.599149 0.549270 0.771843 -0.112857
C10   C     C_R   0.400851 0.450728 0.228157 -0.112857
C11   C     C_R   0.596823 0.566634 0.852361 0.041149
C12   C     C_R   0.499968 0.262038 0.499939 0.551236
C13   C     C_R   0.403178 0.433365 0.147639 0.041149
C14   C     C_R   0.468896 0.545888 0.896739 0.045442
C15   C     C_R   0.531104 0.454111 0.103261 0.045443
C16   C     C_R   0.345189 0.519435 0.859669 -0.132161
C17   C     C_R   0.654810 0.480567 0.140331 -0.132161
C18   C     C_R   0.348509 0.505964 0.779210 -0.141459
C19   C     C_R   0.651490 0.494037 0.220790 -0.141459
C20   C     C_2   0.461926 0.541588 0.981698 -0.156512
C21   C     C_2   0.538073 0.458412 0.018302 -0.156512
C22   C     C_3   0.268683 0.391604 0.112116 -0.283643
C23   C     C_R   0.627768 0.936171 0.500541 -0.141280
C24   C     C_3   0.225976 0.262045 0.139352 -0.442403
C25   C     C_3   0.731318 0.608393 0.887884 -0.283644
C26   C     C_3   0.774028 0.737950 0.860647 -0.442404
C27   C     C_R   0.372231 0.063829 0.499459 -0.141280
C28   C     C_R   0.627761 0.063865 0.500433 -0.140655
C29   C     C_R   0.372239 0.936134 0.499567 -0.140656
C30   C     C_R   0.499990 0.128205 0.499918 0.019735
C31   C     C_R   0.500010 0.871795 0.500082 0.019735
C32   C     C_R   0.920008 0.572269 0.551086 0.008492
Cu1   Cu    Cu3+1 0.359340 0.499980 0.500000 0.932905
Cu2   Cu    Cu3+1 0.640660 0.500020 0.500000 0.932905
H1    H     H_    0.697658 0.561760 0.737749 0.122307
H2    H     H_    0.272343 0.111844 0.499013 0.127187
H3    H     H_    0.727647 0.111909 0.500783 0.127649
H4    H     H_    0.272353 0.888090 0.499217 0.127649
H5    H     H_    0.859390 0.630258 0.591911 0.100113
H6    H     H_    0.140610 0.369742 0.408089 0.100113
H7    H     H_    0.120694 0.630290 0.591837 0.105952
H8    H     H_    0.879306 0.369710 0.408163 0.105952
H9    H     H_    0.312347 0.195566 0.124240 0.160146
H10   H     H_    0.201100 0.260334 0.203182 0.141078
H11   H     H_    0.130612 0.232479 0.110052 0.134214
H12   H     H_    0.302343 0.438237 0.262251 0.122307
H13   H     H_    0.182507 0.457545 0.128827 0.128878
H14   H     H_    0.279188 0.388946 0.047733 0.154475
H15   H     H_    0.798908 0.739659 0.796817 0.141077
H16   H     H_    0.687657 0.804431 0.875757 0.160147
H17   H     H_    0.869391 0.767516 0.889948 0.134214
H18   H     H_    0.720812 0.611053 0.952267 0.154475
H19   H     H_    0.817492 0.542451 0.871174 0.128878
H20   H     H_    0.747976 0.516358 0.248152 0.125157
H21   H     H_    0.252024 0.483645 0.751848 0.125157
H22   H     H_    0.614958 0.401033 0.985869 0.125131
H23   H     H_    0.385041 0.598966 0.014131 0.125131
H24   H     H_    0.246689 0.504976 0.893459 0.100052
H25   H     H_    0.753311 0.495027 0.106541 0.100052
H26   H     H_    0.727657 0.888155 0.500987 0.127187
N1    N     N_R   0.147930 0.499970 0.499980 -0.223493
N2    N     N_R   0.852070 0.500030 0.500020 -0.223493
O1    O     O_R   0.381260 0.680340 0.500000 -0.506970
O2    O     O_R   0.618740 0.319660 0.500000 -0.506970
O3    O     O_R   0.618830 0.680370 0.500010 -0.508070
O4    O     O_R   0.381170 0.319630 0.499990 -0.508070
O5    O     O_R   0.367440 0.500000 0.613600 -0.505229
O6    O     O_R   0.632560 0.500000 0.386400 -0.505229
O7    O     O_R   0.605010 0.500030 0.613600 -0.509057
O8    O     O_R   0.394990 0.499970 0.386400 -0.509057

loop_
_geom_bond_atom_site_label_1
_geom_bond_atom_site_label_2
_ccdc_geom_bond_type
C29   H4    S    
C10   H12   S    
C21   H22   S    
C22   H14   S    
C2    H6    S    
C6    O8    A    
C4    N2    A    
C27   H2    S    
C27   C29   A    
C2    C4    A    
C2    N1    A    
C5    O5    A    
Cu1   O1    S    
C7    C18   A    
Cu1   O4    S    
C22   C24   S    
C6    O6    A    
Cu1   Cu2   S    
C20   H23   S    
C25   H18   S    
C32   N2    A    
C29   C31   A    
C16   C18   A    
C16   H24   S    
C23   C28   A    
C27   C30   A    
C9    C11   A    
Cu2   O7    S    
Cu1   O5    S    
C3    C32   A    
C15   C21   S    
C4    H8    S    
Cu1   O8    S    
C17   H25   S    
Cu1   N1    S    
C18   H21   S    
C24   H11   S    
C1    O1    A    
C19   H20   S    
C28   C30   A    
C17   C19   A    
C24   H10   S    
C25   H19   S    
C13   C22   S    
C22   H13   S    
C5    C7    S    
Cu2   O2    S    
C26   H16   S    
C13   C15   A    
C23   H26   S    
C12   O2    A    
C11   C14   A    
C14   C16   A    
C26   H15   S    
C8    C19   A    
C11   C25   S    
C3    N1    A    
C9    H1    S    
Cu2   N2    S    
C14   C20   S    
C1    C31   S    
C20   C21   D    
Cu2   O3    S    
C7    C9    A    
C32   H5    S    
Cu2   O6    S    
C15   C17   A    
C24   H9    S    
C3    H7    S    
C6    C8    S    
C12   C30   S    
C25   C26   S    
C26   H17   S    
C12   O4    A    
C1    O3    A    
C5    O7    A    
C8    C10   A    
C28   H3    S    
C10   C13   A    
C23   C31   A    
