data_mof_unit_41107.cif
_audit_creation_date              2012-12-11T16:53:50-0500
_audit_creation_method            fapswitch 2.2
_symmetry_space_group_name_H-M    P1
_symmetry_Int_Tables_number       1
_space_group_crystal_system       triclinic
_cell_length_a                    14.882214
_cell_length_b                    14.765019
_cell_length_c                    16.950769
_cell_angle_alpha                 109.154226
_cell_angle_beta                  106.107441
_cell_angle_gamma                 108.073568
_cell_volume                      3032.00320197

loop_
_atom_site_label
_atom_site_type_symbol
_atom_type_description
_atom_site_fract_x
_atom_site_fract_y
_atom_site_fract_z
_atom_type_partial_charge
C1    C     C_R   0.089506 0.274651 0.049762 -0.138899
C2    C     C_R   0.063430 0.548142 0.265269 -0.126285
C3    C     C_R   0.279572 0.784869 0.175641 -0.142741
C4    C     C_R   0.935095 0.521310 0.747769 -0.138288
C5    C     C_R   0.698319 0.406651 0.996829 -0.139374
C6    C     C_R   0.335961 0.781729 0.253856 0.068648
C7    C     C_R   0.639116 0.438593 0.943509 0.082761
C8    C     C_R   0.970647 0.533530 0.274843 0.060220
C9    C     C_R   0.990454 0.825459 0.029344 0.052879
C10   C     C_R   0.385346 0.447918 0.861866 0.140377
C11   C     C_R   0.345306 0.411799 0.917600 0.013423
C12   C     C_R   0.025562 0.583272 0.746282 0.070368
C13   C     C_R   0.378114 0.342367 0.944032 -0.204986
C14   C     C_R   0.468481 0.336753 0.939369 -0.204928
C15   C     C_R   0.526509 0.401853 0.909396 0.038372
C16   C     C_R   0.768772 0.200165 0.810334 -0.128508
C17   C     C_R   0.476393 0.444590 0.859629 0.142639
C18   C     C_3   0.515261 0.548766 0.856050 -0.555244
C19   C     C_3   0.414798 0.551960 0.856181 -0.184671
C20   C     C_R   0.960828 0.577813 0.361664 0.131300
C21   C     C_R   0.032467 0.625295 0.679548 0.130196
C22   C     C_R   0.136054 0.697191 0.607521 -0.225342
C23   C     C_R   0.753038 0.194740 0.723881 0.059721
C24   C     C_R   0.129996 0.681608 0.682798 -0.169031
C25   C     C_R   0.941091 0.597743 0.605339 -0.284630
C26   C     C_R   0.946588 0.607624 0.527839 0.191375
C27   C     C_R   0.044926 0.653277 0.527531 0.187735
C28   C     C_R   0.254181 0.530413 0.944925 -0.146356
C29   C     C_R   0.051005 0.642177 0.444747 -0.279308
C30   C     C_R   0.862605 0.544356 0.363877 -0.171539
C31   C     C_R   0.855557 0.560734 0.447088 -0.228431
C32   C     C_R   0.711769 0.098494 0.637000 0.131968
C33   C     C_R   0.444651 0.854839 0.319399 0.130464
C34   C     C_R   0.286891 0.457800 0.960608 0.069113
C35   C     C_R   0.587663 0.031794 0.392499 -0.225545
C36   C     C_R   0.496589 0.950733 0.317229 -0.177095
C37   C     C_R   0.492591 0.835365 0.391722 -0.282878
C38   C     C_R   0.579476 0.918276 0.469620 0.190773
C39   C     C_R   0.624278 0.018700 0.471418 0.188987
C40   C     C_R   0.779682 0.297932 0.734453 -0.129049
C41   C     C_R   0.694494 0.107423 0.554828 -0.279297
C42   C     C_R   0.677972 0.996701 0.633650 -0.172272
C43   C     C_R   0.613238 0.906341 0.549623 -0.228384
C44   C     C_R   0.100250 0.059746 0.977533 0.112247
C45   C     C_R   0.273778 0.689016 0.252536 -0.140789
C46   C     C_R   0.006667 0.068036 0.967368 0.060468
C47   C     C_R   0.913129 0.971956 0.911852 -0.209056
C48   C     C_R   0.914242 0.876675 0.858190 -0.188391
C49   C     C_R   0.008356 0.874776 0.859990 0.035988
C50   C     C_R   0.100702 0.964686 0.925687 0.091619
C51   C     C_3   0.196429 0.022469 0.916603 0.100180
C52   C     C_R   0.256492 0.439910 0.026995 -0.121399
C53   C     C_3   0.195478 0.126886 0.972782 -0.659964
C54   C     C_R   0.107338 0.605984 0.824504 -0.155808
C55   C     C_R   0.917149 0.191409 0.974070 -0.130724
C56   C     C_R   0.704421 0.500620 0.918376 -0.153157
C57   C     C_R   0.004644 0.173718 0.999310 0.066976
C58   C     C_R   0.889498 0.463429 0.187910 -0.134664
C59   C     C_R   0.079832 0.809035 0.046842 -0.123343
C60   C     C_R   0.907259 0.724449 0.970267 -0.114416
H1    H     H_    0.167990 0.291603 0.090408 0.099599
H2    H     H_    0.499120 0.293962 0.971378 0.121425
H3    H     H_    0.584457 0.613393 0.919940 0.185693
H4    H     H_    0.856193 0.501967 0.705463 0.083361
H5    H     H_    0.523046 0.539467 0.790781 0.195163
H6    H     H_    0.427588 0.621773 0.917205 0.138837
H7    H     H_    0.127171 0.673633 0.445077 0.118509
H8    H     H_    0.791203 0.498810 0.301411 0.114815
H9    H     H_    0.212076 0.734225 0.608761 0.125682
H10   H     H_    0.779408 0.527535 0.446775 0.124432
H11   H     H_    0.202052 0.707162 0.740182 0.111340
H12   H     H_    0.681800 0.523029 0.864175 0.100975
H13   H     H_    0.865108 0.558032 0.602705 0.114636
H14   H     H_    0.724934 0.184436 0.555466 0.118101
H15   H     H_    0.748913 0.133607 0.825588 0.085305
H16   H     H_    0.694979 0.986645 0.695633 0.114594
H17   H     H_    0.622672 0.108063 0.392532 0.125842
H18   H     H_    0.581339 0.829091 0.548704 0.124518
H19   H     H_    0.463598 0.966866 0.261004 0.112808
H20   H     H_    0.456608 0.760442 0.393097 0.115380
H21   H     H_    0.838257 0.971428 0.903464 0.120667
H22   H     H_    0.841510 0.806069 0.811018 0.125296
H23   H     H_    0.806939 0.434767 0.169225 0.094383
H24   H     H_    0.262264 0.177367 0.041837 0.184694
H25   H     H_    0.260929 0.561440 0.896925 0.097094
H26   H     H_    0.177890 0.170759 0.933008 0.203407
H27   H     H_    0.776176 0.325153 0.682492 0.094216
H28   H     H_    0.274576 0.392230 0.059107 0.086721
H29   H     H_    0.186965 0.665392 0.852842 0.086369
H30   H     H_    0.837509 0.133063 0.946016 0.081463
H31   H     H_    0.296746 0.652130 0.294889 0.086022
H32   H     H_    0.271514 0.514997 0.761254 0.109189
H33   H     H_    0.372315 0.614254 0.769066 0.112487
H34   H     H_    0.158994 0.870243 0.089834 0.096073
H35   H     H_    0.353154 0.065941 0.970290 0.103503
H36   H     H_    0.293343 0.019899 0.029343 0.095644
H37   H     H_    0.113752 0.010543 0.790240 0.120670
H38   H     H_    0.243046 0.058009 0.823193 0.116331
H39   H     H_    0.825794 0.706852 0.942090 0.096004
H40   H     H_    0.142014 0.597187 0.318033 0.094877
H41   H     H_    0.309011 0.836993 0.147227 0.084076
H42   H     H_    0.669910 0.344755 0.016620 0.083793
H43   H     H_    0.344626 0.304910 0.980489 0.131529
N1    N     N_R   0.055640 0.348550 0.045600 -0.039387
N2    N     N_R   0.811290 0.303400 0.871650 -0.038674
N3    N     N_R   0.205180 0.552990 0.997660 -0.038760
N4    N     N_R   0.814810 0.361830 0.823710 -0.040283
N5    N     N_R   0.201660 0.494570 0.045600 -0.038861
N6    N     N_R   0.068420 0.560530 0.871650 -0.036074
N7    N     N_R   0.948050 0.295860 0.997660 -0.038234
N8    N     N_R   0.185190 0.638170 0.176290 -0.038323
N9    N     N_3   0.348093 0.539055 0.767712 -0.194442
N10   N     N_3   0.285602 0.007321 0.962835 -0.210616
N11   N     N_3   0.178941 0.000629 0.821358 -0.199239
N12   N     N_R   0.798340 0.505430 0.954400 -0.038676
N13   N     N_R   0.931580 0.439470 0.128350 -0.040873
N14   N     N_R   0.051950 0.704140 0.002340 -0.040266
N15   N     N_R   0.944360 0.651450 0.954400 -0.042103
N16   N     N_R   0.039170 0.492150 0.176290 -0.041583
N17   N     N_R   0.188710 0.696600 0.128350 -0.037386
N18   N     N_R   0.794820 0.447010 0.002340 -0.038159
N19   N     N_R   0.960830 0.507850 0.823710 -0.037498
Ni1   Ni    Ni4+2 0.119330 0.493420 0.109950 0.211270
Ni2   Ni    Ni4+2 0.880670 0.506580 0.890050 0.207181
Ni3   Ni    Ni4+2 0.872590 0.372590 0.000000 0.211275
Ni4   Ni    Ni4+2 0.127410 0.627410 0.000000 0.210181

loop_
_geom_bond_atom_site_label_1
_geom_bond_atom_site_label_2
_ccdc_geom_bond_type
N12   N18   A    
C6    C45   A    
C27   C29   A    
C16   H15   S    
C35   C36   A    
C3    C6    A    
C39   C41   A    
N1    Ni1   S    
C20   C30   A    
C19   N9    S    
C43   H18   S    
N2    N4    A    
C26   C27   A    
C8    C20   S    
C53   H24   S    
C7    C56   A    
C40   H27   S    
C55   H30   S    
C30   C31   A    
N17   Ni4   S    
C18   H3    S    
H38   N11   S    
C10   C17   A    
C23   C40   A    
C14   H2    S    
C5    N18   A    
C33   C36   A    
C19   H6    S    
C18   C19   S    
C46   C47   A    
C8    C58   A    
C41   H14   S    
C29   H7    S    
C44   C53   S    
C31   H10   S    
C28   N3    A    
C56   H12   S    
C32   C41   A    
C60   N15   A    
C53   H26   S    
C59   H34   S    
C4    C12   A    
N14   Ni4   S    
C22   H9    S    
C3    H41   S    
C7    C15   S    
C2    H40   S    
C26   C31   A    
C59   N14   A    
C6    C33   S    
C13   C14   A    
C58   N13   A    
N4    Ni2   S    
C45   H31   S    
C44   C46   A    
C50   C51   S    
C20   C29   A    
C37   H20   S    
C51   N11   S    
N8    Ni1   S    
C52   H28   S    
C54   H29   S    
C3    N17   A    
C5    C7    A    
H32   N9    S    
N15   Ni2   S    
N7    Ni3   S    
C25   C26   A    
C12   C21   S    
C35   H17   S    
C33   C37   A    
C54   N6    A    
N8    N17   A    
C18   H5    S    
C35   C39   A    
N18   Ni3   S    
C37   C38   A    
C1    C57   A    
C47   C48   A    
C10   C19   S    
C17   C18   S    
C4    N19   A    
C51   N10   S    
C1    N1    A    
N3    Ni4   S    
C16   N2    A    
C40   N4    A    
C48   C49   A    
C16   C23   A    
C22   C27   A    
C55   C57   A    
C46   C57   S    
C22   C24   A    
H36   N10   S    
C13   H43   S    
C42   C43   A    
N5    Ni1   S    
N19   Ni2   S    
C44   C50   A    
C15   C17   A    
C21   C25   A    
C5    H42   S    
N12   Ni2   S    
C34   C52   A    
C11   C34   S    
C2    C8    A    
C36   H19   S    
C1    H1    S    
C60   H39   S    
C2    N16   A    
C45   N8    A    
N16   Ni1   S    
C4    H4    S    
C42   H16   S    
N13   N16   A    
N2    Ni3   S    
N13   Ni3   S    
C9    C60   A    
C23   C32   S    
C38   C43   A    
C55   N7    A    
N14   N15   A    
N1    N7    A    
C11   C13   A    
C38   C39   A    
N3    N5    A    
H35   N10   S    
C56   N12   A    
C48   H22   S    
C25   H13   S    
C47   H21   S    
N6    N19   A    
C12   C54   A    
C10   C11   A    
H33   N9    S    
C28   C34   A    
N6    Ni4   S    
C52   N5    A    
C49   C50   A    
C21   C24   A    
C28   H25   S    
C32   C42   A    
C14   C15   A    
C51   C53   S    
H37   N11   S    
C58   H23   S    
C9    C59   A    
C30   H8    S    
C24   H11   S    
