data_mof_unit_16777.cif
_audit_creation_date              2012-12-11T14:05:41-0500
_audit_creation_method            fapswitch 2.2
_symmetry_space_group_name_H-M    P1
_symmetry_Int_Tables_number       1
_space_group_crystal_system       triclinic
_cell_length_a                    17.874399
_cell_length_b                    17.643713
_cell_length_c                    17.67742
_cell_angle_alpha                 89.795252
_cell_angle_beta                  90.117803
_cell_angle_gamma                 88.906541
_cell_volume                      5573.87810371

loop_
_atom_site_label
_atom_site_type_symbol
_atom_type_description
_atom_site_fract_x
_atom_site_fract_y
_atom_site_fract_z
_atom_type_partial_charge
C1    C     C_R   0.715444 0.789020 0.191891 0.025339
C2    C     C_R   0.288569 0.805394 0.194899 -0.021645
C3    C     C_R   0.903736 0.816330 0.614802 0.422890
C4    C     C_R   0.095972 0.384178 0.815498 0.420533
C5    C     C_R   0.902799 0.617050 0.183792 0.426947
C6    C     C_R   0.097448 0.815994 0.617425 0.419199
C7    C     C_R   0.900598 0.184904 0.385582 0.421413
C8    C     C_R   0.818168 0.904106 0.617475 0.508901
C9    C     C_R   0.182413 0.098670 0.385227 0.497733
C10   C     C_R   0.626323 0.903359 0.177965 0.413603
C11   C     C_R   0.375574 0.098459 0.821153 0.495265
C12   C     C_R   0.167057 0.921378 0.357416 0.385650
C13   C     C_R   0.226811 0.330772 0.770177 -0.198969
C14   C     C_R   0.837391 0.075667 0.647173 0.452509
C15   C     C_R   0.369540 0.914366 0.822352 0.501636
C16   C     C_R   0.623412 0.089470 0.181357 0.503053
C17   C     C_R   0.179265 0.096562 0.622318 0.366998
C18   C     C_R   0.823882 0.905232 0.371155 0.471989
C19   C     C_R   0.375664 0.091737 0.179944 0.433785
C20   C     C_R   0.616854 0.903559 0.816885 0.508881
C21   C     C_R   0.815850 0.098161 0.385766 0.498247
C22   C     C_R   0.184435 0.900169 0.612770 0.496539
C23   C     C_R   0.616244 0.095739 0.817190 0.407625
C24   C     C_R   0.774183 0.671042 0.228643 -0.210305
C25   C     C_R   0.389719 0.900018 0.184290 0.545215
C26   C     C_2   0.637605 0.670377 0.205914 0.625094
C27   C     C_2   0.358917 0.334804 0.810401 0.664566
C28   C     C_2   0.331481 0.668386 0.205728 0.735750
C29   C     C_2   0.680714 0.320607 0.785660 0.635523
C30   C     C_2   0.226820 0.169852 0.056970 0.737838
C31   C     C_2   0.766233 0.819633 0.945353 0.582187
C32   C     C_2   0.799572 0.204725 0.098843 0.649995
C33   C     C_2   0.195758 0.793529 0.901272 0.695695
C34   C     C_2   0.210442 0.633698 0.664164 0.630580
C35   C     C_R   0.285341 0.806326 0.790331 0.078299
C36   C     C_2   0.806204 0.362789 0.338508 0.706650
C37   C     C_2   0.205500 0.337799 0.632388 0.644231
C38   C     C_2   0.811609 0.666115 0.362822 0.692902
C39   C     C_2   0.049887 0.195217 0.233795 0.501979
C40   C     C_2   0.942272 0.824559 0.774702 0.732445
C41   C     C_2   0.058431 0.763773 0.204159 0.507145
C42   C     C_2   0.949323 0.220833 0.825784 0.715896
C43   C     C_2   0.772945 0.047470 0.823703 0.709002
C44   C     C_2   0.229659 0.939673 0.183401 0.645103
C45   C     C_2   0.635290 0.208300 0.331533 0.675412
C46   C     C_R   0.711734 0.195036 0.211349 0.113144
C47   C     C_2   0.360193 0.810154 0.667086 0.673070
C48   C     C_2   0.320414 0.216565 0.326618 0.638749
C49   C     C_2   0.678334 0.788211 0.671601 0.740498
C50   C     C_2   0.195901 0.101579 0.795401 0.705687
C51   C     C_2   0.802264 0.900463 0.192886 0.660344
C52   C     C_R   0.837929 0.765281 0.842113 0.013435
C53   C     C_R   0.156869 0.233372 0.158964 0.184930
C54   C     C_R   0.195920 0.214330 0.706382 0.054566
C55   C     C_R   0.809929 0.789352 0.285044 0.118704
C56   C     C_R   0.167717 0.833386 0.243729 0.032532
C57   C     C_R   0.285282 0.211825 0.805809 0.135724
C58   C     C_R   0.845244 0.151188 0.768845 0.151852
C59   C     C_R   0.771355 0.228521 0.328860 -0.241910
C60   C     C_R   0.228457 0.771771 0.671787 -0.223196
C61   C     C_R   0.810928 0.806633 0.716855 -0.071950
C62   C     C_R   0.186207 0.199629 0.286531 -0.097764
C63   C     C_R   0.639395 0.830515 0.831492 -0.084405
C64   C     C_R   0.353452 0.165477 0.167244 -0.020849
C65   C     C_R   0.160737 0.646896 0.830710 -0.163345
C66   C     C_R   0.841549 0.348645 0.167361 -0.081433
C67   C     C_R   0.339858 0.164371 0.845896 0.002651
C68   C     C_R   0.194046 0.708812 0.199878 -0.029226
C69   C     C_R   0.658973 0.835300 0.154452 -0.173187
C70   C     C_R   0.838352 0.349079 0.836147 -0.063128
C71   C     C_R   0.168788 0.637237 0.169103 -0.079289
C72   C     C_R   0.655287 0.156877 0.165391 -0.096580
C73   C     C_R   0.339820 0.845978 0.837241 -0.114534
C74   C     C_R   0.133941 0.309412 0.133155 -0.147938
C75   C     C_R   0.864672 0.690218 0.866718 -0.161307
C76   C     C_R   0.361304 0.830157 0.167858 -0.133630
C77   C     C_R   0.646356 0.164150 0.833070 -0.211870
C78   C     C_R   0.828947 0.638882 0.171713 -0.090896
C79   C     C_R   0.816140 0.277044 0.805985 -0.017025
C80   C     C_R   0.171062 0.364435 0.825615 -0.090745
C81   C     C_R   0.869047 0.129601 0.692334 -0.114388
C82   C     C_R   0.139527 0.862826 0.315293 -0.165231
C83   C     C_R   0.847212 0.836461 0.340211 -0.012767
C84   C     C_R   0.160867 0.169602 0.646711 -0.166050
C85   C     C_R   0.165543 0.171484 0.361207 -0.186419
C86   C     C_R   0.834495 0.832464 0.642889 -0.124021
C87   C     C_R   0.171640 0.827298 0.638716 -0.098254
C88   C     C_R   0.827727 0.172074 0.361426 -0.097690
C89   C     C_R   0.710440 0.709202 0.200112 -0.003371
C90   C     C_R   0.280728 0.194975 0.189741 -0.019866
C91   C     C_R   0.288749 0.292235 0.801884 -0.000096
C92   C     C_R   0.271067 0.727402 0.199570 -0.063390
C93   C     C_R   0.739548 0.260526 0.797075 -0.085162
C94   C     C_R   0.223522 0.202061 0.134789 -0.263723
C95   C     C_R   0.769283 0.791579 0.866322 -0.025299
C96   C     C_R   0.770954 0.230672 0.174249 -0.195334
C97   C     C_R   0.226575 0.768716 0.826357 -0.227490
C98   C     C_R   0.202929 0.705564 0.707172 0.005344
C99   C     C_R   0.799638 0.292982 0.292815 0.042646
C100  C     C_R   0.200329 0.294816 0.704454 -0.030004
C101  C     C_R   0.713584 0.803686 0.810214 0.008144
C102  C     C_R   0.804890 0.708931 0.290822 -0.001579
C103  C     C_R   0.131535 0.209550 0.228458 -0.016383
C104  C     C_R   0.864116 0.796311 0.775776 -0.113146
C105  C     C_R   0.140665 0.766255 0.217464 -0.017044
C106  C     C_R   0.870336 0.218112 0.798490 -0.234954
C107  C     C_R   0.776911 0.127129 0.795581 -0.069707
C108  C     C_R   0.231829 0.859855 0.210811 -0.126936
C109  C     C_R   0.708007 0.200274 0.291511 -0.049839
C110  C     C_R   0.289494 0.803000 0.709971 0.016880
C111  C     C_R   0.262510 0.205174 0.267059 -0.083282
C112  C     C_R   0.802650 0.292073 0.212320 0.046819
C113  C     C_R   0.734150 0.799217 0.733241 -0.052538
C114  C     C_R   0.226124 0.175909 0.769240 -0.217223
C115  C     C_R   0.776659 0.825753 0.222949 -0.205644
C116  C     C_R   0.610450 0.814999 0.901209 0.489158
C117  C     C_R   0.386449 0.183846 0.099724 0.414164
C118  C     C_R   0.179509 0.620395 0.902454 0.369768
C119  C     C_R   0.819961 0.380976 0.099120 0.445646
C120  C     C_R   0.368192 0.177699 0.915120 0.402533
C121  C     C_R   0.629602 0.821009 0.086230 0.513731
C122  C     C_R   0.823125 0.372639 0.908718 0.418190
C123  C     C_R   0.196938 0.706733 0.787238 0.043812
C124  C     C_R   0.182431 0.616284 0.095909 0.493547
C125  C     C_R   0.626044 0.177794 0.094859 0.465798
C126  C     C_R   0.373275 0.822678 0.905124 0.526157
C127  C     C_R   0.163409 0.352616 0.075450 0.471328
C128  C     C_R   0.834444 0.645631 0.922558 0.401280
C129  C     C_R   0.383446 0.816842 0.095089 0.496868
C130  C     C_R   0.620039 0.181416 0.904411 0.501383
C131  C     C_R   0.815443 0.612444 0.098876 0.477093
C132  C     C_R   0.184799 0.390328 0.898448 0.563365
C133  C     C_R   0.921065 0.645654 0.834992 0.483935
C134  C     C_R   0.720370 0.183986 0.805743 -0.109677
C135  C     C_R   0.081134 0.356216 0.167053 0.423164
C136  C     C_R   0.923420 0.162504 0.647500 0.424280
C137  C     C_R   0.085479 0.830134 0.360279 0.480859
C138  C     C_R   0.910547 0.375361 0.181050 0.429207
C139  C     C_R   0.092709 0.617446 0.816055 0.590405
C140  C     C_R   0.914038 0.820938 0.371761 0.434443
C141  C     C_R   0.092622 0.184221 0.616243 0.601061
C142  C     C_R   0.099401 0.609268 0.184274 0.341644
C143  C     C_R   0.903810 0.383277 0.817340 0.444097
C144  C     C_R   0.095971 0.184847 0.389251 0.402201
H1    H     H_    0.636707 0.609705 0.216065 0.006860
H2    H     H_    0.811327 0.358575 0.399569 0.035067
H3    H     H_    0.206532 0.399290 0.633476 0.018653
H4    H     H_    0.816857 0.604731 0.361670 0.067483
H5    H     H_    0.016068 0.217116 0.279472 0.124375
H6    H     H_    0.958987 0.867718 0.734897 -0.033543
H7    H     H_    0.024410 0.720743 0.229673 0.142195
H8    H     H_    0.967077 0.263596 0.865263 -0.044528
H9    H     H_    0.733059 0.031627 0.866596 -0.000119
H10   H     H_    0.201165 0.983414 0.216015 0.034457
H11   H     H_    0.634354 0.214015 0.392625 -0.028763
H12   H     H_    0.356595 0.396150 0.814533 0.073757
H13   H     H_    0.358546 0.814954 0.605887 0.060545
H14   H     H_    0.304226 0.220961 0.385565 0.074429
H15   H     H_    0.695437 0.789896 0.612827 0.045920
H16   H     H_    0.151544 0.074449 0.764390 0.012325
H17   H     H_    0.768962 0.932187 0.151952 0.023989
H18   H     H_    0.603217 0.707584 0.883292 0.358832
H19   H     H_    0.465226 0.246900 0.065106 0.328929
H20   H     H_    0.285517 0.621791 0.886393 0.335809
H21   H     H_    0.747536 0.446209 0.050644 0.380976
H22   H     H_    0.419559 0.262257 0.951648 0.338324
H23   H     H_    0.389743 0.683795 0.201566 0.060399
H24   H     H_    0.572852 0.739512 0.050502 0.357395
H25   H     H_    0.735066 0.313462 0.928172 0.361119
H26   H     H_    0.249810 0.546727 0.048138 0.346751
H27   H     H_    0.647742 0.284184 0.102889 0.363091
H28   H     H_    0.364058 0.716253 0.886297 0.322047
H29   H     H_    0.267616 0.325130 0.083610 0.360098
H30   H     H_    0.743623 0.594065 0.940383 0.374124
H31   H     H_    0.448539 0.749141 0.041769 0.353676
H32   H     H_    0.552869 0.252282 0.951504 0.343038
H33   H     H_    0.714907 0.580040 0.118070 0.319984
H34   H     H_    0.622192 0.305685 0.782862 0.077032
H35   H     H_    0.246937 0.452893 0.959534 0.350482
H36   H     H_    0.899556 0.665964 0.730074 0.352901
H37   H     H_    0.082920 0.416794 0.256535 0.345662
H38   H     H_    0.901266 0.267239 0.668683 0.352791
H39   H     H_    0.086370 0.744081 0.426664 0.315845
H40   H     H_    0.961984 0.432605 0.254277 0.327810
H41   H     H_    0.040191 0.550478 0.750475 0.341853
H42   H     H_    0.964697 0.743957 0.427578 0.326536
H43   H     H_    0.035045 0.249807 0.551133 0.355745
H44   H     H_    0.113547 0.606809 0.292502 0.363226
H45   H     H_    0.268538 0.127398 0.041901 -0.005429
H46   H     H_    0.941745 0.457417 0.749208 0.350846
H47   H     H_    0.102660 0.293818 0.386785 0.372716
H48   H     H_    0.952213 0.748620 0.546735 0.344554
H49   H     H_    0.097937 0.400679 0.708026 0.330771
H50   H     H_    0.953266 0.553557 0.254162 0.352118
H51   H     H_    0.104519 0.709558 0.596984 0.313178
H52   H     H_    0.944521 0.251102 0.456764 0.348366
H53   H     H_    0.750552 0.958149 0.552340 0.313599
H54   H     H_    0.248588 0.044898 0.452850 0.359204
H55   H     H_    0.642740 0.885306 0.284482 0.371455
H56   H     H_    0.790233 0.785816 0.991026 0.063977
H57   H     H_    0.448660 0.073440 0.746342 0.332001
H58   H     H_    0.272368 0.906003 0.337832 0.351758
H59   H     H_    0.742196 0.071135 0.599859 0.319468
H60   H     H_    0.421771 0.954266 0.739315 0.327142
H61   H     H_    0.557398 0.045722 0.252949 0.353715
H62   H     H_    0.284378 0.101057 0.645309 0.372486
H63   H     H_    0.741630 0.940519 0.429515 0.353518
H64   H     H_    0.326727 0.075769 0.276188 0.359734
H65   H     H_    0.546572 0.950560 0.749651 0.333526
H66   H     H_    0.713438 0.113560 0.416129 0.305739
H67   H     H_    0.838034 0.238596 0.066493 -0.001464
H68   H     H_    0.247357 0.953351 0.544461 0.347690
H69   H     H_    0.628989 0.103326 0.709208 0.360173
H70   H     H_    0.459118 0.951153 0.248303 0.356079
H71   H     H_    0.152787 0.761486 0.929343 0.004108
H72   H     H_    0.213864 0.635389 0.602882 -0.022780
N1    N     N_R   0.584840 0.879720 0.932190 -0.099524
N2    N     N_R   0.415160 0.879720 0.932190 -0.107843
N3    N     N_R   0.120280 0.415160 0.067810 -0.123896
N4    N     N_R   0.879720 0.584840 0.932190 -0.124143
N5    N     N_R   0.415160 0.879720 0.067810 -0.132859
N6    N     N_R   0.584840 0.120280 0.932190 -0.134617
N7    N     N_R   0.879720 0.584840 0.067810 -0.118437
N8    N     N_R   0.120280 0.415160 0.932190 -0.147471
N9    N     N_R   0.932190 0.584840 0.879720 -0.128160
N10   N     N_R   0.067810 0.415160 0.120280 -0.134399
N11   N     N_R   0.932190 0.120280 0.584840 -0.130877
N12   N     N_R   0.415160 0.120280 0.067810 -0.149600
N13   N     N_R   0.067810 0.879720 0.415160 -0.141640
N14   N     N_R   0.932190 0.415160 0.120280 -0.153763
N15   N     N_R   0.067810 0.584840 0.879720 -0.161573
N16   N     N_R   0.932190 0.879720 0.415160 -0.149525
N17   N     N_R   0.067810 0.120280 0.584840 -0.154177
N18   N     N_R   0.067810 0.584840 0.120280 -0.106822
N19   N     N_R   0.932190 0.415160 0.879720 -0.147298
N20   N     N_R   0.067810 0.120280 0.415160 -0.114971
N21   N     N_R   0.932190 0.879720 0.584840 -0.142908
N22   N     N_R   0.067810 0.415160 0.879720 -0.129350
N23   N     N_R   0.120280 0.584840 0.932190 -0.120103
N24   N     N_R   0.932190 0.584840 0.120280 -0.139236
N25   N     N_R   0.067810 0.879720 0.584840 -0.121700
N26   N     N_R   0.932190 0.120280 0.415160 -0.134492
N27   N     N_R   0.879720 0.932190 0.584840 -0.149279
N28   N     N_R   0.120280 0.067810 0.415160 -0.133630
N29   N     N_R   0.584840 0.932190 0.120280 -0.119983
N30   N     N_R   0.415160 0.067810 0.879720 -0.139181
N31   N     N_R   0.120280 0.932190 0.415160 -0.109730
N32   N     N_R   0.879720 0.067810 0.584840 -0.147594
N33   N     N_R   0.415160 0.932190 0.879720 -0.153076
N34   N     N_R   0.879720 0.415160 0.067810 -0.132275
N35   N     N_R   0.584840 0.067810 0.120280 -0.149906
N36   N     N_R   0.120280 0.067810 0.584840 -0.115270
N37   N     N_R   0.879720 0.932190 0.415160 -0.129646
N38   N     N_R   0.415160 0.067810 0.120280 -0.112345
N39   N     N_R   0.584840 0.932190 0.879720 -0.147178
N40   N     N_R   0.879720 0.067810 0.415160 -0.110832
N41   N     N_R   0.120280 0.932190 0.584840 -0.140016
N42   N     N_R   0.584840 0.067810 0.879720 -0.118550
N43   N     N_R   0.415160 0.932190 0.120280 -0.119723
N44   N     N_R   0.415160 0.120280 0.932190 -0.145636
N45   N     N_R   0.584840 0.879720 0.067810 -0.137566
N46   N     N_R   0.879720 0.415160 0.932190 -0.116059
N47   N     N_R   0.120280 0.584840 0.067810 -0.144188
N48   N     N_R   0.584840 0.120280 0.067810 -0.119391
Ni1   Ni    Ni4+2 0.500000 0.880920 0.000000 0.262511
Ni2   Ni    Ni4+2 0.119080 1.000000 0.500000 0.225816
Ni3   Ni    Ni4+2 0.500000 1.000000 0.119080 0.246140
Ni4   Ni    Ni4+2 0.500000 1.000000 0.880920 0.213293
Ni5   Ni    Ni4+2 0.500000 0.119080 0.000000 0.207297
Ni6   Ni    Ni4+2 0.119080 0.500000 0.000000 0.223634
Ni7   Ni    Ni4+2 0.880920 0.500000 0.000000 0.234669
Ni8   Ni    Ni4+2 0.000000 0.500000 0.880920 0.215334
Ni9   Ni    Ni4+2 0.000000 0.500000 0.119080 0.204954
Ni10  Ni    Ni4+2 0.000000 0.119080 0.500000 0.223789
Ni11  Ni    Ni4+2 1.000000 0.880920 0.500000 0.186285
Ni12  Ni    Ni4+2 0.880920 1.000000 0.500000 0.195047
O1    O     O_2   0.578101 0.705466 0.203636 -0.579056
O2    O     O_2   0.801549 0.425590 0.309418 -0.596296
O3    O     O_2   0.213023 0.305628 0.571755 -0.546671
O4    O     O_2   0.807234 0.698014 0.423884 -0.586139
O5    O     O_2   0.018313 0.161459 0.183087 -0.560931
O6    O     O_2   0.988308 0.802749 0.821496 -0.592276
O7    O     O_2   0.027198 0.813744 0.167228 -0.542046
O8    O     O_2   0.995291 0.172391 0.806965 -0.579514
O9    O     O_2   0.817408 0.998874 0.801934 -0.584008
O10   O     O_2   0.253552 0.956178 0.120968 -0.584906
O11   O     O_2   0.576108 0.213377 0.297084 -0.520534
O12   O     O_2   0.420037 0.302801 0.808095 -0.604103
O13   O     O_2   0.420974 0.806046 0.698642 -0.565990
O14   O     O_2   0.386297 0.223890 0.310610 -0.516249
O15   O     O_2   0.613461 0.772906 0.685522 -0.529583
O16   O     O_2   0.216301 0.072020 0.854686 -0.557007
O17   O     O_2   0.863321 0.925348 0.209783 -0.551985
O18   O     O_3   0.581725 0.745469 0.918919 -0.706004
O19   O     O_3   0.416010 0.254452 0.089947 -0.664224
O20   O     O_3   0.251241 0.611491 0.928918 -0.697814
O21   O     O_3   0.746789 0.402553 0.086012 -0.679080
O22   O     O_3   0.366628 0.247212 0.948893 -0.682921
O23   O     O_2   0.317305 0.602456 0.220036 -0.547183
O24   O     O_3   0.626691 0.749802 0.056395 -0.677242
O25   O     O_3   0.762740 0.354532 0.952355 -0.711015
O26   O     O_3   0.253438 0.596451 0.073484 -0.632053
O27   O     O_3   0.623875 0.250118 0.066011 -0.711405
O28   O     O_3   0.381597 0.748689 0.927917 -0.687787
O29   O     O_3   0.233118 0.344507 0.043962 -0.689806
O30   O     O_3   0.759778 0.647523 0.940213 -0.702447
O31   O     O_3   0.402256 0.744967 0.071913 -0.685972
O32   O     O_3   0.600116 0.254595 0.922476 -0.702495
O33   O     O_3   0.746898 0.589282 0.073747 -0.720713
O34   O     O_2   0.696822 0.386916 0.776351 -0.548517
O35   O     O_3   0.254343 0.415242 0.918777 -0.701150
O36   O     O_3   0.942677 0.647592 0.760617 -0.690258
O37   O     O_3   0.078981 0.362142 0.244471 -0.730006
O38   O     O_3   0.945001 0.236494 0.651954 -0.695810
O39   O     O_3   0.086567 0.752931 0.371199 -0.738866
O40   O     O_3   0.938522 0.382596 0.252598 -0.670498
O41   O     O_3   0.072496 0.595148 0.744629 -0.654403
O42   O     O_3   0.944443 0.749407 0.376024 -0.684827
O43   O     O_3   0.070379 0.255772 0.593768 -0.649736
O44   O     O_3   0.076785 0.587869 0.255282 -0.730163
O45   O     O_2   0.180097 0.187883 0.009344 -0.536722
O46   O     O_3   0.916841 0.407900 0.744923 -0.651437
O47   O     O_3   0.067336 0.255578 0.405965 -0.708339
O48   O     O_3   0.922538 0.743985 0.593323 -0.651265
O49   O     O_3   0.060168 0.391281 0.747239 -0.700776
O50   O     O_3   0.929672 0.604375 0.255246 -0.697219
O51   O     O_3   0.065113 0.746726 0.610888 -0.703063
O52   O     O_3   0.921993 0.256129 0.405754 -0.700943
O53   O     O_3   0.746524 0.924450 0.596830 -0.701347
O54   O     O_3   0.253478 0.080827 0.410115 -0.707657
O55   O     O_3   0.617128 0.923825 0.252244 -0.685280
O56   O     O_2   0.743170 0.883634 0.959196 -0.628698
O57   O     O_3   0.395703 0.091172 0.746640 -0.712857
O58   O     O_3   0.239113 0.946941 0.357124 -0.729947
O59   O     O_3   0.762871 0.059477 0.650755 -0.703005
O60   O     O_3   0.368675 0.947250 0.752332 -0.673637
O61   O     O_3   0.608568 0.066456 0.253764 -0.652470
O62   O     O_3   0.249434 0.063710 0.624175 -0.684007
O63   O     O_3   0.749798 0.925338 0.376469 -0.688472
O64   O     O_3   0.359654 0.047320 0.241430 -0.718867
O65   O     O_3   0.595435 0.923760 0.745028 -0.631424
O66   O     O_3   0.747278 0.070363 0.404648 -0.722968
O67   O     O_2   0.784454 0.142377 0.073960 -0.586745
O68   O     O_3   0.254363 0.920963 0.589820 -0.696158
O69   O     O_3   0.607224 0.067181 0.745779 -0.711184
O70   O     O_3   0.418455 0.914317 0.254900 -0.678766
O71   O     O_2   0.213931 0.853095 0.930347 -0.545373
O72   O     O_2   0.217247 0.572492 0.696167 -0.579286

loop_
_geom_bond_atom_site_label_1
_geom_bond_atom_site_label_2
_ccdc_geom_bond_type
C118  N23   A    
C49   C113  S    
N48   Ni5   S    
C80   C132  A    
C135  N10   A    
C101  C113  A    
H44   O44   S    
C52   C75   S    
C18   O63   S    
C14   O59   S    
C41   C105  S    
C20   N39   A    
C90   C111  A    
N33   Ni4   S    
C133  N9    A    
C60   C98   A    
C45   C109  S    
N39   Ni4   S    
C73   C126  A    
C75   C128  A    
C30   H45   S    
N44   Ni5   S    
C27   O12   D    
N31   Ni2   S    
N47   Ni6   S    
C52   C104  A    
H28   O28   S    
C65   C118  A    
C6    N25   A    
C57   C91   A    
C67   C120  A    
C28   O23   D    
C46   C72   S    
H66   O66   S    
C13   C91   A    
N16   Ni11  S    
C85   C144  A    
C8    O53   S    
C68   C92   A    
C22   N41   A    
C34   O72   D    
C30   O45   D    
C128  O30   S    
C61   C104  A    
C119  N34   A    
C122  N46   A    
C15   N33   A    
C50   H16   S    
C120  N44   A    
C48   H14   S    
C50   C114  S    
N7    Ni7   S    
C7    C88   A    
C75   C133  A    
C40   H6    S    
C22   C87   A    
C23   C77   A    
C42   C106  S    
C38   H4    S    
C124  O26   S    
C15   C73   A    
N19   N46   A    
H18   O18   S    
N14   Ni9   S    
C29   O34   D    
H46   O46   S    
C55   C83   S    
C47   O13   D    
N35   Ni3   S    
C81   C136  A    
C27   H12   S    
C70   C79   S    
C143  O46   S    
N16   N37   A    
C137  O39   S    
C45   O11   D    
C41   H7    S    
C22   O68   S    
C12   N31   A    
C17   N36   A    
C72   C125  A    
H52   O52   S    
C25   C76   A    
C44   H10   S    
C142  O44   S    
C30   C94   S    
C21   N40   A    
C129  O31   S    
N17   Ni10  S    
C54   C114  A    
C125  N48   A    
C2    C108  A    
C59   C109  A    
C36   C99   S    
C8    C86   A    
N5    Ni1   S    
C65   C139  A    
C10   C69   A    
C46   C96   A    
C141  N17   A    
N40   Ni12  S    
C139  N15   A    
C1    C115  A    
C14   C81   A    
N8    N22   A    
C126  N2    A    
N17   N36   A    
C139  O41   S    
H41   O41   S    
C5    N24   A    
H43   O43   S    
C79   C93   A    
N42   Ni4   S    
C33   H71   S    
C131  O33   S    
C40   O6    D    
C70   C143  A    
H50   O50   S    
C117  O19   S    
H33   O33   S    
C118  O20   S    
C4    C80   A    
C107  C134  A    
H35   O35   S    
H21   O21   S    
C19   O64   S    
H32   O32   S    
C121  O24   S    
N24   Ni9   S    
C58   C107  A    
H25   O25   S    
C56   C108  A    
C9    C85   A    
H27   O27   S    
C135  O37   S    
H65   O65   S    
C62   C111  A    
C27   C91   S    
N10   Ni9   S    
C128  N4    A    
C133  O36   S    
C24   C102  A    
H64   O64   S    
N46   Ni7   S    
C21   C88   A    
C35   C97   A    
N29   Ni3   S    
N34   Ni7   S    
N30   Ni4   S    
H48   O48   S    
C138  N14   A    
C60   C110  A    
C32   H67   S    
C79   C106  A    
N22   Ni8   S    
N9    Ni8   S    
H53   O53   S    
C70   C122  A    
C74   C127  A    
C66   C138  A    
N15   Ni8   S    
C36   O2    D    
N36   Ni2   S    
C66   C119  A    
C68   C105  A    
C47   H13   S    
H37   O37   S    
C53   C94   A    
N37   Ni12  S    
C12   O58   S    
H19   O19   S    
C56   C82   S    
C39   H5    S    
H61   O61   S    
C17   C84   A    
C20   C63   A    
C5    C78   A    
C97   C123  A    
C144  O47   S    
C34   H72   S    
N3    N10   A    
C48   O14   D    
N13   N31   A    
H68   O68   S    
C126  O28   S    
C77   C134  S    
C4    N22   A    
C49   H15   S    
C131  N7    A    
C32   O67   D    
C37   C100  S    
C95   C101  A    
C117  N12   A    
C15   O60   S    
C16   C72   A    
C64   C90   S    
C54   C84   S    
C127  N3    A    
H63   O63   S    
C55   C102  A    
C116  O18   S    
N18   Ni9   S    
H24   O24   S    
N26   N40   A    
C52   C95   A    
C31   H56   S    
H69   O69   S    
N6    Ni5   S    
C23   N42   A    
H42   O42   S    
C90   C94   A    
C13   C80   S    
N29   N45   A    
C24   C89   A    
C3    C86   A    
N21   Ni11  S    
C119  O21   S    
C16   N35   A    
H22   O22   S    
N38   Ni3   S    
N21   N27   A    
C130  N6    A    
C137  N13   A    
H26   O26   S    
C58   C81   S    
C144  N20   A    
N11   N32   A    
C124  N47   A    
C136  O38   S    
N19   Ni8   S    
C51   C115  S    
C64   C117  A    
N45   Ni1   S    
C19   C64   A    
C74   C135  A    
C18   C83   A    
C10   N29   A    
C43   C107  S    
C25   O70   S    
C35   C110  A    
C37   O3    D    
C63   C116  A    
C24   C78   S    
C136  N11   A    
C140  N16   A    
N1    Ni1   S    
C29   H34   S    
N2    N33   A    
H47   O47   S    
C50   O16   D    
H20   O20   S    
C25   N43   A    
C2    C76   S    
C17   O62   S    
N13   Ni11  S    
H31   O31   S    
C11   O57   S    
N23   Ni6   S    
C132  N8    A    
C11   N30   A    
N41   Ni2   S    
H40   O40   S    
C42   O8    D    
C23   O69   S    
C39   C103  S    
H29   O29   S    
C44   O10   D    
C8    N27   A    
N12   Ni5   S    
N25   Ni11  S    
C29   C93   S    
C55   C115  A    
C84   C141  A    
C53   C103  A    
C68   C71   S    
C31   C95   S    
C7    N26   A    
C4    O49   S    
C34   C98   S    
C51   H17   S    
N28   Ni2   S    
C77   C130  A    
C65   C123  S    
C6    O51   S    
C1    C69   S    
C56   C105  A    
N43   Ni3   S    
C61   C86   S    
C83   C140  A    
H38   O38   S    
C46   C109  A    
C33   C97   S    
C116  N1    A    
C43   H9    S    
C26   O1    D    
C5    O50   S    
C122  O25   S    
C59   C99   A    
C10   O55   S    
H30   O30   S    
C63   C101  S    
C20   O65   S    
C26   C89   S    
H55   O55   S    
C96   C112  A    
N25   N41   A    
H49   O49   S    
N11   Ni10  S    
N32   Ni12  S    
C82   C137  A    
H51   O51   S    
N7    N24   A    
H58   O58   S    
C9    O54   S    
C127  O29   S    
N2    Ni1   S    
N15   N23   A    
N1    N39   A    
C143  N19   A    
N4    Ni7   S    
C21   O66   S    
H57   O57   S    
C28   H23   S    
C121  N45   A    
C59   C88   S    
H36   O36   S    
C45   H11   S    
H39   O39   S    
C42   H8    S    
N35   N48   A    
C132  O35   S    
C54   C100  A    
C31   O56   D    
H59   O59   S    
C57   C67   S    
C16   O61   S    
C60   C87   S    
C11   C67   A    
C14   N32   A    
C44   C108  S    
C18   N37   A    
C98   C123  A    
C62   C85   S    
C71   C124  A    
N26   Ni10  S    
C129  N5    A    
C93   C134  A    
C37   H3    S    
C6    C87   A    
C58   C106  A    
C125  O27   S    
H54   O54   S    
C26   H1    S    
C78   C131  A    
C40   C104  S    
C76   C129  A    
C19   N38   A    
C3    O48   S    
C69   C121  A    
C12   C82   A    
C28   C92   S    
C2    C92   A    
C120  O22   S    
N6    N42   A    
C3    N21   A    
C71   C142  A    
N12   N38   A    
C36   H2    S    
N18   N47   A    
C32   C96   S    
C33   O71   D    
C61   C113  A    
C49   O15   D    
C62   C103  A    
H70   O70   S    
C38   O4    D    
C35   C73   S    
C1    C89   A    
C41   O7    D    
C138  O40   S    
C57   C114  A    
C47   C110  S    
C140  O42   S    
H62   O62   S    
C141  O43   S    
N3    Ni6   S    
N20   N28   A    
C13   C100  A    
C38   C102  S    
N14   N34   A    
C130  O32   S    
C39   O5    D    
C99   C112  A    
N4    N9    A    
N20   Ni10  S    
C51   O17   D    
N8    Ni6   S    
H60   O60   S    
C142  N18   A    
C48   C111  S    
C7    O52   S    
C66   C112  S    
N5    N43   A    
C9    N28   A    
N27   Ni12  S    
N30   N44   A    
C43   O9    D    
C53   C74   S    
