data_mof_unit_29048.cif
_audit_creation_date              2013-03-05T16:21:36-0500
_audit_creation_method            fapswitch 2.2
_symmetry_space_group_name_H-M    P1
_symmetry_Int_Tables_number       1
_space_group_crystal_system       triclinic
_cell_length_a                    11.034358
_cell_length_b                    15.074781
_cell_length_c                    13.984925
_cell_angle_alpha                 88.723037
_cell_angle_beta                  102.100354
_cell_angle_gamma                 92.15493
_cell_volume                      2272.71933184

loop_
_atom_site_label
_atom_site_type_symbol
_atom_site_description
_atom_site_fract_x
_atom_site_fract_y
_atom_site_fract_z
_atom_type_partial_charge
O1    O     O_R   0.500010 0.371450 0.581440 -0.600342
O2    O     O_R   0.499990 0.628550 0.418560 -0.598071
O3    O     O_R   0.500010 0.371460 0.418560 -0.564368
O4    O     O_R   0.499990 0.628540 0.581440 -0.588287
C1    C     C_R   0.501326 0.330195 0.500889 0.788932
C2    C     C_R   0.502306 0.670112 0.499597 0.792134
O5    O     O_R   0.320690 0.500000 0.551510 -0.611417
O6    O     O_R   0.679310 0.500000 0.448490 -0.622166
O7    O     O_R   0.320690 0.500010 0.388630 -0.551036
O8    O     O_R   0.679310 0.499990 0.611370 -0.525221
C3    C     C_R   0.263209 0.496884 0.460312 0.754727
C4    C     C_R   0.737021 0.501173 0.539890 0.744861
Cu1   Cu    Cu3+1 0.500000 0.499990 0.596430 0.961385
Cu2   Cu    Cu3+1 0.500000 0.500010 0.403570 0.953994
H1    H     H_    0.886846 0.444132 0.436080 0.184642
H2    H     H_    0.115305 0.542622 0.568699 0.203584
C5    C     C_2   0.128841 0.484230 0.437603 0.164427
C6    C     C_2   0.872145 0.508951 0.563910 0.175158
C7    C     C_2   0.066228 0.506304 0.505311 -0.232289
C8    C     C_2   0.935196 0.482137 0.498345 -0.241564
C9    C     C_R   0.438722 0.089267 0.546856 -0.185695
C10   C     C_R   0.482566 0.908036 0.415099 -0.193765
H3    H     H_    0.375545 0.048813 0.580647 0.135217
H4    H     H_    0.450768 0.944895 0.347661 0.137846
C11   C     C_R   0.432751 0.180824 0.548711 -0.209994
C12   C     C_R   0.476353 0.815957 0.413215 -0.203251
H5    H     H_    0.365406 0.209568 0.583566 0.145990
H6    H     H_    0.441760 0.783112 0.344268 0.151116
C13   C     C_R   0.509722 0.234140 0.502470 -0.036046
C14   C     C_R   0.510901 0.767045 0.500083 -0.054418
C15   C     C_R   0.592517 0.195522 0.453607 -0.205046
C16   C     C_R   0.553783 0.811010 0.588684 -0.195370
H7    H     H_    0.650955 0.237927 0.417185 0.141563
H8    H     H_    0.581491 0.772808 0.655733 0.141676
C17   C     C_R   0.601731 0.103162 0.452443 0.100681
C18   C     C_R   0.561994 0.903706 0.591990 0.101729
C19   C     C_R   0.524467 0.049719 0.501443 0.080038
C20   C     C_R   0.526435 0.952558 0.503248 0.077499
C21   C     C_R   0.585647 0.536512 0.114681 -0.298365
C22   C     C_R   0.454177 0.435835 0.892442 -0.300516
H9    H     H_    0.665272 0.555471 0.083943 0.143001
H10   H     H_    0.431695 0.377780 0.933185 0.136615
C23   C     C_R   0.595939 0.535806 0.216888 0.270309
C24   C     C_R   0.456473 0.429006 0.792407 0.294602
N1    N     N_R   0.500000 0.500020 0.258690 -0.191043
N2    N     N_R   0.500000 0.499980 0.741310 -0.183719
C25   C     C_R   0.392951 0.472235 0.196321 0.025944
C26   C     C_R   0.532083 0.577799 0.790886 0.041149
H11   H     H_    0.317175 0.445416 0.227028 0.182461
H12   H     H_    0.566374 0.633617 0.753669 0.138282
C27   C     C_R   0.375913 0.480914 0.092484 -0.005760
C28   C     C_R   0.517520 0.589117 0.888969 -0.001005
C29   C     C_R   0.476124 0.513772 0.050290 0.076793
C30   C     C_R   0.477870 0.515304 0.941681 0.081816
C31   C     C_3   0.248544 0.457874 0.031292 -0.419177
C32   C     C_3   0.183805 0.540946 0.983741 -0.354997
C33   C     C_3   0.045813 0.521459 0.944324 -0.695705
H13   H     H_    0.032231 0.464319 0.893999 0.280956
H14   H     H_    0.998374 0.505636 0.005587 0.240290
H15   H     H_    0.003106 0.580626 0.904038 0.269439
H16   H     H_    0.193749 0.594697 0.038326 0.216768
H17   H     H_    0.226999 0.564637 0.922450 0.237154
H18   H     H_    0.253860 0.409104 0.974441 0.200206
H19   H     H_    0.189661 0.425035 0.078219 0.219376
C34   C     C_3   0.542130 0.681066 0.932517 -0.419256
C35   C     C_3   0.423481 0.720341 0.951851 -0.330692
C36   C     C_3   0.447269 0.815526 0.987783 -0.852012
H20   H     H_    0.518480 0.817492 0.056946 0.253989
H21   H     H_    0.479398 0.858459 0.931770 0.250583
H22   H     H_    0.360108 0.841975 0.001727 0.243145
H23   H     H_    0.350790 0.719852 0.883454 0.225082
H24   H     H_    0.388553 0.680184 0.008444 0.222065
H25   H     H_    0.614083 0.679828 0.000769 0.202610
H26   H     H_    0.579909 0.726769 0.881540 0.186536
N3    N     N_R   0.933146 0.548175 0.655216 0.126500
O9    O     O_R   0.882977 0.613469 0.690352 -0.385473
O10   O     O_R   0.027108 0.509886 0.710350 -0.411841
N4    N     N_R   0.069450 0.442990 0.347246 0.125002
O11   O     O_R   0.119946 0.375890 0.315745 -0.386396
O12   O     O_R   0.979242 0.481914 0.288490 -0.412009
C37   C     C_3   0.692361 0.065156 0.397298 -0.414116
C38   C     C_3   0.804782 0.025736 0.466232 -0.358844
C39   C     C_3   0.902973 0.000388 0.410377 -0.822548
H27   H     H_    0.862774 0.953030 0.351550 0.251772
H28   H     H_    0.940138 0.060468 0.377391 0.260900
H29   H     H_    0.980647 0.968488 0.461329 0.243524
H30   H     H_    0.846995 0.075075 0.522507 0.219439
H31   H     H_    0.775483 0.965262 0.503236 0.228009
H32   H     H_    0.645077 0.014323 0.345052 0.195262
H33   H     H_    0.726425 0.118228 0.351956 0.205469
C40   C     C_3   0.605336 0.946989 0.691098 -0.418660
C41   C     C_3   0.733241 0.993495 0.701468 -0.348137
C42   C     C_3   0.780167 0.028122 0.804802 -0.831541
H34   H     H_    0.714813 0.076268 0.822854 0.254381
H35   H     H_    0.790116 0.972343 0.858840 0.252599
H36   H     H_    0.872194 0.062242 0.809748 0.242937
H37   H     H_    0.800710 0.946196 0.684899 0.223514
H38   H     H_    0.727970 0.050747 0.649850 0.225965
H39   H     H_    0.536645 0.994615 0.704112 0.195778
H40   H     H_    0.610813 0.896020 0.750519 0.193028
C43   C     C_3   0.717803 0.577109 0.272535 -0.328309
C44   C     C_3   0.704413 0.666827 0.319259 -0.303610
C45   C     C_3   0.809608 0.733238 0.310305 -0.885050
H41   H     H_    0.900664 0.705215 0.344056 0.275927
H42   H     H_    0.807304 0.749976 0.232190 0.252644
H43   H     H_    0.798520 0.795009 0.348901 0.250115
H44   H     H_    0.615158 0.696890 0.284295 0.220613
H45   H     H_    0.708260 0.657018 0.398412 0.244962
H46   H     H_    0.770203 0.529431 0.323318 0.226409
H47   H     H_    0.782390 0.589025 0.221926 0.201969
C46   C     C_3   0.401068 0.341421 0.748150 -0.388178
C47   C     C_3   0.272370 0.351813 0.680395 -0.268298
C48   C     C_3   0.177762 0.280371 0.699175 -0.872975
H48   H     H_    0.211205 0.213190 0.689802 0.242182
H49   H     H_    0.161450 0.285968 0.774524 0.261038
H50   H     H_    0.088423 0.289270 0.646477 0.261722
H51   H     H_    0.234606 0.417391 0.690879 0.259667
H52   H     H_    0.279857 0.347061 0.603023 0.224566
H53   H     H_    0.467239 0.304874 0.716599 0.197622
H54   H     H_    0.388937 0.293593 0.807445 0.166696

loop_
_geom_bond_atom_site_label_1
_geom_bond_atom_site_label_2
_geom_bond_distance
_ccdc_geom_bond_type
C14   C16   1.402027 A    
C31   C32   1.533550 S    
C6    N3    1.441027 S    
C7    C8    1.461369 S    
O7    Cu2   1.945530 S    
C37   C38   1.532926 S    
C17   C37   1.519612 S    
C41   H38   1.108051 S    
C25   H11   1.079064 S    
C21   C29   1.383930 A    
C29   C30   1.522700 S    
O5    C3    1.300929 A    
C42   H34   1.111032 S    
O1    C1    1.301830 A    
C16   C18   1.398069 A    
C17   C19   1.419216 A    
C47   H51   1.111519 S    
N4    O12   1.299926 A    
C33   H14   1.111072 S    
C43   H46   1.091610 S    
C38   H30   1.111708 S    
C10   C20   1.402406 A    
C34   H25   1.106514 S    
C32   C33   1.526528 S    
C46   H53   1.098864 S    
O4    Cu1   1.944520 S    
N3    O10   1.301016 A    
C41   C42   1.525956 S    
C35   H24   1.109217 S    
C39   H27   1.110228 S    
C28   C30   1.426543 A    
C31   H18   1.106756 S    
C15   H7    1.084473 S    
C44   H45   1.105652 S    
C40   H40   1.112903 S    
C22   C24   1.410639 A    
C27   C31   1.516738 S    
C48   H50   1.110808 S    
C37   H32   1.108307 S    
C22   H10   1.082968 S    
C35   C36   1.526052 S    
C42   H35   1.110877 S    
Cu1   Cu2   2.697127 S    
O2    C2    1.302254 A    
C47   C48   1.528542 S    
C24   N2    1.398996 A    
C41   H37   1.111729 S    
Cu2   N1    2.026131 S    
C1    C13   1.453811 S    
N1    C25   1.370623 A    
C11   C13   1.393307 A    
H1    C8    1.084250 S    
N2    C26   1.372695 A    
C36   H20   1.111186 S    
C43   C44   1.540424 S    
O4    C2    1.297119 A    
C40   C41   1.532561 S    
N4    O11   1.301100 A    
C33   H15   1.110366 S    
C25   C27   1.428341 A    
C43   H47   1.112343 S    
C38   C39   1.526218 S    
C34   H26   1.112564 S    
C46   H54   1.112654 S    
C27   C29   1.426740 A    
C16   H8    1.083204 S    
N3    O9    1.301280 A    
C23   C43   1.523611 S    
C19   C20   1.465224 S    
C23   N1    1.398537 A    
C35   H23   1.112014 S    
C26   C28   1.428761 A    
O6    C4    1.303293 A    
C31   H19   1.112665 S    
C44   H44   1.111872 S    
C45   H42   1.110978 S    
O7    C3    1.292930 A    
C32   H17   1.110974 S    
O3    Cu2   1.944519 S    
O8    C4    1.292430 A    
C37   H33   1.112724 S    
C18   C40   1.521327 S    
C2    C14   1.460827 S    
C12   C14   1.397104 A    
C42   H36   1.110559 S    
C22   C30   1.383988 A    
C9    H3    1.083740 S    
C10   H4    1.083453 S    
O1    Cu1   1.953666 S    
C48   H48   1.110542 S    
C9    C11   1.385321 A    
C3    C5    1.455879 S    
O6    Cu2   1.946353 S    
C46   C47   1.544355 S    
C39   H28   1.110856 S    
O3    C1    1.294048 A    
O8    Cu1   1.945528 S    
C21   C23   1.409768 A    
C11   H5    1.078449 S    
C12   H6    1.083201 S    
C36   H22   1.110381 S    
C40   H39   1.107994 S    
C18   C20   1.418919 A    
C13   C15   1.399990 A    
C47   H52   1.106421 S    
C33   H13   1.110335 S    
Cu1   N2    2.026131 S    
H2    C7    1.084860 S    
C38   H31   1.109215 S    
C15   C17   1.400522 A    
C26   H12   1.077590 S    
C5    N4    1.438722 S    
C5    C7    1.338017 D    
C45   H43   1.109987 S    
C6    C8    1.339136 D    
C44   C45   1.527503 S    
O2    Cu2   1.953665 S    
C24   C46   1.522236 S    
O5    Cu1   1.946356 S    
C39   H29   1.110521 S    
C9    C19   1.401849 A    
C21   H9    1.082779 S    
C34   C35   1.533474 S    
C10   C12   1.387761 A    
C4    C6    1.458879 S    
C45   H41   1.111297 S    
C32   H16   1.112251 S    
C36   H21   1.111198 S    
C28   C34   1.518524 S    
C48   H49   1.111088 S    
