data_mof_unit_68020.cif
_audit_creation_date              2013-03-05T15:40:30-0500
_audit_creation_method            fapswitch 2.2
_symmetry_space_group_name_H-M    P1
_symmetry_Int_Tables_number       1
_space_group_crystal_system       triclinic
_cell_length_a                    7.349167
_cell_length_b                    11.966484
_cell_length_c                    18.731807
_cell_angle_alpha                 90.0
_cell_angle_beta                  94.229634
_cell_angle_gamma                 89.999982
_cell_volume                      1642.85761431

loop_
_atom_site_label
_atom_site_type_symbol
_atom_site_description
_atom_site_fract_x
_atom_site_fract_y
_atom_site_fract_z
_atom_type_partial_charge
O1    O     O_R   0.330540 0.606360 0.598870 -0.568584
O2    O     O_R   0.669460 0.106360 0.401130 -0.568584
O3    O     O_R   0.026770 0.620470 0.750430 -0.522470
O4    O     O_R   0.973230 0.120470 0.249570 -0.522470
O5    O     O_R   0.856460 0.393640 0.750930 -0.510689
O6    O     O_R   0.143540 0.893640 0.249070 -0.510686
C1    C     C_R   0.199031 0.633909 0.779254 0.910201
C2    C     C_R   0.800969 0.133909 0.220746 0.910203
O7    O     O_R   0.000920 0.620350 0.599420 -0.500835
O8    O     O_R   0.999080 0.120350 0.400580 -0.500835
O9    O     O_R   0.830430 0.393520 0.598850 -0.523319
O10   O     O_R   0.169570 0.893520 0.401150 -0.523318
C3    C     C_R   0.166542 0.646755 0.575190 0.709522
C4    C     C_R   0.833457 0.146755 0.424810 0.709523
O11   O     O_R   0.356570 0.606480 0.750960 -0.499034
O12   O     O_R   0.643430 0.106480 0.249040 -0.499033
O13   O     O_3   0.176990 0.425580 0.674890 -0.353426
O14   O     O_3   0.823010 0.925580 0.325110 -0.353428
V1    V     V_3+5 0.902170 0.513810 0.674910 1.832639
V2    V     V_3+5 0.097830 0.013810 0.325090 1.832640
O15   O     O_R   0.500800 0.379530 0.599380 -0.512806
O16   O     O_R   0.499200 0.879530 0.400620 -0.512808
C5    C     C_R   0.666987 0.354404 0.574264 0.834231
C6    C     C_R   0.333013 0.854404 0.425736 0.834229
O17   O     O_R   0.526650 0.379650 0.750390 -0.506985
O18   O     O_R   0.473350 0.879650 0.249610 -0.506997
C7    C     C_R   0.697948 0.352952 0.772096 0.835503
C8    C     C_R   0.302052 0.852952 0.227904 0.835496
V3    V     V_3+5 0.402160 0.486190 0.674900 1.798179
V4    V     V_3+5 0.597840 0.986190 0.325100 1.798171
O19   O     O_3   0.677210 0.574420 0.674910 -0.395139
O20   O     O_3   0.322790 0.074420 0.325090 -0.395138
C9    C     C_R   0.694976 0.066497 0.852316 0.434356
C10   C     C_R   0.305023 0.566497 0.147684 0.434361
C11   C     C_R   0.707259 0.259898 0.823165 -0.220131
C12   C     C_R   0.292742 0.759898 0.176834 -0.220137
C13   C     C_R   0.784332 0.317975 0.175034 0.348909
C14   C     C_R   0.215667 0.817975 0.824966 0.348912
C15   C     C_R   0.765081 0.397636 0.121001 0.361073
C16   C     C_R   0.234919 0.897636 0.878999 0.361073
C17   C     C_R   0.733204 0.367866 0.047392 0.375196
C18   C     C_R   0.266796 0.867866 0.952608 0.375195
C19   C     C_R   0.735563 0.247104 0.025497 0.041909
C20   C     C_R   0.264436 0.747104 0.974503 0.041909
C21   C     C_R   0.755717 0.163171 0.081526 -0.154890
C22   C     C_R   0.244283 0.663172 0.918474 -0.154890
C23   C     C_R   0.722485 0.206978 0.950970 0.066086
C24   C     C_R   0.277514 0.706978 0.049030 0.066086
C25   C     C_R   0.722890 0.091548 0.929532 -0.156973
C26   C     C_R   0.277110 0.591548 0.070468 -0.156973
C27   C     C_R   0.755264 0.009529 0.984566 0.463046
C28   C     C_R   0.244736 0.509529 0.015434 0.463045
C29   C     C_R   0.757486 0.044198 0.059476 0.440244
C30   C     C_R   0.242514 0.544198 0.940524 0.440243
C31   C     C_R   0.732813 0.282118 0.895307 0.003076
C32   C     C_R   0.267187 0.782118 0.104693 0.003082
C33   C     C_R   0.673331 0.152072 0.800828 0.289551
C34   C     C_R   0.326670 0.652072 0.199172 0.289535
C35   C     C_R   0.778975 0.203652 0.156365 -0.241597
C36   C     C_R   0.221025 0.703652 0.843634 -0.241598
H1    H     H_    0.782847 0.358692 0.907307 0.258476
H2    H     H_    0.217153 0.858692 0.092693 0.258475
C37   C     C_2   0.831738 0.235984 0.482525 0.231878
C38   C     C_2   0.168262 0.735984 0.517475 0.231878
C39   C     C_2   0.675160 0.268363 0.514431 -0.318672
C40   C     C_2   0.324840 0.768363 0.485569 -0.318671
H3    H     H_    0.547003 0.228228 0.497091 0.171031
H4    H     H_    0.452996 0.728228 0.502909 0.171032
S1    S     S_3+6 0.618614 0.125206 0.706846 0.140389
O21   O     O_2   0.778752 0.161226 0.667097 -0.310061
O22   O     O_2   0.578329 0.005349 0.688711 -0.208234
O23   O     O_3   0.433797 0.198671 0.676923 -0.465820
H5    H     H_    0.342598 0.185902 0.712353 0.385866
S2    S     S_3+6 0.381389 0.625205 0.293154 0.140400
O24   O     O_2   0.221253 0.661229 0.332904 -0.310064
O25   O     O_2   0.421669 0.505349 0.311289 -0.208226
O26   O     O_3   0.566210 0.698668 0.323076 -0.465806
H6    H     H_    0.657388 0.685923 0.287635 0.385850
S3    S     S_3+6 0.798334 0.861804 0.962113 0.100513
O27   O     O_2   0.621209 0.801002 0.951952 -0.295154
O28   O     O_2   0.896920 0.839853 0.897521 -0.343446
O29   O     O_3   0.928738 0.793361 0.023589 -0.470891
H7    H     H_    0.890332 0.714893 0.019867 0.428823
S4    S     S_3+6 0.201665 0.361804 0.037887 0.100513
O30   O     O_2   0.378790 0.301002 0.048048 -0.295155
O31   O     O_2   0.103079 0.339853 0.102479 -0.343446
O32   O     O_3   0.071261 0.293361 0.976410 -0.470891
H8    H     H_    0.109668 0.214893 0.980133 0.428823
N1    N     N_R   0.705550 0.958438 0.821799 0.210484
O33   O     O_R   0.569960 0.889668 0.821434 -0.320045
O34   O     O_R   0.833990 0.938499 0.779481 -0.247154
N2    N     N_R   0.294449 0.458438 0.178201 0.210484
O35   O     O_R   0.430038 0.389668 0.178566 -0.320045
O36   O     O_R   0.166008 0.438499 0.220518 -0.247155
S5    S     S_3+6 0.809214 0.361520 0.269599 0.170417
O37   O     O_2   0.977459 0.311210 0.306936 -0.288462
O38   O     O_2   0.822998 0.485032 0.282416 -0.215235
O39   O     O_3   0.627698 0.313925 0.309947 -0.465352
H9    H     H_    0.643511 0.343187 0.359452 0.363293
S6    S     S_3+6 0.190784 0.861520 0.730401 0.170411
O40   O     O_2   0.022539 0.811210 0.693064 -0.288461
O41   O     O_2   0.176998 0.985031 0.717584 -0.215249
O42   O     O_3   0.372301 0.813926 0.690052 -0.465352
H10   H     H_    0.356487 0.843188 0.640548 0.363293
S7    S     S_3+6 0.694971 0.493555 0.991590 0.009191
O43   O     O_2   0.574492 0.479265 0.925236 -0.359237
O44   O     O_2   0.620676 0.590024 0.030690 -0.317750
O45   O     O_3   0.891832 0.536632 0.964099 -0.524077
H11   H     H_    0.859536 0.586749 0.922932 0.378013
S8    S     S_3+6 0.305028 0.993555 0.008409 0.009191
O46   O     O_2   0.425508 0.979265 0.074763 -0.359237
O47   O     O_2   0.379324 0.090024 0.969310 -0.317750
O48   O     O_3   0.108168 0.036632 0.035900 -0.524077
H12   H     H_    0.140464 0.086749 0.077067 0.378013
N3    N     N_R   0.795815 0.511913 0.141575 0.176460
O49   O     O_R   0.932840 0.566647 0.119741 -0.370772
O50   O     O_R   0.672331 0.567031 0.172463 -0.381510
N4    N     N_R   0.204184 0.011913 0.858424 0.176460
O51   O     O_R   0.067159 0.066647 0.880258 -0.370772
O52   O     O_R   0.327668 0.067031 0.827536 -0.381510
S9    S     S_3+6 0.774784 0.928424 0.121278 0.062294
O53   O     O_2   0.968891 0.905143 0.134425 -0.359976
O54   O     O_2   0.714538 0.941351 0.192071 -0.344501
O55   O     O_3   0.659100 0.813748 0.093298 -0.423897
H13   H     H_    0.695747 0.756211 0.129288 0.416219
S10   S     S_3+6 0.225216 0.428424 0.878721 0.062296
O56   O     O_2   0.031109 0.405143 0.865575 -0.359977
O57   O     O_2   0.285462 0.441351 0.807929 -0.344499
O58   O     O_3   0.340900 0.313748 0.906702 -0.423896
H14   H     H_    0.304252 0.256211 0.870712 0.416222
N5    N     N_R   0.002619 0.290129 0.501701 0.126307
O59   O     O_R   0.140542 0.231798 0.528538 -0.334794
O60   O     O_R   0.029530 0.391717 0.480045 -0.341440
N6    N     N_R   0.997380 0.790130 0.498299 0.126308
O61   O     O_R   0.859458 0.731799 0.471463 -0.334790
O62   O     O_R   0.970471 0.891718 0.519955 -0.341441

loop_
_geom_bond_atom_site_label_1
_geom_bond_atom_site_label_2
_geom_bond_distance
_ccdc_geom_bond_type
C16   N4    1.434141 S    
O32   H8    0.981492 S    
C37   C39   1.390299 D    
S10   O56   1.456509 D    
O13   V3    1.806765 S    
C40   H4    1.085402 S    
S5    O37   1.500948 D    
S4    O32   1.659090 S    
O4    C2    1.348798 A    
V1    O19   1.805364 S    
C25   C27   1.430548 A    
S5    O39   1.680435 S    
C23   C25   1.438545 A    
O26   H6    0.989254 S    
S7    O44   1.492030 D    
O9    V1    2.066173 S    
S2    O25   1.498435 D    
O16   C6    1.374103 A    
S4    O31   1.478906 D    
O58   H14   0.987065 S    
O3    C1    1.348799 A    
C2    C35   1.465677 S    
C9    C25   1.476563 A    
N3    O49   1.292716 A    
O39   H9    0.990012 S    
O45   H11   0.991797 S    
C13   S5    1.842552 S    
S1    O22   1.498435 D    
O9    C5    1.338812 A    
C28   S4    1.849770 S    
O7    C3    1.367070 A    
S8    O46   1.481810 D    
N2    O35   1.291982 A    
S9    O55   1.677770 S    
O5    C7    1.348873 A    
O7    V1    2.074375 S    
O6    C8    1.348874 A    
C20   C22   1.452331 A    
N3    O50   1.292594 A    
S2    O26   1.679158 S    
C26   C28   1.430548 A    
O3    V1    2.068249 S    
O14   V4    1.806765 S    
C37   N5    1.435070 S    
N1    O34   1.298716 A    
C6    C40   1.526359 S    
C16   C18   1.426642 A    
C21   C29   1.482720 A    
C2    O12   1.348927 A    
N4    O51   1.292716 A    
C17   C19   1.502621 A    
O10   V2    2.066171 S    
C18   C20   1.502620 A    
S6    O41   1.499598 D    
C28   C30   1.462176 A    
O11   V3    2.069921 S    
S8    O47   1.492030 D    
O17   V3    2.066681 S    
S7    O45   1.653453 S    
C38   N6    1.435070 S    
C10   C26   1.476561 A    
S2    O24   1.501502 D    
C11   C31   1.376460 A    
V4    O20   2.280499 S    
S4    O30   1.491156 D    
C14   S6    1.842551 S    
O8    C4    1.367069 A    
O8    V2    2.074374 S    
S3    O28   1.478907 D    
N6    O62   1.301267 A    
C1    O11   1.348929 A    
S10   O58   1.677771 S    
C39   H3    1.085402 S    
O15   V3    2.075330 S    
S6    O42   1.680435 S    
C27   C29   1.462176 A    
C38   C40   1.390300 D    
S1    O23   1.679156 S    
C12   C32   1.376461 A    
C9    N1    1.418247 S    
C30   S10   1.803883 S    
C22   C30   1.482721 A    
N2    O36   1.298716 A    
S10   O57   1.437020 D    
C19   C21   1.452330 A    
S8    O48   1.653452 S    
C8    C12   1.466316 S    
S9    O53   1.456509 D    
C13   C35   1.411862 A    
C17   S7    1.841300 S    
C14   C36   1.411863 A    
N4    O52   1.292593 A    
O18   V4    2.066681 S    
C15   N3    1.434138 S    
O15   C5    1.374104 A    
C32   H2    1.006579 S    
O1    C3    1.343195 A    
N5    O59   1.300845 A    
C1    C36   1.465678 S    
C34   S2    1.805500 S    
C23   C31   1.383152 A    
O48   H12   0.991798 S    
V2    O20   1.805365 S    
C24   C32   1.383152 A    
C21   C35   1.481151 A    
C9    C33   1.407659 A    
O16   V4    2.075333 S    
C22   C36   1.481149 A    
O18   C8    1.332932 A    
O23   H5    0.989262 S    
N5    O60   1.301267 A    
S3    O29   1.659089 S    
S5    O38   1.499598 D    
N6    O61   1.300845 A    
O5    V1    2.068585 S    
O17   C7    1.332933 A    
O6    V2    2.068585 S    
S7    O43   1.481810 D    
O10   C6    1.338812 A    
C12   C34   1.373589 A    
O2    V4    2.064617 S    
C11   C33   1.373589 A    
C7    C11   1.466316 S    
C5    C39   1.526362 S    
C18   S8    1.841300 S    
V3    O19   2.280500 S    
C29   S9    1.803883 S    
C14   C16   1.389973 A    
O1    V3    2.064615 S    
C3    C38   1.520215 S    
C19   C23   1.472710 A    
C4    C37   1.520213 S    
C31   H1    1.006579 S    
C24   C26   1.438545 A    
S6    O40   1.500948 D    
O13   V1    2.279037 S    
O14   V2    2.279038 S    
S1    O21   1.501502 D    
O2    C4    1.343196 A    
C27   S3    1.849769 S    
S9    O54   1.437022 D    
S3    O27   1.491156 D    
O4    V2    2.068251 S    
C15   C17   1.426642 A    
C13   C15   1.389975 A    
O29   H7    0.981491 S    
O42   H10   0.990012 S    
C10   C34   1.407660 A    
C33   S1    1.805499 S    
N1    O33   1.291983 A    
O12   V4    2.069922 S    
C20   C24   1.472712 A    
O55   H13   0.987065 S    
C10   N2    1.418248 S    
