data_mof_unit_56315.cif
_audit_creation_date              2012-12-11T15:09:46-0500
_audit_creation_method            fapswitch 2.2
_symmetry_space_group_name_H-M    P1
_symmetry_Int_Tables_number       1
_space_group_crystal_system       triclinic
_cell_length_a                    21.111375
_cell_length_b                    7.172164
_cell_length_c                    13.923604
_cell_angle_alpha                 89.995944
_cell_angle_beta                  98.582654
_cell_angle_gamma                 89.99565
_cell_volume                      2084.62314636

loop_
_atom_site_label
_atom_site_type_symbol
_atom_type_description
_atom_site_fract_x
_atom_site_fract_y
_atom_site_fract_z
_atom_type_partial_charge
O1    O     O_R   0.447130 0.507140 0.597350 -0.549012
O2    O     O_R   0.552870 0.007140 0.402650 -0.549079
O3    O     O_R   0.578910 0.181280 0.586990 -0.531793
O4    O     O_R   0.421090 0.681280 0.413010 -0.531783
C1    C     C_R   0.604409 0.344413 0.607318 0.764823
C2    C     C_R   0.395598 0.844431 0.392665 0.764752
O5    O     O_R   0.449230 0.177860 0.608640 -0.543019
O6    O     O_R   0.550770 0.677860 0.391360 -0.543030
O7    O     O_R   0.422260 0.000770 0.424450 -0.537615
O8    O     O_R   0.577740 0.500770 0.575550 -0.537579
C3    C     C_R   0.433476 0.345994 0.635241 0.833091
C4    C     C_R   0.566528 0.846001 0.364763 0.833090
O9    O     O_3   0.491310 0.336980 0.439550 -0.384613
O10   O     O_3   0.508690 0.836980 0.560450 -0.384592
V1    V     V_3+5 0.501610 0.064760 0.511210 1.478386
V2    V     V_3+5 0.498390 0.564760 0.488790 1.478429
C5    C     C_R   0.617826 0.786252 0.118919 -0.251693
C6    C     C_R   0.382163 0.285735 0.881037 -0.251973
H1    H     H_    0.696595 0.785102 0.992992 0.162372
H2    H     H_    0.303399 0.284316 0.006957 0.162420
H3    H     H_    0.597200 0.750216 0.045129 0.126405
H4    H     H_    0.402779 0.249438 0.954800 0.126493
C7    C     C_R   0.604580 0.851614 0.284716 -0.163629
C8    C     C_R   0.395429 0.351563 0.715295 -0.163382
C9    C     C_R   0.916476 0.873881 0.300849 -0.240548
C10   C     C_R   0.083537 0.374841 0.699205 -0.240124
C11   C     C_R   0.880355 0.871371 0.376035 0.444174
C12   C     C_R   0.119642 0.372619 0.624006 0.443997
C13   C     C_R   0.813963 0.870581 0.354838 -0.232664
C14   C     C_R   0.186034 0.371363 0.645177 -0.233377
C15   C     C_R   0.781240 0.869201 0.258004 0.011065
C16   C     C_R   0.218767 0.369369 0.742008 0.011380
C17   C     C_R   0.818807 0.861042 0.180111 -0.016693
C18   C     C_R   0.181202 0.360961 0.819901 -0.016603
C19   C     C_R   0.712377 0.863299 0.236914 0.015488
C20   C     C_R   0.287630 0.363316 0.763093 0.015700
C21   C     C_R   0.683777 0.818540 0.141281 0.054864
C22   C     C_R   0.316219 0.318190 0.858693 0.054684
C23   C     C_R   0.720435 0.809207 0.066598 -0.142348
C24   C     C_R   0.279560 0.308665 0.933369 -0.142240
C25   C     C_R   0.786243 0.840905 0.082803 -0.056258
C26   C     C_R   0.213761 0.340524 0.917194 -0.056197
C27   C     C_R   0.670201 0.897039 0.306501 0.302095
C28   C     C_R   0.329819 0.397172 0.693535 0.301938
C29   C     C_R   0.577975 0.796916 0.189883 -0.064507
C30   C     C_R   0.422019 0.296554 0.810089 -0.064572
C31   C     C_R   0.887241 0.865327 0.204185 -0.124322
C32   C     C_R   0.112771 0.365470 0.795840 -0.124423
H5    H     H_    0.968033 0.879803 0.318203 0.114418
H6    H     H_    0.031985 0.381282 0.681885 0.114532
H7    H     H_    0.790022 0.856820 0.417138 0.199001
H8    H     H_    0.209959 0.357989 0.582843 0.198931
C33   C     C_1   0.166357 0.857012 0.168803 -0.126825
C34   C     C_1   0.833673 0.357045 0.831112 -0.127039
C35   C     C_1   0.218738 0.854647 0.220026 0.048834
C36   C     C_1   0.781302 0.354659 0.779866 0.049573
C37   C     C_1   0.280544 0.853178 0.280007 0.023084
C38   C     C_1   0.719487 0.353152 0.719907 0.023106
C39   C     C_1   0.333016 0.850890 0.330981 -0.152685
C40   C     C_1   0.667004 0.350848 0.668967 -0.152908
O11   O     O_R   0.922300 0.202240 0.924350 -0.547311
O12   O     O_R   0.077700 0.702240 0.075650 -0.547357
O13   O     O_R   0.050780 0.535130 0.891350 -0.550305
O14   O     O_R   0.949220 0.035130 0.108650 -0.550349
C41   C     C_R   0.069148 0.368908 0.867964 0.676261
C42   C     C_R   0.930864 0.868891 0.132057 0.676270
O15   O     O_R   0.921100 0.531560 0.912990 -0.515338
O16   O     O_R   0.078900 0.031560 0.087010 -0.515393
O17   O     O_R   0.947120 0.708470 0.097370 -0.533042
O18   O     O_R   0.052880 0.208470 0.902630 -0.533062
C43   C     C_R   0.896068 0.363592 0.893249 0.716018
C44   C     C_R   0.103942 0.863580 0.106721 0.716209
O19   O     O_3   0.008710 0.375800 0.060400 -0.376642
O20   O     O_3   0.991290 0.875800 0.939600 -0.376579
V3    V     V_3+5 0.998380 0.648080 0.988790 1.452746
V4    V     V_3+5 0.001620 0.148080 0.011210 1.452567
C45   C     C_2   0.508848 0.755149 0.159837 0.349275
H9    H     H_    0.493067 0.691673 0.089532 0.054545
O21   O     O_2   0.468560 0.794538 0.210852 -0.546170
C46   C     C_2   0.491137 0.254596 0.840110 0.349377
H10   H     H_    0.506901 0.190800 0.910349 0.054486
O22   O     O_2   0.531441 0.294190 0.789153 -0.546157
O23   O     O_3   0.691883 0.970524 0.397241 -0.594770
C47   C     C_3   0.682129 0.165439 0.395521 0.113616
H11   H     H_    0.677681 0.210249 0.470379 0.128590
H12   H     H_    0.637114 0.208997 0.348307 0.123927
C48   C     C_3   0.739204 0.265999 0.364348 -0.357060
H13   H     H_    0.783090 0.237898 0.417101 0.215334
H14   H     H_    0.746891 0.218219 0.291305 0.210967
C49   C     C_3   0.726995 0.473170 0.357621 -0.842639
H15   H     H_    0.681791 0.502223 0.308141 0.241323
H16   H     H_    0.767131 0.535156 0.326451 0.241035
H17   H     H_    0.724568 0.533546 0.430467 0.237159
O24   O     O_3   0.308176 0.470947 0.602841 -0.594820
C50   C     C_3   0.317940 0.665856 0.604723 0.113651
H18   H     H_    0.322716 0.710782 0.529996 0.128429
H19   H     H_    0.362809 0.709358 0.652335 0.123757
C51   C     C_3   0.260649 0.766324 0.635293 -0.356597
H20   H     H_    0.216990 0.738674 0.581987 0.215472
H21   H     H_    0.252527 0.718110 0.708058 0.211220
C52   C     C_3   0.272885 0.973417 0.642542 -0.842838
H22   H     H_    0.317692 0.002056 0.693010 0.241449
H23   H     H_    0.232347 0.035380 0.672735 0.241194
H24   H     H_    0.276113 0.034124 0.570017 0.236998
O25   O     O_3   0.909580 0.883879 0.471683 -0.580925
C53   C     C_3   0.931811 0.706143 0.506016 0.064437
H25   H     H_    0.967058 0.728648 0.572669 0.160965
H26   H     H_    0.957886 0.631458 0.453507 0.123857
C54   C     C_3   0.876578 0.585950 0.532109 -0.342632
H27   H     H_    0.845670 0.670524 0.573388 0.217662
H28   H     H_    0.847441 0.536777 0.464214 0.193232
C55   C     C_3   0.900470 0.415688 0.592263 -0.791761
H29   H     H_    0.934500 0.334278 0.555203 0.240559
H30   H     H_    0.859219 0.324834 0.601529 0.236624
H31   H     H_    0.924042 0.460028 0.665295 0.215980
O26   O     O_3   0.090363 0.386047 0.528430 -0.581118
C56   C     C_3   0.068536 0.208362 0.493483 0.062874
H32   H     H_    0.032415 0.231159 0.427870 0.160539
H33   H     H_    0.043604 0.130762 0.546378 0.123514
C57   C     C_3   0.123802 0.091716 0.464782 -0.339943
H34   H     H_    0.153220 0.178538 0.422145 0.217842
H35   H     H_    0.154430 0.043554 0.531566 0.193089
C58   C     C_3   0.099979 0.920689 0.405209 -0.793525
H36   H     H_    0.067032 0.837555 0.443494 0.240630
H37   H     H_    0.141397 0.831666 0.394505 0.236031
H38   H     H_    0.075200 0.964399 0.332761 0.216261
C59   C     C_2   0.816816 0.856974 0.994041 0.368312
H39   H     H_    0.851005 0.965945 0.987436 0.068448
O27   O     O_2   0.801254 0.753791 0.924781 -0.531480
C60   C     C_2   0.183202 0.356597 0.005975 0.368290
H40   H     H_    0.149006 0.465564 0.012590 0.068346
O28   O     O_2   0.198788 0.253439 0.075247 -0.531560

loop_
_geom_bond_atom_site_label_1
_geom_bond_atom_site_label_2
_ccdc_geom_bond_type
C14   C16   A    
C48   H13   S    
O13   C41   A    
C52   H22   S    
C7    C29   A    
C11   C13   A    
C27   O23   S    
C25   C59   S    
C50   H18   S    
C18   C26   A    
C47   C48   S    
O2    C4    A    
C2    O7    A    
C55   H30   S    
C50   C51   S    
C58   H36   S    
C23   C25   A    
C45   H9    S    
O15   V3    S    
O5    C3    A    
C4    C7    S    
O20   V4    S    
C16   C20   A    
C19   C21   A    
C5    C29   A    
C10   H6    S    
H2    C24   S    
C58   H37   S    
C42   O17   A    
C53   H25   S    
C11   O25   S    
C38   C40   T    
C41   O18   A    
C3    C8    S    
C7    C27   A    
O26   C56   S    
O6    V2    S    
C12   O26   S    
C54   H28   S    
C48   C49   S    
C34   C43   S    
O1    C3    A    
C15   C17   A    
C32   C41   S    
C19   C27   A    
C9    C31   A    
C31   C42   S    
C57   C58   S    
C10   C32   A    
O11   C43   A    
C24   C26   A    
C52   H23   S    
C22   C24   A    
O19   V3    S    
C6    C30   A    
C55   H29   S    
C57   H35   S    
C33   C35   T    
O11   V4    S    
C34   C36   T    
O20   V3    S    
C28   O24   S    
C47   H11   S    
C46   O22   D    
C56   C57   S    
C58   H38   S    
O5    V1    S    
C5    H3    S    
C54   C55   S    
C16   C18   A    
O4    V2    S    
C60   O28   D    
C59   O27   D    
C49   H16   S    
O23   C47   S    
O16   C44   A    
O14   V4    S    
C45   O21   D    
O12   C44   A    
C26   C60   S    
O1    V2    S    
C5    C21   A    
O2    V1    S    
H1    C23   S    
O4    C2    A    
C52   H24   S    
C51   H21   S    
C35   C37   S    
O18   V4    S    
C17   C31   A    
O19   V4    S    
C15   C19   A    
O12   V3    S    
C20   C28   A    
C9    C11   A    
C59   H39   S    
O3    V1    S    
C57   H34   S    
C49   H17   S    
C13   H7    S    
C14   H8    S    
C1    C40   S    
C6    H4    S    
C2    C39   S    
C47   H12   S    
C46   H10   S    
O3    C1    A    
C50   H19   S    
O16   V4    S    
C51   C52   S    
O25   C53   S    
C10   C12   A    
C8    C30   A    
C56   H33   S    
C60   H40   S    
C6    C22   A    
C17   C25   A    
C1    O8    A    
C21   C23   A    
O8    V2    S    
C56   H32   S    
C20   C22   A    
C30   C46   S    
C49   H15   S    
O13   V3    S    
C8    C28   A    
C12   C14   A    
C36   C38   S    
O17   V3    S    
O15   C43   A    
O7    V1    S    
O24   C50   S    
C53   H26   S    
C9    H5    S    
C37   C39   T    
C18   C32   A    
C13   C15   A    
C51   H20   S    
O9    V2    S    
C48   H14   S    
O10   V1    S    
C29   C45   S    
C54   H27   S    
C33   C44   S    
C55   H31   S    
O6    C4    A    
O14   C42   A    
C53   C54   S    
