data_mof_unit_57838.cif
_audit_creation_date              2012-12-10T20:38:19-0500
_audit_creation_method            fapswitch 2.2
_symmetry_space_group_name_H-M    P1
_symmetry_Int_Tables_number       1
_space_group_crystal_system       triclinic
_cell_length_a                    9.862642
_cell_length_b                    10.686217
_cell_length_c                    16.637231
_cell_angle_alpha                 90.050803
_cell_angle_beta                  85.013148
_cell_angle_gamma                 89.569578
_cell_volume                      1746.78102225

loop_
_atom_site_label
_atom_site_type_symbol
_atom_type_description
_atom_site_fract_x
_atom_site_fract_y
_atom_site_fract_z
_atom_type_partial_charge
C1    C     C_R   0.500126 0.740199 0.497351 0.880019
C2    C     C_R   0.344673 0.436001 0.779602 -0.205319
C3    C     C_R   0.435978 0.323904 0.160966 -0.159311
C4    C     C_R   0.423844 0.376686 0.237250 -0.207981
C5    C     C_R   0.652301 0.459992 0.214576 -0.181157
C6    C     C_R   0.663821 0.408194 0.137463 -0.190286
C7    C     C_R   0.553857 0.343851 0.109548 0.208634
C8    C     C_2   0.446426 0.356361 0.985025 -0.231274
C9    C     C_2   0.554466 0.320202 0.023119 -0.243284
C10   C     C_R   0.530534 0.447602 0.263836 -0.033648
C11   C     C_R   0.382321 0.937533 0.475717 0.142463
C12   C     C_R   0.480917 0.497489 0.653655 0.858368
C13   C     C_R   0.502745 0.871631 0.483645 -0.107568
C14   C     C_R   0.627738 0.934437 0.475026 -0.221161
C15   C     C_R   0.628334 0.063745 0.474852 -0.240298
C16   C     C_R   0.503968 0.128860 0.482815 -0.102489
C17   C     C_R   0.383038 0.065371 0.475068 0.135038
C18   C     C_3   0.249070 0.075042 0.524088 -0.472537
C19   C     C_3   0.248656 0.933370 0.525312 -0.503660
C20   C     C_R   0.918457 0.527491 0.568731 0.124008
C21   C     C_R   0.938081 0.456975 0.434981 0.504827
C22   C     C_R   0.082460 0.459485 0.434796 -0.239530
C23   C     C_R   0.500955 0.259982 0.496976 0.873173
C24   C     C_R   0.060850 0.526453 0.568941 0.192245
C25   C     C_3   0.059010 0.644487 0.616626 -0.495349
C26   C     C_3   0.905177 0.646355 0.615663 -0.479193
C27   C     C_R   0.519016 0.492433 0.346756 0.853003
C28   C     C_R   0.469293 0.473589 0.740162 -0.037596
C29   C     C_R   0.586558 0.474116 0.781895 -0.210416
C30   C     C_R   0.580663 0.433923 0.861163 -0.148122
C31   C     C_R   0.457343 0.391015 0.899693 0.207055
C32   C     C_R   0.338893 0.395162 0.859139 -0.181129
H1    H     H_    0.683565 0.503675 0.752999 0.147159
H2    H     H_    0.755392 0.424295 0.098086 0.125131
H3    H     H_    0.724073 0.884984 0.474765 0.168683
H4    H     H_    0.724835 0.111377 0.475028 0.156221
H5    H     H_    0.257107 0.117474 0.584555 0.207282
H6    H     H_    0.168571 0.116071 0.489118 0.197539
H7    H     H_    0.257560 0.894136 0.586535 0.201943
H8    H     H_    0.167275 0.892744 0.491343 0.203267
H9    H     H_    0.145294 0.430385 0.381573 0.168036
H10   H     H_    0.093552 0.629424 0.677746 0.195556
H11   H     H_    0.331327 0.360664 0.275695 0.145217
H12   H     H_    0.109393 0.722112 0.582089 0.210986
H13   H     H_    0.851143 0.633237 0.676408 0.194137
H14   H     H_    0.866630 0.725232 0.580257 0.209469
H15   H     H_    0.737070 0.511359 0.235094 0.184361
H16   H     H_    0.651406 0.299385 0.989637 0.146101
H17   H     H_    0.242239 0.365884 0.888882 0.124727
H18   H     H_    0.351313 0.271732 0.140986 0.130544
H19   H     H_    0.252704 0.434610 0.748456 0.151567
H20   H     H_    0.350013 0.377729 0.019147 0.151152
H21   H     H_    0.672442 0.439205 0.892098 0.122172
N1    N     N_R   0.857140 0.500860 0.500530 -0.150040
N2    N     N_R   0.142780 0.500820 0.500530 -0.125537
O1    O     O_R   0.385310 0.683210 0.499990 -0.608286
O2    O     O_R   0.614650 0.683240 0.500000 -0.622451
O3    O     O_R   0.371780 0.500000 0.615800 -0.615991
O4    O     O_R   0.601120 0.500040 0.615800 -0.613296
O5    O     O_R   0.385350 0.316760 0.500000 -0.617185
O6    O     O_R   0.614690 0.316790 0.500010 -0.625163
O7    O     O_R   0.398880 0.499960 0.384200 -0.626511
O8    O     O_R   0.628220 0.500000 0.384200 -0.560166
Zn1   Zn    Zn3+2 0.346870 0.499980 0.499990 0.938619
Zn2   Zn    Zn3+2 0.653130 0.500020 0.500010 0.969933
O9    O     O_3   0.879475 0.420141 0.366513 -0.595799
C33   C     C_3   0.896273 0.289608 0.354095 0.118596
H22   H     H_    0.793594 0.247504 0.354657 0.175773
H23   H     H_    0.950698 0.239537 0.400906 0.091580
C34   C     C_3   0.971225 0.265344 0.271594 -0.885374
H24   H     H_    0.075117 0.305107 0.268905 0.239002
H25   H     H_    0.979539 0.163011 0.260397 0.218449
H26   H     H_    0.914930 0.308859 0.223721 0.265072

loop_
_geom_bond_atom_site_label_1
_geom_bond_atom_site_label_2
_ccdc_geom_bond_type
C10   C27   S    
C25   H10   S    
O7    Zn1   S    
O1    Zn1   S    
C22   N2    A    
C4    H11   S    
O6    Zn2   S    
C21   O9    S    
C1    O2    A    
C5    H15   S    
C8    H20   S    
C31   C32   A    
C6    C7    A    
C21   N1    A    
O5    Zn1   S    
C33   C34   S    
C12   O3    A    
N2    Zn1   S    
C34   H26   S    
O8    Zn2   S    
C17   C18   S    
C18   H6    S    
C5    C10   A    
N1    Zn2   S    
C21   C22   A    
O4    Zn2   S    
C24   N2    A    
C11   C13   A    
C30   C31   A    
C11   C19   S    
C29   C30   A    
C20   C26   S    
C12   C28   S    
C5    C6    A    
C19   H7    S    
C25   H12   S    
C2    C32   A    
C28   C29   A    
C27   O7    A    
C18   H5    S    
O9    C33   S    
C16   C23   S    
C3    C7    A    
C12   O4    A    
O3    Zn1   S    
C23   O5    A    
C30   H21   S    
C1    O1    A    
C32   H17   S    
C22   H9    S    
C1    C13   S    
C15   C16   A    
C26   H14   S    
C4    C10   A    
C33   H22   S    
C29   H1    S    
C15   H4    S    
C23   O6    A    
C34   H24   S    
C24   C25   S    
C9    H16   S    
C20   N1    A    
C18   C19   S    
C19   H8    S    
C14   H3    S    
C7    C9    S    
C20   C24   A    
C14   C15   A    
C27   O8    A    
C2    C28   A    
C26   H13   S    
C25   C26   S    
C34   H25   S    
C8    C31   S    
C3    H18   S    
C11   C17   A    
C3    C4    A    
C6    H2    S    
C16   C17   A    
O2    Zn2   S    
C8    C9    D    
C33   H23   S    
C13   C14   A    
C2    H19   S    
