data_mof_unit_24907.cif
_audit_creation_date              2012-12-10T20:03:11-0500
_audit_creation_method            fapswitch 2.2
_symmetry_space_group_name_H-M    P1
_symmetry_Int_Tables_number       1
_space_group_crystal_system       triclinic
_cell_length_a                    8.679491
_cell_length_b                    18.476507
_cell_length_c                    18.481748
_cell_angle_alpha                 89.920775
_cell_angle_beta                  97.284935
_cell_angle_gamma                 89.674072
_cell_volume                      2939.87752715

loop_
_atom_site_label
_atom_site_type_symbol
_atom_type_description
_atom_site_fract_x
_atom_site_fract_y
_atom_site_fract_z
_atom_type_partial_charge
C1    C     C_R   0.486995 0.364095 0.499150 0.860050
C2    C     C_R   0.497514 0.636612 0.499709 0.864667
C3    C     C_R   0.240841 0.961673 0.559941 -0.010722
C4    C     C_R   0.173218 0.039689 0.429253 -0.002761
C5    C     C_R   0.245125 0.037329 0.560376 -0.125824
C6    C     C_R   0.194714 0.964618 0.427756 -0.120946
C7    C     C_R   0.220310 0.077022 0.495052 -0.054938
C8    C     C_R   0.236323 0.925301 0.492316 -0.038594
C9    C     C_R   0.439060 0.556662 0.723216 0.012225
C10   C     C_R   0.363364 0.508076 0.266295 -0.008451
C11   C     C_R   0.438839 0.557608 0.799523 -0.078579
C12   C     C_R   0.357410 0.507731 0.189595 -0.077234
C13   C     C_R   0.490976 0.495574 0.840579 0.032315
C14   C     C_R   0.497352 0.498824 0.157969 -0.006385
C15   C     C_R   0.549256 0.436886 0.804086 -0.257387
C16   C     C_R   0.636269 0.490583 0.205507 -0.240126
C17   C     C_R   0.555119 0.440656 0.728630 -0.019015
C18   C     C_R   0.634906 0.492371 0.281265 0.025588
C19   C     C_R   0.392204 0.449089 0.956649 0.021249
C20   C     C_R   0.600072 0.542624 0.040775 0.033812
C21   C     C_R   0.402522 0.449439 0.033472 -0.267814
C22   C     C_R   0.596905 0.538375 0.964461 -0.250092
C23   C     C_R   0.201860 0.499503 0.481797 0.922345
C24   C     C_R   0.798306 0.499573 0.518275 0.935021
C25   C     C_R   0.500982 0.497386 0.076518 0.042064
C26   C     C_R   0.493356 0.493170 0.921699 0.030535
C27   C     C_2   0.041352 0.484942 0.474785 -0.241865
C28   C     C_2   0.959277 0.512582 0.525719 -0.253668
C29   C     C_R   0.312539 0.728248 0.444801 -0.251125
C30   C     C_R   0.331476 0.270155 0.550966 -0.247718
C31   C     C_R   0.238381 0.795867 0.443381 0.018459
C32   C     C_R   0.252212 0.204070 0.549103 0.032570
C33   C     C_R   0.305648 0.851724 0.488649 0.025006
C34   C     C_R   0.275544 0.153216 0.494402 0.033451
C35   C     C_R   0.447383 0.838594 0.532059 -0.227125
C36   C     C_R   0.369236 0.172388 0.440894 -0.224892
C37   C     C_R   0.512904 0.769411 0.539855 -0.031063
C38   C     C_R   0.433060 0.241318 0.437724 -0.010505
C39   C     C_R   0.445427 0.712946 0.494851 -0.098492
C40   C     C_R   0.422776 0.289858 0.496206 -0.102326
H1    H     H_    0.592758 0.389031 0.834067 0.148579
H2    H     H_    0.745784 0.483047 0.184144 0.190767
H3    H     H_    0.602288 0.395520 0.701246 0.131610
H4    H     H_    0.741828 0.488236 0.316887 0.150938
H5    H     H_    0.326984 0.414365 0.059960 0.145974
H6    H     H_    0.671642 0.573240 0.937205 0.145544
H7    H     H_    0.258341 0.685313 0.410751 0.153900
H8    H     H_    0.313506 0.308534 0.593459 0.163707
H9    H     H_    0.502377 0.882277 0.564722 0.159139
H10   H     H_    0.389786 0.133571 0.399223 0.151681
H11   H     H_    0.277856 0.064708 0.611616 0.190795
H12   H     H_    0.189650 0.938192 0.375615 0.184189
H13   H     H_    0.386441 0.600117 0.690247 0.159146
H14   H     H_    0.258388 0.516191 0.290753 0.166881
N1    N     N_R   0.500020 0.499980 0.689440 -0.105052
N2    N     N_R   0.499980 0.500020 0.310560 -0.112485
O1    O     O_R   0.500010 0.398180 0.560840 -0.627191
O2    O     O_R   0.499990 0.601820 0.439160 -0.605323
O3    O     O_R   0.499930 0.398180 0.439210 -0.601253
O4    O     O_R   0.500070 0.601820 0.560790 -0.619292
O5    O     O_R   0.271780 0.500000 0.546590 -0.602410
O6    O     O_R   0.728220 0.500000 0.453410 -0.612675
O7    O     O_R   0.271710 0.499990 0.424960 -0.647500
O8    O     O_R   0.728290 0.500010 0.575040 -0.622387
Zn1   Zn    Zn3+2 0.500050 0.500000 0.581210 0.939426
Zn2   Zn    Zn3+2 0.499950 0.500000 0.418790 0.945332
C41   C     C_R   0.992010 0.423173 0.425593 0.134739
C42   C     C_R   0.004186 0.428767 0.350666 -0.136166
C43   C     C_R   0.993782 0.367387 0.306516 -0.164928
C44   C     C_R   0.975225 0.299543 0.337187 -0.116510
C45   C     C_R   0.958669 0.293438 0.411124 -0.110633
C46   C     C_R   0.966679 0.354940 0.455390 -0.142711
H15   H     H_    0.024184 0.480812 0.326786 0.151961
H16   H     H_    0.005378 0.372163 0.249086 0.165974
H17   H     H_    0.974729 0.251671 0.303652 0.127124
H18   H     H_    0.943438 0.240751 0.434269 0.111726
H19   H     H_    0.961910 0.348864 0.513366 0.119331
C47   C     C_R   0.016762 0.570504 0.578461 0.155258
C48   C     C_R   0.069921 0.636357 0.553130 -0.137798
C49   C     C_R   0.123717 0.690444 0.602447 -0.167631
C50   C     C_R   0.120216 0.680168 0.676926 -0.084370
C51   C     C_R   0.063965 0.615561 0.702603 -0.154963
C52   C     C_R   0.014356 0.560427 0.653698 -0.099284
H20   H     H_    0.069445 0.645499 0.495277 0.115556
H21   H     H_    0.166667 0.740708 0.583126 0.136451
H22   H     H_    0.159515 0.722886 0.714573 0.182026
H23   H     H_    0.060247 0.607955 0.760416 0.127618
H24   H     H_    0.974136 0.510024 0.674390 0.128356
C53   C     C_R   0.265477 0.407122 0.914896 0.122323
C54   C     C_R   0.156967 0.441662 0.862831 -0.139746
C55   C     C_R   0.030680 0.403418 0.827577 -0.130706
C56   C     C_R   0.010186 0.330760 0.844675 -0.111232
C57   C     C_R   0.116322 0.296168 0.896858 -0.147848
C58   C     C_R   0.243733 0.333973 0.931671 -0.160567
H25   H     H_    0.167370 0.498623 0.850907 0.105652
H26   H     H_    0.947282 0.430430 0.787873 0.123233
H27   H     H_    0.911539 0.301396 0.817842 0.120842
H28   H     H_    0.099499 0.240059 0.910625 0.129284
H29   H     H_    0.324434 0.306473 0.972260 0.128198
C59   C     C_R   0.704187 0.597269 0.079819 0.104270
C60   C     C_R   0.648097 0.647059 0.127834 -0.142308
C61   C     C_R   0.746495 0.699759 0.162143 -0.127926
C62   C     C_R   0.900342 0.704236 0.147613 -0.101276
C63   C     C_R   0.955822 0.656409 0.098611 -0.089108
C64   C     C_R   0.858844 0.602889 0.065138 -0.100940
H30   H     H_    0.528080 0.645734 0.138108 0.126439
H31   H     H_    0.702652 0.737538 0.199310 0.132552
H32   H     H_    0.977076 0.744891 0.173646 0.121429
H33   H     H_    0.074446 0.660627 0.086827 0.111123
H34   H     H_    0.904682 0.565682 0.027855 0.123977
C65   C     C_R   0.083282 0.804129 0.400918 0.105516
C66   C     C_R   0.950432 0.800417 0.436597 -0.163240
C67   C     C_R   0.803509 0.813799 0.398402 -0.126350
C68   C     C_R   0.788912 0.832180 0.324555 -0.103481
C69   C     C_R   0.920797 0.835253 0.288455 -0.111657
C70   C     C_R   0.067354 0.819051 0.325870 -0.169568
H35   H     H_    0.961577 0.787605 0.493974 0.124906
H36   H     H_    0.701264 0.811034 0.426166 0.143787
H37   H     H_    0.675511 0.844098 0.295325 0.123796
H38   H     H_    0.909296 0.850799 0.231575 0.133564
H39   H     H_    0.168886 0.821905 0.297450 0.128125
C71   C     C_R   0.144215 0.190706 0.603933 0.082920
C72   C     C_R   0.992067 0.166185 0.582401 -0.146780
C73   C     C_R   0.892345 0.152476 0.634499 -0.121441
C74   C     C_R   0.944033 0.162116 0.708517 -0.112057
C75   C     C_R   0.095329 0.185704 0.730462 -0.102204
C76   C     C_R   0.194542 0.200790 0.678550 -0.157617
H40   H     H_    0.950840 0.156882 0.525529 0.114226
H41   H     H_    0.775421 0.133739 0.617495 0.135970
H42   H     H_    0.867290 0.150821 0.748898 0.125783
H43   H     H_    0.136447 0.191686 0.787773 0.133979
H44   H     H_    0.311810 0.218528 0.696670 0.128456
C77   C     C_R   0.640294 0.760101 0.600540 0.087796
C78   C     C_R   0.612343 0.721298 0.662583 -0.069467
C79   C     C_R   0.716147 0.724036 0.726773 -0.098782
C80   C     C_R   0.845571 0.768949 0.730743 -0.114321
C81   C     C_R   0.872509 0.809954 0.670090 -0.119033
C82   C     C_R   0.770573 0.805616 0.605370 -0.176682
H45   H     H_    0.503868 0.693957 0.662674 0.150210
H46   H     H_    0.692935 0.693691 0.774293 0.159788
H47   H     H_    0.924219 0.772484 0.780952 0.136797
H48   H     H_    0.971002 0.845941 0.673604 0.143975
H49   H     H_    0.787459 0.841316 0.560691 0.127860
C83   C     C_R   0.494384 0.260193 0.368871 0.125422
C84   C     C_R   0.411026 0.308633 0.319579 -0.079890
C85   C     C_R   0.450933 0.317319 0.249190 -0.142577
C86   C     C_R   0.571580 0.276356 0.226569 -0.105013
C87   C     C_R   0.651434 0.226156 0.274158 -0.121645
C88   C     C_R   0.614218 0.218451 0.345207 -0.165045
H50   H     H_    0.312810 0.338400 0.335161 0.150867
H51   H     H_    0.385578 0.354351 0.211514 0.140233
H52   H     H_    0.601014 0.282444 0.171712 0.130461
H53   H     H_    0.741155 0.192560 0.255704 0.137101
H54   H     H_    0.675086 0.178238 0.380967 0.122029
C89   C     C_2   0.250847 0.921365 0.630084 0.362059
H55   H     H_    0.240631 0.862908 0.630279 0.062453
O9    O     O_2   0.268117 0.952989 0.688508 -0.563709
C90   C     C_2   0.109331 0.078813 0.361668 0.352664
H56   H     H_    0.084425 0.136309 0.363448 0.060352
O10   O     O_2   0.081316 0.047171 0.303557 -0.576914
C91   C     C_2   0.383315 0.622707 0.835449 0.301191
H57   H     H_    0.344255 0.618698 0.888776 0.089895
O11   O     O_2   0.384559 0.682137 0.806706 -0.608410
C92   C     C_2   0.205178 0.518295 0.144606 0.316166
H58   H     H_    0.198677 0.534582 0.087950 0.079942
O12   O     O_2   0.084274 0.508599 0.170504 -0.614952

loop_
_geom_bond_atom_site_label_1
_geom_bond_atom_site_label_2
_ccdc_geom_bond_type
C30   C32   A    
C81   H48   S    
C57   C58   A    
C16   H2    S    
C89   O9    D    
C71   C76   A    
C65   C66   A    
C64   H34   S    
C91   H57   S    
C72   H40   S    
C72   C73   A    
C59   C64   A    
C46   H19   S    
C74   C75   A    
C29   H7    S    
C75   H43   S    
C30   H8    S    
C92   H58   S    
C35   C37   A    
C67   C68   A    
C1    O1    A    
C82   H49   S    
C1    O3    A    
O3    Zn2   S    
C48   H20   S    
C2    O4    A    
C20   C25   A    
C69   C70   A    
C11   C91   S    
C41   C46   A    
C53   C58   A    
C19   C26   A    
C76   H44   S    
C63   C64   A    
C62   C63   A    
C1    C40   S    
N1    Zn1   S    
C55   H26   S    
C2    C39   S    
O2    Zn2   S    
C4    C90   S    
C86   C87   A    
C42   C43   A    
C35   H9    S    
C31   C33   A    
C65   C70   A    
C9    N1    A    
C23   C27   S    
C10   N2    A    
C17   N1    A    
C50   H22   S    
C18   N2    A    
C67   H36   S    
C23   O7    A    
C52   H24   S    
O7    Zn2   S    
C77   C82   A    
C24   O8    A    
C90   O10   D    
C61   C62   A    
C4    C7    A    
C47   C52   A    
C66   C67   A    
C91   O11   D    
C56   H27   S    
C84   C85   A    
C21   H5    S    
C79   H46   S    
C70   H39   S    
O6    Zn2   S    
C41   C42   A    
C60   C61   A    
C32   C71   S    
C79   C80   A    
C87   C88   A    
C15   H1    S    
C4    C6    A    
C3    C8    A    
C55   C56   A    
C5    C7    A    
C47   C48   A    
C83   C84   A    
C6    C8    A    
C42   H15   S    
C50   C51   A    
C85   H51   S    
C32   C34   A    
C88   H54   S    
C17   H3    S    
C49   H21   S    
C19   C53   S    
C18   H4    S    
C12   C92   S    
C77   C78   A    
C20   C59   S    
C28   C47   S    
C29   C39   A    
C3    C89   S    
C30   C40   A    
C43   H16   S    
C56   C57   A    
C9    C11   A    
C44   C45   A    
C10   C12   A    
C16   C18   A    
C22   H6    S    
C20   C22   A    
O4    Zn1   S    
C69   H38   S    
C13   C15   A    
C90   H56   S    
C7    C34   S    
C14   C16   A    
C13   C26   S    
C9    H13   S    
C87   H53   S    
C53   C54   A    
C61   H31   S    
C45   H18   S    
C78   H45   S    
C36   H10   S    
C24   C28   S    
C85   C86   A    
C60   H30   S    
C15   C17   A    
C21   C25   A    
C24   O6    A    
C83   C88   A    
C19   C21   A    
C38   C83   S    
C84   H50   S    
O1    Zn1   S    
C49   C50   A    
C3    C5    A    
C54   H25   S    
C2    O2    A    
C68   C69   A    
C78   C79   A    
C81   C82   A    
O8    Zn1   S    
C92   O12   D    
C86   H52   S    
C12   C14   A    
C45   C46   A    
C37   C39   A    
C38   C40   A    
C11   C13   A    
C54   C55   A    
C66   H35   S    
C68   H37   S    
C58   H29   S    
C75   C76   A    
N2    Zn2   S    
C36   C38   A    
C59   C60   A    
C33   C35   A    
C80   H47   S    
C73   H41   S    
C34   C36   A    
C8    C33   S    
C14   C25   S    
C43   C44   A    
C10   H14   S    
C37   C77   S    
C27   C41   S    
C74   H42   S    
C48   C49   A    
O5    Zn1   S    
C23   O5    A    
C44   H17   S    
C29   C31   A    
C51   C52   A    
C22   C26   A    
C89   H55   S    
C31   C65   S    
C63   H33   S    
C5    H11   S    
C62   H32   S    
C6    H12   S    
C71   C72   A    
C57   H28   S    
C80   C81   A    
C51   H23   S    
C73   C74   A    
C27   C28   D    
