data_mof_unit_47237.cif
_audit_creation_date              2012-12-11T15:53:52-0500
_audit_creation_method            fapswitch 2.2
_symmetry_space_group_name_H-M    P1
_symmetry_Int_Tables_number       1
_space_group_crystal_system       triclinic
_cell_length_a                    10.743071
_cell_length_b                    10.67576
_cell_length_c                    17.032833
_cell_angle_alpha                 80.602596
_cell_angle_beta                  99.392097
_cell_angle_gamma                 118.899365
_cell_volume                      1679.22919482

loop_
_atom_site_label
_atom_site_type_symbol
_atom_type_description
_atom_site_fract_x
_atom_site_fract_y
_atom_site_fract_z
_atom_type_partial_charge
C1    C     C_R   0.361521 0.230414 0.627597 0.548014
C2    C     C_R   0.392613 0.837433 0.670706 -0.034075
C3    C     C_R   0.390149 0.853722 0.750939 0.079203
C4    C     C_3   0.128617 0.460591 0.789351 -0.120920
C5    C     C_3   0.148262 0.437832 0.707284 -0.240164
C6    C     C_R   0.314025 0.698446 0.643593 -0.023411
C7    C     C_1   0.850617 0.669858 0.702563 -0.025735
C8    C     C_1   0.897741 0.704029 0.769251 -0.034164
C9    C     C_1   0.345059 0.189564 0.709932 -0.058029
C10   C     C_1   0.320446 0.161382 0.778341 -0.041738
C11   C     C_1   0.340383 0.662846 0.277148 -0.038413
C12   C     C_R   0.368588 0.656805 0.584338 0.544600
C13   C     C_1   0.327529 0.671808 0.206345 -0.045435
C14   C     C_R   0.934742 0.717539 0.176429 0.004972
C15   C     C_R   0.968467 0.632867 0.237204 -0.035413
C16   C     C_R   0.934073 0.616893 0.313222 0.015373
C17   C     C_R   0.843578 0.788027 0.273378 -0.056072
C18   C     C_R   0.884624 0.806123 0.196997 -0.156497
C19   C     C_3   0.963712 0.490580 0.243064 -0.245573
C20   C     C_3   0.936508 0.475039 0.330300 0.007739
C21   C     C_R   0.855993 0.680671 0.331236 0.002866
C22   C     C_R   0.335345 0.176686 0.157408 0.022038
C23   C     C_R   0.781246 0.621366 0.626175 0.546002
C24   C     C_R   0.266871 0.245135 0.180820 0.016653
C25   C     C_R   0.268220 0.251910 0.260346 0.034893
C26   C     C_R   0.427072 0.148391 0.295623 -0.171057
C27   C     C_R   0.427109 0.140853 0.214746 -0.163242
C28   C     C_3   0.116660 0.224315 0.164117 -0.266601
C29   C     C_3   0.118622 0.227760 0.252749 -0.267453
C30   C     C_R   0.338650 0.194845 0.318949 0.021858
C31   C     C_R   0.947547 0.725110 0.851561 0.539496
C32   C     C_R   0.284438 0.749824 0.882476 0.565091
C33   C     C_R   0.284218 0.114586 0.857862 0.542485
C34   C     C_R   0.352104 0.228475 0.398974 0.546896
C35   C     C_R   0.957440 0.720305 0.094934 0.579816
C36   C     C_R   0.314016 0.699559 0.123315 0.552789
C37   C     C_R   0.287183 0.110153 0.083892 0.546182
C38   C     C_R   0.366852 0.653636 0.360335 0.545014
C39   C     C_R   0.774480 0.624473 0.400429 0.547135
C40   C     C_R   0.288372 0.738299 0.798330 -0.000594
C41   C     C_R   0.184937 0.617059 0.760987 -0.030825
C42   C     C_R   0.200961 0.595505 0.686205 -0.023923
Cr1   Cr    Cr6+3 0.608440 0.389080 0.519680 1.070299
Cr2   Cr    Cr6+3 0.288640 0.400090 0.490760 0.998022
Cr3   Cr    Cr6+3 0.602940 0.710800 0.489510 1.046486
Cr4   Cr    Cr6+3 0.052530 0.947560 0.964210 1.002453
Cr5   Cr    Cr6+3 0.059970 0.626800 0.992920 1.018142
Cr6   Cr    Cr6+3 0.373320 0.938440 0.995370 1.030780
H1    H     H_    0.872147 0.414990 0.204876 0.160541
H2    H     H_    0.028211 0.482825 0.374210 0.157431
H3    H     H_    0.490399 0.112496 0.339761 0.140381
H4    H     H_    0.486471 0.092256 0.198693 0.160865
H5    H     H_    0.036931 0.118586 0.143693 0.160151
H6    H     H_    0.111539 0.318307 0.127534 0.150121
H7    H     H_    0.113832 0.321359 0.268556 0.145017
H8    H     H_    0.046036 0.122694 0.283386 0.146903
H9    H     H_    0.197949 0.437505 0.839105 0.135820
H10   H     H_    0.233242 0.405983 0.709450 0.149847
H11   H     H_    0.047527 0.372987 0.670532 0.153006
H12   H     H_    0.863653 0.879532 0.151841 0.140368
H13   H     H_    0.067175 0.500133 0.235263 0.114927
O1    O     O_R   0.754020 0.497590 0.609930 -0.494137
O2    O     O_R   0.295080 0.533620 0.397890 -0.526268
O3    O     O_R   0.485280 0.746620 0.388440 -0.484636
O4    O     O_R   0.720550 0.696220 0.420010 -0.499556
O5    O     O_3   0.500010 0.499990 0.499980 -0.259066
O6    O     O_R   0.163320 0.092900 0.874450 -0.520771
O7    O     O_R   0.934650 0.822080 0.882840 -0.488556
O8    O     O_R   0.915520 0.604140 0.893670 -0.476053
O9    O     O_R   0.191760 0.638110 0.923230 -0.518195
O10   O     O_R   0.406180 0.826930 0.920660 -0.476757
O11   O     O_R   0.358620 0.062870 0.901950 -0.488991
O12   O     O_R   0.481420 0.271390 0.600630 -0.474240
O13   O     O_R   0.163910 0.085460 0.050210 -0.531014
O14   O     O_R   0.935200 0.815170 0.045770 -0.500153
O15   O     O_R   0.916120 0.596690 0.069430 -0.504756
O16   O     O_R   0.192310 0.631200 0.086170 -0.526112
O17   O     O_R   0.406770 0.819480 0.096420 -0.497515
O18   O     O_R   0.359170 0.055960 0.064880 -0.506328
O19   O     O_3   0.161940 0.837600 0.984160 -0.317775
O20   O     O_R   0.263810 0.254550 0.589590 -0.520037
O21   O     O_R   0.300820 0.531200 0.560890 -0.504867
O22   O     O_R   0.491480 0.744020 0.564270 -0.504038
O23   O     O_R   0.726290 0.693800 0.583010 -0.501192
O24   O     O_R   0.747830 0.500190 0.434090 -0.475947
O25   O     O_R   0.475680 0.273800 0.437630 -0.482387
O26   O     O_R   0.257620 0.257160 0.413750 -0.524159
C43   C     C_1   0.488504 0.959288 0.620800 0.214763
N1    N     N_1   0.565447 0.055938 0.580902 -0.282077
N2    N     N_2   0.801696 0.351944 0.348838 -0.478466
H14   H     H_    0.717123 0.335740 0.305908 0.266287
C44   C     C_3   0.813542 0.223606 0.380563 -0.269521
H15   H     H_    0.707701 0.134350 0.394843 0.162055
H16   H     H_    0.886573 0.243121 0.436674 0.147930
H17   H     H_    0.855926 0.192225 0.336264 0.153810
N3    N     N_2   0.501454 0.977306 0.786493 -0.479910
H18   H     H_    0.520225 0.073441 0.753454 0.263556
C45   C     C_3   0.633296 0.969156 0.811083 -0.232844
H19   H     H_    0.689789 0.985762 0.758165 0.140880
H20   H     H_    0.612360 0.863173 0.844169 0.176027
H21   H     H_    0.703584 0.053693 0.851337 0.168946
C46   C     C_1   0.977685 0.393344 0.804490 0.231450
N4    N     N_1   0.858809 0.340722 0.816112 -0.289969
C47   C     C_1   0.772438 0.868210 0.284437 0.212632
N5    N     N_1   0.715043 0.932780 0.291935 -0.313386

loop_
_geom_bond_atom_site_label_1
_geom_bond_atom_site_label_2
_ccdc_geom_bond_type
Cr1   O12   S    
C5    C42   S    
C16   C21   A    
C41   C42   A    
C14   C18   A    
Cr2   O5    S    
C19   C20   S    
C37   O13   A    
C7    C8    T    
Cr3   O22   S    
C15   C19   S    
C37   O18   A    
C35   O14   A    
C26   C27   A    
C5    H10   S    
Cr6   O18   S    
C28   C29   S    
C17   C47   S    
Cr5   O15   S    
Cr2   O21   S    
C36   O16   A    
C6    C12   S    
C4    C41   S    
C1    O20   A    
C15   C16   A    
C34   O25   A    
Cr6   O17   S    
Cr5   O8    S    
C20   H2    S    
C33   O11   A    
C23   O1    A    
N3    C45   S    
C4    H9    S    
C2    C43   S    
C3    N3    S    
Cr2   O26   S    
C9    C10   T    
C39   O4    A    
C2    C6    A    
Cr5   O19   S    
Cr6   O11   S    
Cr4   O14   S    
C32   O10   A    
C38   O3    A    
Cr2   O2    S    
C25   C29   S    
C31   O7    A    
C35   O15   A    
C23   O23   A    
C30   C34   S    
Cr1   O24   S    
C1    C9    S    
C24   C25   A    
C13   C36   S    
Cr2   O20   S    
C14   C35   S    
C28   H6    S    
C32   O9    A    
C29   H7    S    
C22   C37   S    
C20   N2    S    
C44   H17   S    
C17   C21   A    
C12   O22   A    
C4    C46   S    
C11   C38   S    
Cr5   O9    S    
Cr4   O7    S    
C19   H1    S    
N2    C44   S    
C21   C39   S    
C16   C20   S    
N3    H18   S    
C44   H16   S    
C17   C18   A    
C12   O21   A    
C5    H11   S    
C18   H12   S    
C40   C41   A    
C3    C40   A    
C26   C30   A    
C45   H20   S    
C22   C27   A    
Cr3   O4    S    
C22   C24   A    
Cr3   O23   S    
Cr5   O16   S    
Cr6   O10   S    
Cr4   O13   S    
C27   H4    S    
C33   O6    A    
C38   O2    A    
C25   C30   A    
C8    C31   S    
C24   C28   S    
C4    C5    S    
C47   N5    T    
C28   H5    S    
C29   H8    S    
C45   H21   S    
Cr3   O3    S    
C1    O12   A    
Cr6   O19   S    
C2    C3    A    
Cr4   O6    S    
C36   O17   A    
C26   H3    S    
Cr4   O19   S    
C11   C13   T    
N2    H14   S    
C19   H13   S    
Cr1   O5    S    
C7    C23   S    
C44   H15   S    
C10   C33   S    
C34   O26   A    
C32   C40   S    
C46   N4    T    
Cr1   O25   S    
C31   O8    A    
C43   N1    T    
C45   H19   S    
C6    C42   A    
Cr3   O5    S    
C39   O24   A    
C14   C15   A    
Cr1   O1    S    
