data_mof_unit_28949.cif
_audit_creation_date              2012-12-10T16:57:02-0500
_audit_creation_method            fapswitch 2.2
_symmetry_space_group_name_H-M    P1
_symmetry_Int_Tables_number       1
_space_group_crystal_system       triclinic
_cell_length_a                    7.767404
_cell_length_b                    8.573561
_cell_length_c                    16.474508
_cell_angle_alpha                 91.908892
_cell_angle_beta                  79.834076
_cell_angle_gamma                 93.847067
_cell_volume                      1077.1939666

loop_
_atom_site_label
_atom_site_type_symbol
_atom_type_description
_atom_site_fract_x
_atom_site_fract_y
_atom_site_fract_z
_atom_type_partial_charge
C1    C     C_R   0.546327 0.794889 0.497872 0.948225
C2    C     C_R   0.488334 0.709477 0.251862 -0.279668
C3    C     C_R   0.611990 0.566827 0.861670 -0.135842
C4    C     C_R   0.522382 0.778081 0.175245 -0.113100
C5    C     C_R   0.460318 0.623123 0.909475 0.047084
C6    C     C_R   0.616166 0.698835 0.108293 0.066853
C7    C     C_R   0.307876 0.627562 0.875930 -0.297865
C8    C     C_R   0.690368 0.558153 0.119403 -0.297488
C9    C     C_R   0.308080 0.585627 0.793313 0.537301
C10   C     C_R   0.664195 0.492030 0.197559 0.527608
C11   C     C_2   0.453967 0.660983 0.997472 0.180428
C12   C     C_R   0.453678 0.205098 0.502025 0.977699
C13   C     C_2   0.593076 0.735065 0.025169 0.140874
C14   C     C_3   0.910516 0.359571 0.194819 -0.294427
C15   C     C_3   0.108373 0.739257 0.755081 -0.305158
C16   C     C_3   0.687065 0.958695 0.938800 -0.789019
C17   C     C_3   0.179271 0.701307 0.090958 -0.825795
C18   C     C_2   0.570752 0.958354 0.496505 -0.373871
C19   C     C_2   0.429260 0.041587 0.503167 -0.391638
C20   C     C_R   0.476188 0.505633 0.655430 0.881447
C21   C     C_R   0.525239 0.504443 0.345284 0.914985
C22   C     C_R   0.463697 0.533928 0.744438 -0.163167
C23   C     C_R   0.553325 0.564133 0.262483 -0.127160
C24   C     C_R   0.614079 0.523937 0.779708 -0.280090
H1    H     H_    0.734286 0.483940 0.743812 0.202062
H2    H     H_    0.976924 0.620354 0.561057 0.190045
H3    H     H_    0.957080 0.249177 0.213836 0.191274
H4    H     H_    0.962221 0.456270 0.232410 0.168868
H5    H     H_    0.964975 0.374079 0.128278 0.160246
H6    H     H_    0.997341 0.736894 0.720849 0.187578
H7    H     H_    0.218801 0.811872 0.719519 0.156471
H8    H     H_    0.063730 0.793944 0.816666 0.162374
H9    H     H_    0.848174 0.829940 0.994676 0.222325
H10   H     H_    0.801667 0.009566 0.895653 0.236268
H11   H     H_    0.649227 0.044725 0.989751 0.242927
H12   H     H_    0.410590 0.769699 0.303032 0.170974
H13   H     H_    0.577172 0.935774 0.904256 0.252273
H14   H     H_    0.256246 0.488496 0.035923 0.220592
H15   H     H_    0.146349 0.683040 0.158394 0.254767
H16   H     H_    0.058296 0.678672 0.064136 0.222405
H17   H     H_    0.226745 0.825539 0.080479 0.242426
H18   H     H_    0.188035 0.663183 0.913963 0.159888
H19   H     H_    0.757165 0.494700 0.066384 0.140040
H20   H     H_    0.463778 0.886150 0.166688 0.150054
H21   H     H_    0.728500 0.553878 0.887905 0.167801
H22   H     H_    0.704259 0.009670 0.490098 0.180888
H23   H     H_    0.295753 0.990258 0.509561 0.176895
H24   H     H_    0.023073 0.379626 0.438958 0.190248
N1    N     N_2   0.953500 0.457650 0.478520 -0.172921
N2    N     N_2   0.046500 0.542350 0.521480 -0.165569
N3    N     N_2   0.732956 0.815612 0.971517 -0.330035
N4    N     N_2   0.309678 0.594192 0.054623 -0.304007
O1    O     O_R   0.388470 0.738640 0.505270 -0.619854
O2    O     O_3   0.153498 0.584174 0.762168 -0.601534
O3    O     O_R   0.611530 0.261360 0.494730 -0.606556
O4    O     O_R   0.679650 0.711510 0.491500 -0.632072
O5    O     O_R   0.320350 0.288490 0.508500 -0.628016
O6    O     O_R   0.337210 0.515200 0.623500 -0.555036
O7    O     O_R   0.662790 0.484800 0.376500 -0.592986
O8    O     O_R   0.628380 0.488060 0.609730 -0.631135
O9    O     O_R   0.371620 0.511940 0.390270 -0.634456
O10   O     O_3   0.725688 0.347760 0.208912 -0.621712
Zn1   Zn    Zn3+2 0.305580 0.518120 0.509190 0.952492
Zn2   Zn    Zn3+2 0.694420 0.481880 0.490810 0.945490

loop_
_geom_bond_atom_site_label_1
_geom_bond_atom_site_label_2
_ccdc_geom_bond_type
C2    C4    A    
O4    Zn2   S    
C15   H7    S    
C11   N4    S    
C14   H3    S    
C20   O8    A    
C11   C13   D    
C21   O9    A    
C8    H19   S    
C16   H13   S    
O8    Zn2   S    
C14   H4    S    
O3    Zn2   S    
C22   C24   A    
H2    N2    S    
O7    Zn2   S    
C5    C7    A    
C15   H8    S    
C16   H11   S    
N1    Zn2   S    
C6    C13   S    
N2    Zn1   S    
O1    Zn1   S    
C3    C24   A    
C10   O10   S    
C6    C8    A    
C12   O5    A    
C18   H22   S    
C17   N4    S    
C4    C6    A    
H24   N1    S    
C1    O4    A    
C20   C22   S    
O5    Zn1   S    
C17   H17   S    
C21   C23   S    
C5    C11   S    
C10   C23   A    
N1    N2    D    
C19   H23   S    
C9    C22   A    
C12   O3    A    
H9    N3    S    
C14   H5    S    
C20   O6    A    
C14   O10   S    
C21   O7    A    
C2    C23   A    
H14   N4    S    
C24   H1    S    
C12   C19   S    
C15   H6    S    
C8    C10   A    
C15   O2    S    
C17   H15   S    
C7    H18   S    
C2    H12   S    
O6    Zn1   S    
C7    C9    A    
C1    C18   S    
C18   C19   D    
C16   N3    S    
C1    O1    A    
C9    O2    S    
C4    H20   S    
C16   H10   S    
C13   N3    S    
C3    H21   S    
O9    Zn1   S    
C3    C5    A    
C17   H16   S    
