data_mof_unit_19647.cif
_audit_creation_date              2012-12-11T16:22:16-0500
_audit_creation_method            fapswitch 2.2
_symmetry_space_group_name_H-M    P1
_symmetry_Int_Tables_number       1
_space_group_crystal_system       triclinic
_cell_length_a                    13.487654
_cell_length_b                    14.022547
_cell_length_c                    30.037834
_cell_angle_alpha                 97.750318
_cell_angle_beta                  90.53997
_cell_angle_gamma                 118.611813
_cell_volume                      4923.86798701

loop_
_atom_site_label
_atom_site_type_symbol
_atom_type_description
_atom_site_fract_x
_atom_site_fract_y
_atom_site_fract_z
_atom_type_partial_charge
C1    C     C_R   0.723292 0.099911 0.568599 0.538910
C2    C     C_1   0.361315 0.696915 0.769705 0.058080
C3    C     C_3   0.656718 0.773579 0.251932 -0.292928
C4    C     C_3   0.770003 0.797343 0.233538 -0.436189
C5    C     C_2   0.200218 0.440045 0.213958 0.547162
C6    C     C_3   0.214548 0.006154 0.065393 -0.255184
C7    C     C_3   0.279842 0.941521 0.065539 -0.311363
C8    C     C_3   0.230631 0.841657 0.028197 -0.422068
C9    C     C_3   0.414463 0.337681 0.430371 -0.257932
C10   C     C_3   0.316447 0.362624 0.439261 -0.305059
C11   C     C_3   0.354746 0.467470 0.473307 -0.451170
C12   C     C_3   0.418833 0.363552 0.331942 -0.249099
C13   C     C_1   0.365891 0.705262 0.730546 0.056639
C14   C     C_3   0.542702 0.399025 0.323128 -0.305508
C15   C     C_3   0.598572 0.508267 0.305306 -0.461580
C16   C     C_2   0.868281 0.378358 0.097483 0.577049
C17   C     C_3   0.829442 0.367430 0.194933 -0.239335
C18   C     C_3   0.933075 0.466078 0.221979 -0.276230
C19   C     C_3   0.898794 0.542109 0.250755 -0.460906
C20   C     C_3   0.164128 0.600901 0.578075 -0.254983
C21   C     C_3   0.127997 0.477911 0.573778 -0.313019
C22   C     C_3   0.022049 0.407910 0.541265 -0.440457
C23   C     C_2   0.941019 0.057771 0.315108 0.556704
C24   C     C_R   0.384370 0.788620 0.551024 0.525952
C25   C     C_2   0.551813 0.721480 0.826366 0.611360
C26   C     C_2   0.506796 0.649811 0.913711 0.637397
C27   C     C_R   0.304946 0.610593 0.900196 -0.054318
C28   C     C_3   0.225118 0.157661 0.723107 -0.079860
C29   C     C_3   0.216067 0.070912 0.752433 -0.100450
C30   C     C_1   0.294423 0.198085 0.876116 0.009346
C31   C     C_1   0.361475 0.135345 0.613182 -0.009893
C32   C     C_3   0.315146 0.249492 0.758702 0.022081
C33   C     C_3   0.306118 0.163685 0.787503 0.027049
C34   C     C_R   0.369000 0.713906 0.683843 0.023745
C35   C     C_3   0.411417 0.240084 0.734873 -0.090324
C36   C     C_3   0.321357 0.147778 0.699739 0.018308
C37   C     C_3   0.401714 0.153310 0.763912 -0.064717
C38   C     C_R   0.396939 0.118761 0.569424 0.547516
C39   C     C_3   0.312173 0.060502 0.728047 -0.076841
C40   C     C_1   0.300073 0.178094 0.836318 -0.034061
C41   C     C_1   0.338148 0.142179 0.651634 -0.057660
C42   C     C_3   0.924170 0.280282 0.732212 -0.148019
C43   C     C_3   0.828261 0.262760 0.763540 0.060864
C44   C     C_1   0.900144 0.207142 0.877635 0.047117
C45   C     C_R   0.269703 0.657394 0.654761 -0.104188
C46   C     C_1   0.781107 0.136465 0.612665 0.031377
C47   C     C_3   0.956457 0.209147 0.758668 -0.176913
C48   C     C_3   0.859747 0.192271 0.789477 -0.016183
C49   C     C_3   0.871906 0.103897 0.726383 0.041863
C50   C     C_R   0.720118 0.095611 0.442845 0.540959
C51   C     C_3   0.840649 0.174448 0.700411 -0.022568
C52   C     C_3   0.776608 0.087526 0.757445 0.024954
C53   C     C_3   0.745070 0.157968 0.731416 0.028308
C54   C     C_1   0.876373 0.199498 0.838203 0.045669
C55   C     C_1   0.816472 0.158484 0.651613 0.033616
C56   C     C_R   0.271847 0.670216 0.609050 -0.006148
C57   C     C_3   0.240310 0.635784 0.259417 -0.116119
C58   C     C_3   0.302315 0.726669 0.229849 -0.137277
C59   C     C_1   0.308845 0.605580 0.111421 0.022048
C60   C     C_1   0.365624 0.734351 0.378529 -0.020348
C61   C     C_3   0.276396 0.560480 0.230031 0.081750
C62   C     C_R   0.381926 0.783942 0.424544 0.538031
C63   C     C_3   0.337568 0.650541 0.200777 0.031481
C64   C     C_3   0.386509 0.605639 0.260997 -0.103276
C65   C     C_3   0.351066 0.682157 0.289603 0.029591
C66   C     C_3   0.447099 0.696445 0.231445 0.003436
C67   C     C_R   0.242539 0.653398 0.832771 0.031190
C68   C     C_3   0.413353 0.773812 0.260857 -0.095853
C69   C     C_1   0.326415 0.631351 0.151606 -0.018370
C70   C     C_1   0.357536 0.705232 0.338602 -0.053865
C71   C     C_R   0.348873 0.133670 0.402800 0.012774
C72   C     C_R   0.377756 0.239766 0.392789 0.007507
C73   C     C_R   0.363777 0.250991 0.347010 0.036953
C74   C     C_R   0.393815 0.115689 0.443988 0.526740
C75   C     C_R   0.308280 0.154818 0.314288 0.042028
C76   C     C_R   0.264531 0.051001 0.326491 -0.116289
C77   C     C_R   0.286251 0.040401 0.370021 -0.130418
C78   C     C_R   0.222503 0.618695 0.874623 -0.156321
C79   C     C_R   0.263113 0.091117 0.147225 -0.101848
C80   C     C_R   0.265146 0.106729 0.101879 -0.008671
C81   C     C_R   0.370719 0.305184 0.127663 -0.113954
C82   C     C_R   0.370084 0.287942 0.171977 -0.104997
C83   C     C_R   0.313397 0.181486 0.181808 0.027247
C84   C     C_1   0.306597 0.166953 0.227878 -0.021920
C85   C     C_1   0.304771 0.160083 0.267156 -0.024980
C86   C     C_R   0.375430 0.746294 0.593890 0.025778
C87   C     C_R   0.314538 0.216015 0.092327 0.033555
C88   C     C_R   0.783050 0.137154 0.403743 -0.011852
C89   C     C_R   0.415195 0.648550 0.885388 0.022845
C90   C     C_R   0.838525 0.085441 0.380430 -0.141136
C91   C     C_R   0.880165 0.112676 0.338474 0.060252
C92   C     C_R   0.860967 0.190671 0.319820 0.020150
C93   C     C_R   0.814420 0.248297 0.344887 -0.154003
C94   C     C_R   0.776906 0.222774 0.386675 -0.137322
C95   C     C_R   0.862570 0.290557 0.166435 -0.004864
C96   C     C_R   0.878612 0.294850 0.119734 0.067174
C97   C     C_R   0.900677 0.130913 0.114393 -0.162973
C98   C     C_R   0.475031 0.797517 0.623422 -0.122766
C99   C     C_R   0.887463 0.128322 0.159786 -0.136095
C100  C     C_R   0.436647 0.682396 0.842539 -0.003835
C101  C     C_R   0.873634 0.209648 0.186170 0.032559
C102  C     C_1   0.872279 0.207331 0.233687 0.033971
C103  C     C_1   0.870523 0.201682 0.273164 0.046582
C104  C     C_R   0.903938 0.217214 0.094250 0.000617
C105  C     C_R   0.283496 0.232719 0.921903 0.543457
C106  C     C_R   0.267291 0.549637 0.938761 0.550056
C107  C     C_R   0.945582 0.222463 0.922733 0.555057
C108  C     C_R   0.293447 0.243280 0.048878 0.532793
C109  C     C_R   0.275496 0.558695 0.065115 0.552025
C110  C     C_R   0.471731 0.781044 0.667849 -0.078217
C111  C     C_R   0.348297 0.680501 0.815828 -0.051929
C112  C     C_R   0.954310 0.232969 0.050254 0.576922
C113  C     C_3   0.322022 0.360080 0.776475 -0.247314
C114  C     C_3   0.334266 0.427178 0.738370 -0.283155
C115  C     C_3   0.220963 0.412257 0.720210 -0.451148
C116  C     C_2   0.802937 0.351491 0.783934 0.626975
C117  C     C_2   0.630227 0.131916 0.712709 0.563424
C118  C     C_2   0.691991 0.984335 0.773249 0.603103
C119  C     C_2   0.900025 0.016894 0.706274 0.588916
C120  C     C_2   0.149511 0.656811 0.806934 0.574256
C121  C     C_3   0.562825 0.729238 0.213554 -0.260683
Cr1   Cr    Cr6+3 0.583430 0.162610 0.509470 1.021313
Cr2   Cr    Cr6+3 0.584210 0.916680 0.495400 1.026973
Cr3   Cr    Cr6+3 0.332380 0.920740 0.495100 1.026517
Cr4   Cr    Cr6+3 0.086810 0.177030 0.983130 1.041522
Cr5   Cr    Cr6+3 0.337180 0.419300 0.994610 1.072728
Cr6   Cr    Cr6+3 0.084840 0.422330 0.995830 1.077563
H1    H     H_    0.139202 0.593260 0.886476 0.187505
H2    H     H_    0.470494 0.862022 0.274263 0.109753
H3    H     H_    0.419272 0.555408 0.274463 0.099791
H4    H     H_    0.221166 0.008696 0.155643 0.106219
H5    H     H_    0.221128 0.977624 0.301365 0.115896
H6    H     H_    0.190520 0.603981 0.667783 0.118383
H7    H     H_    0.260153 0.958289 0.377099 0.144815
H8    H     H_    0.409906 0.358121 0.198763 0.113861
H9    H     H_    0.409002 0.389461 0.121468 0.144264
H10   H     H_    0.800605 0.308754 0.330869 0.108256
H11   H     H_    0.735650 0.265149 0.404041 0.140306
H12   H     H_    0.151889 0.156784 0.705646 0.132080
H13   H     H_    0.846211 0.021754 0.394413 0.166582
H14   H     H_    0.892414 0.064387 0.174780 0.138067
H15   H     H_    0.917119 0.068798 0.095910 0.152092
H16   H     H_    0.555617 0.855982 0.612981 0.157866
H17   H     H_    0.548865 0.824252 0.690113 0.188378
H18   H     H_    0.136559 0.000949 0.760436 0.174636
H19   H     H_    0.162056 0.324886 0.706670 0.156008
H20   H     H_    0.182447 0.441945 0.747396 0.158165
H21   H     H_    0.234590 0.460799 0.692434 0.142169
H22   H     H_    0.389172 0.515266 0.751698 0.204881
H23   H     H_    0.310412 0.981896 0.714638 0.172172
H24   H     H_    0.376640 0.406299 0.710117 0.177892
H25   H     H_    0.246778 0.346743 0.795070 0.140812
H26   H     H_    0.397813 0.407163 0.801099 0.173354
H27   H     H_    0.786643 0.436847 0.840321 0.357413
H28   H     H_    0.542492 0.174998 0.673274 0.334628
H29   H     H_    0.556544 0.913286 0.809063 0.349859
H30   H     H_    0.918296 0.932128 0.650180 0.341269
H31   H     H_    0.104041 0.726432 0.761837 0.348839
H32   H     H_    0.763098 0.721998 0.213000 0.144865
H33   H     H_    0.797064 0.863574 0.212471 0.159709
H34   H     H_    0.473718 0.151777 0.781369 0.179894
H35   H     H_    0.835498 0.824250 0.261916 0.192106
H36   H     H_    0.665034 0.850597 0.271514 0.172511
H37   H     H_    0.635190 0.712227 0.275041 0.164000
H38   H     H_    0.558535 0.655507 0.192571 0.144039
H39   H     H_    0.581632 0.793127 0.191847 0.148182
H40   H     H_    0.127964 0.316380 0.161405 0.344230
H41   H     H_    0.140547 0.785141 0.032806 0.168233
H42   H     H_    0.236340 0.868028 0.994630 0.163443
H43   H     H_    0.279142 0.796457 0.029361 0.164804
H44   H     H_    0.370271 0.996003 0.060489 0.180451
H45   H     H_    0.491657 0.310179 0.727400 0.165632
H46   H     H_    0.276072 0.912294 0.098390 0.162186
H47   H     H_    0.124372 0.952535 0.071063 0.146957
H48   H     H_    0.216474 0.028779 0.031356 0.166075
H49   H     H_    0.387158 0.459235 0.505904 0.156489
H50   H     H_    0.422402 0.539179 0.460178 0.158745
H51   H     H_    0.281884 0.482494 0.479271 0.145118
H52   H     H_    0.281155 0.372055 0.407632 0.174749
H53   H     H_    0.247056 0.292665 0.452727 0.169997
H54   H     H_    0.439559 0.322538 0.462699 0.171958
H55   H     H_    0.490320 0.410704 0.421916 0.139297
H56   H     H_    0.983174 0.359356 0.721236 0.138930
H57   H     H_    0.559409 0.498243 0.271124 0.142177
H58   H     H_    0.589776 0.572190 0.328390 0.155287
H59   H     H_    0.690130 0.536071 0.302909 0.146087
H60   H     H_    0.591250 0.407659 0.354896 0.159890
H61   H     H_    0.546883 0.335402 0.297985 0.165393
H62   H     H_    0.372204 0.361674 0.300854 0.168560
H63   H     H_    0.414991 0.426854 0.357109 0.140382
H64   H     H_    0.799533 0.409117 0.045018 0.338145
H65   H     H_    0.855457 0.571893 0.229212 0.163225
H66   H     H_    0.841206 0.497684 0.275835 0.145310
H67   H     H_    0.043395 0.229238 0.770567 0.124433
H68   H     H_    0.975234 0.614386 0.269099 0.142944
H69   H     H_    0.975000 0.436981 0.244529 0.182569
H70   H     H_    0.995402 0.513334 0.198766 0.213366
H71   H     H_    0.784826 0.396590 0.173771 0.168793
H72   H     H_    0.766859 0.321542 0.218405 0.124885
H73   H     H_    0.950453 0.419693 0.553316 0.164138
H74   H     H_    0.038594 0.430559 0.507006 0.152215
H75   H     H_    0.997651 0.319628 0.539218 0.149670
H76   H     H_    0.197905 0.463776 0.561194 0.164595
H77   H     H_    0.109705 0.450456 0.607203 0.162891
H78   H     H_    0.267833 0.776097 0.216677 0.112298
H79   H     H_    0.095691 0.615940 0.591776 0.156494
H80   H     H_    0.175004 0.622780 0.543707 0.167562
H81   H     H_    0.033010 0.047668 0.263796 0.332360
H82   H     H_    0.720669 0.818800 0.840329 0.373634
H83   H     H_    0.626664 0.603771 0.918224 0.343336
H84   H     H_    0.155875 0.610798 0.272120 0.109856
O1    O     O_R   0.493980 0.188910 0.559650 -0.500222
O2    O     O_R   0.170560 0.527890 0.952050 -0.523718
O3    O     O_R   0.987620 0.318470 0.945550 -0.486282
O4    O     O_R   0.678640 0.153520 0.554450 -0.488636
O5    O     O_R   0.976400 0.159270 0.031530 -0.519657
O6    O     O_R   0.194000 0.188570 0.028560 -0.508309
O7    O     O_R   0.365260 0.335720 0.039020 -0.511015
O8    O     O_R   0.330440 0.515580 0.044910 -0.491193
O9    O     O_R   0.177310 0.536200 0.050190 -0.491006
O10   O     O_R   0.993870 0.326170 0.036530 -0.455701
O11   O     O_3   0.169610 0.339550 0.991190 -0.266594
O12   O     O_R   0.480180 0.824400 0.444640 -0.495130
O13   O     O_R   0.698130 0.004030 0.549500 -0.505049
O14   O     O_R   0.481060 0.827210 0.535360 -0.505859
O15   O     O_R   0.309260 0.811560 0.537660 -0.513892
O16   O     O_R   0.341620 0.023400 0.546290 -0.489555
O17   O     O_R   0.493030 0.185890 0.461780 -0.528193
O18   O     O_R   0.677760 0.150720 0.463730 -0.505139
O19   O     O_R   0.697180 0.001010 0.451640 -0.511812
O20   O     O_2   0.780810 0.402830 0.759441 -0.458088
O21   O     O_R   0.804968 0.375295 0.830717 -0.676949
O22   O     O_2   0.546827 0.045330 0.716943 -0.533058
O23   O     O_R   0.308310 0.808540 0.439800 -0.513894
O24   O     O_R   0.621210 0.205525 0.688235 -0.674970
O25   O     O_2   0.693573 0.898294 0.761602 -0.470668
O26   O     O_R   0.611388 0.987871 0.801291 -0.660561
O27   O     O_2   0.926130 0.968699 0.731039 -0.498268
O28   O     O_R   0.896992 0.991719 0.659513 -0.708508
O29   O     O_2   0.050544 0.594894 0.812498 -0.497103
O30   O     O_R   0.174546 0.732322 0.777111 -0.697141
O31   O     O_2   0.158488 0.377937 0.241499 -0.517370
O32   O     O_R   0.178239 0.399122 0.167841 -0.706356
O33   O     O_2   0.921055 0.475812 0.113754 -0.534168
O34   O     O_R   0.340740 0.020600 0.455570 -0.499762
O35   O     O_R   0.799189 0.345057 0.057279 -0.689891
O36   O     O_2   0.947348 0.984628 0.330857 -0.556284
O37   O     O_R   0.994182 0.091099 0.275990 -0.687229
O38   O     O_2   0.563535 0.685703 0.788539 -0.488491
O39   O     O_R   0.647122 0.799308 0.854786 -0.648855
O40   O     O_2   0.529759 0.696817 0.952769 -0.500395
O41   O     O_R   0.566517 0.597245 0.895660 -0.672009
O42   O     O_3   0.500010 0.000010 0.499990 -0.242186
O43   O     O_R   0.969650 0.150960 0.933380 -0.494418
O44   O     O_R   0.187740 0.180870 0.937580 -0.499150
O45   O     O_R   0.358510 0.327410 0.940870 -0.491513
O46   O     O_R   0.324180 0.507870 0.953930 -0.467984

loop_
_geom_bond_atom_site_label_1
_geom_bond_atom_site_label_2
_ccdc_geom_bond_type
C66   C68   S    
C57   H84   S    
C19   H68   S    
C93   C94   A    
C98   C110  A    
C7    H44   S    
C98   H16   S    
C76   H5    S    
C112  O10   A    
C21   H76   S    
C47   H67   S    
C95   C96   A    
C21   H77   S    
C9    C72   S    
C20   H79   S    
C20   C56   S    
C27   C78   A    
C78   H1    S    
Cr1   O42   S    
C114  C115  S    
C90   C91   A    
C7    C8    S    
C47   C49   S    
C4    H33   S    
Cr4   O11   S    
C8    H42   S    
C26   C89   S    
C48   C54   S    
C12   H62   S    
C15   H58   S    
C39   H23   S    
C11   H49   S    
C101  C102  S    
C106  O2    A    
C1    O13   A    
C62   O23   A    
C10   H52   S    
H29   O26   S    
C22   H73   S    
C28   C29   S    
C35   C37   S    
C80   C87   A    
Cr4   O6    S    
C29   H18   S    
C4    H35   S    
Cr4   O5    S    
C53   C117  S    
C1    C46   S    
C4    H32   S    
C6    H48   S    
C117  O24   S    
C65   C70   S    
C115  H20   S    
C82   H8    S    
Cr1   O4    S    
C50   O18   A    
C60   C62   S    
C18   C19   S    
Cr3   O34   S    
C61   C63   S    
C2    C13   T    
C12   C73   S    
C74   O17   A    
C9    H55   S    
C8    H41   S    
Cr6   O11   S    
C25   O38   D    
C68   H2    S    
C43   C53   S    
C87   C108  S    
C35   C36   S    
C45   C56   A    
C49   C51   S    
Cr2   O19   S    
C46   C55   T    
C1    O4    A    
C106  O46   A    
Cr5   O7    S    
C50   O19   A    
C11   H50   S    
H28   O24   S    
C32   C113  S    
C9    C10   S    
C92   C103  S    
C50   C88   S    
C19   H65   S    
C42   C47   S    
C108  O7    A    
C105  O45   A    
C65   C68   S    
Cr4   O44   S    
C63   C66   S    
Cr1   O17   S    
C29   C33   S    
C21   C22   S    
C116  O21   S    
C35   H45   S    
C73   C75   A    
C113  H25   S    
C121  H39   S    
C36   C41   S    
C102  C103  T    
C28   H12   S    
C114  H24   S    
C42   C43   S    
C24   O15   A    
H83   O41   S    
C97   C99   A    
C8    H43   S    
Cr6   O9    S    
C81   C82   A    
C97   H15   S    
C15   H59   S    
C88   C94   A    
C2    C111  S    
C16   C96   S    
C33   C40   S    
C22   H75   S    
C89   C100  A    
C18   H69   S    
Cr1   O1    S    
C32   C35   S    
C63   C69   S    
C28   C32   S    
C9    H54   S    
C76   C77   A    
C26   O40   D    
C113  H26   S    
C91   C92   A    
C11   H51   S    
C74   O34   A    
C72   C73   A    
C6    H47   S    
C58   H78   S    
Cr2   O12   S    
C115  H21   S    
C33   C37   S    
C107  O43   A    
H30   O28   S    
C104  C112  S    
C51   C53   S    
H31   O30   S    
C64   C66   S    
C23   O37   S    
C61   C64   S    
C75   C76   A    
H81   O37   S    
C109  O8    A    
C118  O25   D    
C43   C116  S    
C14   H61   S    
C25   O39   S    
C25   C100  S    
C56   C86   A    
C83   C84   S    
C115  H19   S    
C60   C70   T    
C49   C52   S    
C79   H4    S    
C15   H57   S    
C29   C39   S    
C18   H70   S    
C17   C18   S    
C66   C121  S    
C30   C40   T    
C17   H71   S    
Cr6   O3    S    
C34   C45   A    
C62   O12   A    
C84   C85   T    
C110  H17   S    
C81   C87   A    
C26   O41   S    
C3    H37   S    
C120  O29   D    
C17   C95   S    
C108  O6    A    
C16   O33   D    
C118  O26   S    
C58   C68   S    
C99   C101  A    
C64   H3    S    
C19   H66   S    
C27   C89   A    
H40   O32   S    
C59   C69   T    
C116  O20   D    
C6    C80   S    
C94   H11   S    
C23   C91   S    
C77   H7    S    
C105  O44   A    
C37   H34   S    
C24   O14   A    
C71   C77   A    
Cr3   O16   S    
C12   H63   S    
Cr5   O8    S    
C81   H9    S    
C75   C85   S    
C113  C114  S    
C67   C120  S    
C44   C107  S    
C67   C111  A    
C58   C63   S    
Cr1   O18   S    
C88   C90   A    
C31   C41   T    
C22   H74   S    
H27   O21   S    
C14   C15   S    
C99   H14   S    
C36   C39   S    
Cr6   O2    S    
C57   C65   S    
Cr3   O42   S    
C47   C48   S    
C71   C74   S    
C90   H13   S    
Cr5   O11   S    
C119  O27   D    
C57   C61   S    
C6    C7    S    
Cr2   O14   S    
C42   C51   S    
C3    H36   S    
C42   H56   S    
C121  H38   S    
Cr2   O13   S    
H82   O39   S    
C45   H6    S    
C27   C106  S    
C31   C38   S    
C67   C78   A    
C114  H22   S    
C43   C48   S    
C64   C65   S    
C5    O31   D    
C96   C104  A    
C12   C14   S    
C10   H53   S    
C13   C34   S    
C30   C105  S    
C109  O9    A    
C32   C33   S    
C79   C83   A    
C14   H60   S    
C117  O22   D    
C119  O28   S    
C57   C58   S    
C49   C119  S    
C107  O3    A    
C5    C61   S    
C34   C110  A    
C7    H46   S    
C92   C93   A    
C59   C109  S    
C95   C101  A    
C17   H72   S    
C51   C55   S    
C120  O30   S    
C112  O5    A    
C23   O36   D    
Cr4   O43   S    
C86   C98   A    
Cr5   O46   S    
C16   O35   S    
Cr2   O42   S    
C97   C104  A    
C93   H10   S    
C10   C11   S    
Cr6   O10   S    
C79   C80   A    
C44   C54   T    
C71   C72   A    
C20   C21   S    
C28   C36   S    
C100  C111  A    
C37   C39   S    
C82   C83   A    
Cr3   O15   S    
H64   O35   S    
C5    O32   S    
Cr5   O45   S    
C20   H80   S    
C38   O1    A    
C48   C52   S    
C24   C86   S    
Cr3   O23   S    
C3    C121  S    
C3    C4    S    
C52   C53   S    
C38   O16   A    
C52   C118  S    
