data_mof_unit_33070.cif
_audit_creation_date              2012-12-10T19:04:13-0500
_audit_creation_method            fapswitch 2.2
_symmetry_space_group_name_H-M    P1
_symmetry_Int_Tables_number       1
_space_group_crystal_system       triclinic
_cell_length_a                    10.652446
_cell_length_b                    10.791812
_cell_length_c                    9.585035
_cell_angle_alpha                 90.014883
_cell_angle_beta                  91.680184
_cell_angle_gamma                 90.62689
_cell_volume                      1101.34804712

loop_
_atom_site_label
_atom_site_type_symbol
_atom_type_description
_atom_site_fract_x
_atom_site_fract_y
_atom_site_fract_z
_atom_type_partial_charge
C1    C     C_R   0.496650 0.262412 0.500047 0.832578
C2    C     C_3   0.960713 0.609522 0.511041 0.517937
C3    C     C_3   0.037043 0.565036 0.386602 -0.377931
C4    C     C_3   0.123554 0.497276 0.493962 -0.167941
C5    C     C_R   0.488646 0.062801 0.625679 -0.040748
C6    C     C_R   0.481497 0.129210 0.500601 -0.015399
C7    C     C_R   0.450220 0.064361 0.376627 -0.174954
C8    C     C_R   0.446662 0.934792 0.376920 -0.144977
C9    C     C_R   0.476594 0.869964 0.500330 -0.018148
C10   C     C_R   0.485193 0.935879 0.624949 -0.022750
C11   C     C_3   0.572290 0.924885 0.748254 -0.435070
C12   C     C_R   0.259761 0.499455 0.498023 0.821688
C13   C     C_3   0.575636 0.066047 0.752126 0.341811
C14   C     C_R   0.553714 0.596641 0.076165 0.147208
C15   C     C_R   0.435008 0.412858 0.072042 -0.058362
C16   C     C_R   0.434362 0.413324 0.923444 -0.021769
C17   C     C_R   0.557923 0.593342 0.929173 0.121093
C18   C     C_3   0.693725 0.631201 0.931878 0.212361
C19   C     C_3   0.687516 0.638849 0.090186 0.134885
C20   C     C_R   0.494200 0.737318 0.499883 0.836289
C21   C     C_R   0.740568 0.496647 0.501297 0.931026
C22   C     C_3   0.041782 0.379767 0.485955 0.468157
C23   C     C_3   0.955197 0.446017 0.380359 0.438921
C24   C     C_3   0.877639 0.493038 0.502072 -0.155965
C25   C     C_3   0.963900 0.425478 0.608504 -0.337960
C26   C     C_3   0.048057 0.544469 0.618057 -0.304117
Cu1   Cu    Cu3+1 0.499990 0.499980 0.640670 1.008297
Cu2   Cu    Cu3+1 0.500010 0.500020 0.359330 1.003884
H1    H     H_    0.662230 0.881135 0.720549 0.244252
H2    H     H_    0.530704 0.104974 0.845536 0.072415
H3    H     H_    0.384271 0.340733 0.125715 0.127503
H4    H     H_    0.382860 0.341749 0.866338 0.110726
H5    H     H_    0.708421 0.720201 0.875921 0.135171
H6    H     H_    0.747878 0.571151 0.146666 0.177036
H7    H     H_    0.933252 0.368087 0.697095 0.226685
H8    H     H_    0.094025 0.586810 0.712111 0.155084
H9    H     H_    0.068473 0.621591 0.297159 0.164649
H10   H     H_    0.433897 0.112845 0.278961 0.153434
H11   H     H_    0.426368 0.885904 0.280253 0.195246
H12   H     H_    0.524303 0.882583 0.837993 0.191563
N1    N     N_R   0.500800 0.500930 0.147930 -0.198930
N2    N     N_R   0.500800 0.500890 0.852020 -0.152946
O1    O     O_R   0.500000 0.319640 0.618810 -0.572899
O2    O     O_R   0.500010 0.319680 0.381230 -0.589874
O3    O     O_R   0.316850 0.499950 0.618770 -0.610396
O4    O     O_R   0.316860 0.499990 0.381190 -0.595432
O5    O     O_R   0.499990 0.680320 0.618770 -0.605916
O6    O     O_R   0.500000 0.680360 0.381190 -0.552457
O7    O     O_R   0.683140 0.500010 0.618810 -0.502603
O8    O     O_R   0.683150 0.500050 0.381230 -0.561899
O9    O     O_3   0.897394 0.392075 0.260274 -0.560166
C27   C     C_3   0.989571 0.360479 0.164435 -0.215902
H13   H     H_    0.048864 0.283631 0.204439 0.204745
H14   H     H_    0.049262 0.441501 0.136942 0.114794
H15   H     H_    0.941551 0.327240 0.066996 0.215342
S1    S     S_3+6 0.729224 0.128882 0.723441 -0.007737
O10   O     O_2   0.729581 0.263731 0.762016 -0.285125
O11   O     O_2   0.824189 0.063028 0.814774 -0.275953
O12   O     O_3   0.766736 0.112109 0.555195 -0.519826
H16   H     H_    0.830752 0.177181 0.538402 0.371139
O13   O     O_3   0.773389 0.535014 0.891337 -0.518421
C28   C     C_3   0.898774 0.577866 0.906324 -0.253483
H17   H     H_    0.917270 0.653419 0.830661 0.190508
H18   H     H_    0.962482 0.499829 0.887624 0.163823
H19   H     H_    0.922638 0.611178 0.013695 0.165232
S2    S     S_3+6 0.710762 0.794697 0.151203 -0.007602
O14   O     O_2   0.720368 0.796460 0.307708 -0.227603
O15   O     O_2   0.831265 0.844936 0.094750 -0.288614
O16   O     O_3   0.591332 0.884059 0.095525 -0.602903
H20   H     H_    0.620215 0.970244 0.113925 0.386459
O17   O     O_3   0.087271 0.259271 0.462606 -0.588130
C29   C     C_3   0.135895 0.209222 0.588404 -0.337269
H21   H     H_    0.058927 0.186079 0.660034 0.199651
H22   H     H_    0.205945 0.272200 0.640652 0.157903
H23   H     H_    0.184549 0.121705 0.564460 0.184848
O18   O     O_3   0.908108 0.727802 0.527928 -0.549292
C30   C     C_3   0.004603 0.818078 0.531294 -0.172550
H24   H     H_    0.054503 0.820971 0.431037 0.155218
H25   H     H_    0.072106 0.802716 0.620164 0.115308
H26   H     H_    0.961893 0.910247 0.546379 0.235151

loop_
_geom_bond_atom_site_label_1
_geom_bond_atom_site_label_2
_ccdc_geom_bond_type
S2    O15   D    
C3    C23   S    
C21   O7    A    
C7    C8    A    
C30   H24   S    
Cu2   O4    S    
O16   H20   S    
C5    C6    A    
S2    O16   S    
C15   C16   A    
Cu2   N1    S    
C26   H8    S    
S1    O10   D    
C19   S2    S    
C18   C19   S    
C17   N2    A    
C28   H18   S    
C9    C20   S    
Cu2   O8    S    
C1    O1    A    
C8    C9    A    
C22   C25   S    
C23   C24   S    
C8    H11   S    
C4    C12   S    
C9    C10   A    
C5    C13   S    
C27   H15   S    
C13   S1    S    
Cu1   O3    S    
S2    O14   D    
O12   H16   S    
C14   C17   A    
C11   H12   S    
C29   H23   S    
C21   O8    A    
C27   H14   S    
C30   H25   S    
C1    C6    S    
C13   H2    S    
C24   C25   S    
C15   N1    A    
C12   O4    A    
C12   O3    A    
C25   C26   S    
Cu2   O2    S    
O9    C27   S    
C28   H17   S    
C4    C22   S    
C1    O2    A    
C23   O9    S    
C17   C18   S    
C2    C26   S    
O18   C30   S    
C11   H1    S    
C20   O6    A    
C25   H7    S    
C14   N1    A    
C29   H22   S    
C2    C24   S    
C3    C4    S    
C16   N2    A    
C22   O17   S    
C2    O18   S    
C27   H13   S    
C30   H26   S    
Cu1   O5    S    
Cu2   O6    S    
C28   H19   S    
C14   C19   S    
C29   H21   S    
C19   H6    S    
C4    C26   S    
C18   O13   S    
C15   H3    S    
C6    C7    A    
C16   H4    S    
S1    O12   S    
C2    C3    S    
O17   C29   S    
C11   C13   S    
Cu1   N2    S    
C7    H10   S    
S1    O11   D    
O13   C28   S    
C18   H5    S    
C20   O5    A    
C10   C11   S    
Cu1   O1    S    
C5    C10   A    
C3    H9    S    
C21   C24   S    
Cu1   Cu2   S    
C22   C23   S    
Cu1   O7    S    
