data_mof_unit_5335.cif
_audit_creation_date              2012-12-10T18:02:07-0500
_audit_creation_method            fapswitch 2.2
_symmetry_space_group_name_H-M    P1
_symmetry_Int_Tables_number       1
_space_group_crystal_system       triclinic
_cell_length_a                    10.771081
_cell_length_b                    9.519811
_cell_length_c                    23.519954
_cell_angle_alpha                 89.968212
_cell_angle_beta                  89.946094
_cell_angle_gamma                 90.010769
_cell_volume                      2411.7029765

loop_
_atom_site_label
_atom_site_type_symbol
_atom_type_description
_atom_site_fract_x
_atom_site_fract_y
_atom_site_fract_z
_atom_type_partial_charge
C1    C     C_R   0.262619 0.499961 0.500275 0.837821
C2    C     C_R   0.737382 0.500039 0.499726 0.837815
C3    C     C_R   0.502558 0.627289 0.238817 -0.102261
C4    C     C_R   0.505586 0.627128 0.761124 -0.101678
C5    C     C_R   0.502590 0.627444 0.298091 -0.218054
C6    C     C_R   0.505394 0.627295 0.701850 -0.217707
C7    C     C_R   0.498692 0.500072 0.328309 -0.040511
C8    C     C_R   0.501315 0.499927 0.671691 -0.040529
C9    C     C_R   0.494329 0.372716 0.298152 -0.217739
C10   C     C_R   0.497710 0.372542 0.701909 -0.218002
C11   C     C_R   0.494146 0.372879 0.238877 -0.101623
C12   C     C_R   0.497748 0.372696 0.761182 -0.102287
C13   C     C_R   0.498420 0.500083 0.209016 0.356464
C14   C     C_R   0.501603 0.499911 0.790982 0.356592
C15   C     C_R   0.066295 0.474064 0.448760 0.119385
C16   C     C_R   0.933708 0.526041 0.551237 0.119377
C17   C     C_R   0.935696 0.474375 0.448149 0.129547
C18   C     C_R   0.064307 0.525616 0.551856 0.129519
C19   C     C_R   0.871398 0.500197 0.499515 -0.106503
C20   C     C_R   0.128604 0.499810 0.500488 -0.106488
C21   C     C_R   0.424296 0.074456 0.464098 -0.015343
C22   C     C_R   0.575700 0.925544 0.535904 -0.015354
C23   C     C_R   0.575699 0.074373 0.535902 -0.015030
C24   C     C_R   0.424299 0.925627 0.464098 -0.015046
C25   C     C_R   0.499272 0.500034 0.390894 0.779801
C26   C     C_R   0.500731 0.499966 0.609106 0.779776
C27   C     C_R   0.605563 0.541824 0.880532 0.533308
C28   C     C_R   0.394455 0.458191 0.119463 0.533292
C29   C     C_R   0.396338 0.458052 0.880311 0.533943
C30   C     C_R   0.603696 0.541913 0.119684 0.533927
C31   C     C_R   0.393750 0.457017 0.939947 -0.014997
C32   C     C_R   0.606279 0.542962 0.060048 -0.014983
C33   C     C_R   0.500250 0.499979 0.969993 -0.017630
C34   C     C_R   0.499776 0.500011 0.030002 -0.017631
C35   C     C_R   0.607221 0.542913 0.940175 -0.014616
C36   C     C_R   0.392803 0.457088 0.059820 -0.014602
C37   C     C_R   0.287514 0.414551 0.970109 -0.161332
C38   C     C_R   0.712515 0.585430 0.029886 -0.161326
C39   C     C_R   0.287045 0.414588 0.029428 -0.161446
C40   C     C_R   0.712979 0.585410 0.970567 -0.161452
Cu1   Cu    Cu3+1 0.500000 0.640660 0.500000 0.943611
Cu2   Cu    Cu3+1 0.500000 0.359340 0.500000 0.943611
H1    H     H_    0.204422 0.381164 0.948010 0.191001
H2    H     H_    0.795608 0.618811 0.051985 0.191004
H3    H     H_    0.203607 0.381228 0.051346 0.190911
H4    H     H_    0.796415 0.618776 0.948649 0.190907
H5    H     H_    0.505504 0.726010 0.215961 0.142172
H6    H     H_    0.508310 0.725854 0.783935 0.141892
H7    H     H_    0.505864 0.727171 0.320171 0.158519
H8    H     H_    0.508391 0.727032 0.679720 0.157255
H9    H     H_    0.491090 0.272990 0.320283 0.157217
H10   H     H_    0.494671 0.272806 0.679829 0.158482
H11   H     H_    0.491200 0.274158 0.216069 0.141972
H12   H     H_    0.495030 0.273967 0.784039 0.142083
H13   H     H_    0.363638 0.130578 0.435341 0.118126
H14   H     H_    0.636353 0.869422 0.564662 0.118124
H15   H     H_    0.636351 0.130431 0.564662 0.122265
H16   H     H_    0.363646 0.869569 0.435339 0.122279
N1    N     N_R   0.501175 0.499915 0.851957 -0.470107
N2    N     N_R   0.498850 0.500076 0.148039 -0.470077
N3    N     N_R   0.500000 0.852070 0.500000 -0.158527
N4    N     N_R   0.500000 0.147930 0.500000 -0.158522
O1    O     O_R   0.319640 0.618740 0.500000 -0.577310
O2    O     O_R   0.680360 0.381260 0.500000 -0.577337
O3    O     O_R   0.680360 0.618740 0.500000 -0.577178
O4    O     O_R   0.319640 0.381260 0.500000 -0.577178
O5    O     O_R   0.499960 0.618810 0.417880 -0.584059
O6    O     O_R   0.500040 0.381190 0.582120 -0.584062
O7    O     O_R   0.500040 0.618810 0.582120 -0.587266
O8    O     O_R   0.499960 0.381190 0.417880 -0.587288
O9    O     O_2   0.707636 0.581254 0.851279 -0.534962
O10   O     O_2   0.292365 0.418805 0.148714 -0.535000
O11   O     O_2   0.294703 0.418627 0.850843 -0.533795
O12   O     O_2   0.705345 0.581297 0.149151 -0.533836
C41   C     C_3   0.142123 0.448359 0.395039 -0.822520
H17   H     H_    0.200471 0.353229 0.400599 0.226528
H18   H     H_    0.086585 0.431956 0.356119 0.246993
H19   H     H_    0.203465 0.539979 0.386862 0.217944
C42   C     C_3   0.857885 0.551981 0.604941 -0.822479
H20   H     H_    0.799512 0.647065 0.599306 0.226546
H21   H     H_    0.796566 0.460382 0.613194 0.217946
H22   H     H_    0.913426 0.568637 0.643842 0.246967
C43   C     C_3   0.866356 0.449068 0.392812 -0.808090
H23   H     H_    0.764139 0.452736 0.396816 0.217129
H24   H     H_    0.891997 0.531053 0.361323 0.238915
H25   H     H_    0.890077 0.343558 0.375895 0.237421
C44   C     C_3   0.133652 0.550801 0.607201 -0.808007
H26   H     H_    0.235862 0.546757 0.603219 0.217040
H27   H     H_    0.110185 0.656422 0.624076 0.237378
H28   H     H_    0.107771 0.468965 0.638710 0.238967

loop_
_geom_bond_atom_site_label_1
_geom_bond_atom_site_label_2
_ccdc_geom_bond_type
C15   C41   S    
C44   H26   S    
C24   N3    A    
C8    C26   S    
Cu1   Cu2   S    
C9    H9    S    
Cu1   N3    S    
C2    O3    A    
C10   H10   S    
C21   H13   S    
Cu1   O5    S    
C13   N2    S    
C40   H4    S    
C14   N1    S    
C6    C8    A    
Cu1   O7    S    
C38   C40   A    
C30   O12   S    
C29   O11   S    
Cu2   O8    S    
C15   C17   A    
C33   C35   A    
C23   N4    A    
C29   N1    A    
C25   O5    A    
C31   C33   A    
C32   C38   A    
Cu2   N4    S    
C18   C20   A    
C3    C13   A    
C39   H3    S    
Cu2   O6    S    
C5    H7    S    
C28   O10   S    
C1    O1    A    
C2    O2    A    
C1    O4    A    
C28   N2    A    
C15   C20   A    
C24   H16   S    
C4    C6    A    
C42   H21   S    
Cu1   O3    S    
C27   C35   A    
C31   C37   A    
C30   N2    A    
C17   C43   S    
C32   C34   A    
C37   H1    S    
C41   H17   S    
C38   H2    S    
C41   H18   S    
C43   H23   S    
C29   C31   A    
C33   C34   A    
C6    H8    S    
C9    C11   A    
C21   N4    A    
C10   C12   A    
C8    C10   A    
C43   H24   S    
C12   C14   A    
C44   H27   S    
C44   H28   S    
Cu1   O1    S    
Cu2   O2    S    
C27   O9    S    
C5    C7    A    
C4    H6    S    
C23   H15   S    
C1    C20   S    
C2    C19   S    
C36   C39   A    
C3    C5    A    
C11   H11   S    
C42   H22   S    
C22   H14   S    
C18   C44   S    
C7    C25   S    
C16   C42   S    
C26   O6    A    
C35   C40   A    
C37   C39   A    
C27   N1    A    
C22   N3    A    
C30   C32   A    
C11   C13   A    
C16   C19   A    
C3    H5    S    
C17   C19   A    
C34   C36   A    
C4    C14   A    
C41   H19   S    
C42   H20   S    
C7    C9    A    
C43   H25   S    
C28   C36   A    
C16   C18   A    
C21   C24   A    
Cu2   O4    S    
C26   O7    A    
C22   C23   A    
C25   O8    A    
C12   H12   S    
