data_mof_unit_20157.cif
_audit_creation_date              2012-10-26T20:00:51-0400
_audit_creation_method            fapswitch 2.2
_symmetry_space_group_name_H-M    P1
_symmetry_Int_Tables_number       1
_space_group_crystal_system       triclinic
_cell_length_a                    11.663186
_cell_length_b                    13.003638
_cell_length_c                    13.473391
_cell_angle_alpha                 91.978223
_cell_angle_beta                  76.578429
_cell_angle_gamma                 99.815305
_cell_volume                      1958.49628131

loop_
_atom_site_label
_atom_site_type_symbol
_atom_type_description
_atom_site_fract_x
_atom_site_fract_y
_atom_site_fract_z
_atom_type_partial_charge
C1    C     C_R   0.520825 0.700871 0.501583 0.546345
C2    C     C_R   0.398763 0.486070 0.807916 -0.008054
C3    C     C_R   0.467112 0.185731 0.497663 0.000182
C4    C     C_R   0.436674 0.498431 0.696146 0.538678
C5    C     C_R   0.532766 0.814260 0.502706 0.000087
C6    C     C_R   0.651742 0.984592 0.511894 -0.138878
C7    C     C_R   0.640956 0.876508 0.511057 -0.138305
C8    C     C_R   0.435251 0.860797 0.495381 -0.130620
C9    C     C_R   0.445350 0.968809 0.496143 0.047968
C10   C     C_R   0.554461 0.031180 0.504426 0.048120
C11   C     C_R   0.564588 0.139194 0.505107 -0.130304
C12   C     C_R   0.458001 0.469955 0.969525 0.047280
C13   C     C_R   0.358883 0.123477 0.489425 -0.137635
C14   C     C_R   0.348064 0.015393 0.488685 -0.139357
C15   C     C_R   0.947069 0.599881 0.592084 -0.175809
C16   C     C_R   0.479132 0.299127 0.498547 0.551760
C17   C     C_R   0.828026 0.590263 0.583281 0.049356
C18   C     C_R   0.856426 0.456198 0.460830 0.044258
C19   C     C_R   0.977167 0.463560 0.466611 0.008052
C20   C     C_R   0.022804 0.536238 0.533448 0.008159
C21   C     C_R   0.143391 0.543423 0.539497 0.044387
C22   C     C_R   0.172540 0.410597 0.415710 0.043237
C23   C     C_R   0.480739 0.515556 0.870865 0.019195
C24   C     C_R   0.053240 0.400500 0.407355 -0.177665
C25   C     C_R   0.563717 0.505286 0.304268 0.548689
C26   C     C_R   0.744842 0.584715 0.041770 -0.131992
C27   C     C_R   0.601206 0.514850 0.193223 -0.004533
C28   C     C_R   0.287391 0.426007 0.848860 -0.148638
C29   C     C_R   0.264885 0.379938 0.944193 -0.122224
C30   C     C_R   0.352744 0.392899 0.000989 0.010171
C31   C     C_3   0.337162 0.310973 0.082188 -0.413232
C32   C     C_R   0.543127 0.502419 0.030100 0.028460
C33   C     C_R   0.656463 0.561454 0.985506 0.051093
C34   C     C_R   0.676512 0.604233 0.888695 -0.138687
C35   C     C_R   0.586344 0.588128 0.835943 -0.119689
C36   C     C_R   0.514920 0.488040 0.135860 -0.139802
C37   C     C_R   0.718084 0.558918 0.144966 -0.136767
Cu1   Cu    Cu3+1 0.386470 0.492430 0.492410 0.929662
Cu2   Cu    Cu3+1 0.613530 0.507570 0.507590 0.933239
H1    H     H_    0.785913 0.580610 0.188294 0.129703
H2    H     H_    0.020913 0.343907 0.355042 0.082720
H3    H     H_    0.770875 0.640566 0.627676 0.112049
H4    H     H_    0.759291 0.655786 0.856364 0.097283
H5    H     H_    0.820227 0.400699 0.409622 0.113706
H6    H     H_    0.832799 0.626888 0.007095 0.105680
H7    H     H_    0.423576 0.462471 0.175651 0.135076
H8    H     H_    0.222164 0.404990 0.802861 0.133174
H9    H     H_    0.182583 0.325223 0.969276 0.116275
H10   H     H_    0.600623 0.633378 0.767123 0.125091
H11   H     H_    0.648480 0.186779 0.511457 0.120763
H12   H     H_    0.282628 0.158181 0.483517 0.127617
H13   H     H_    0.423951 0.299477 0.096620 0.137519
H14   H     H_    0.275803 0.331285 0.153507 0.114995
H15   H     H_    0.297238 0.233790 0.056491 0.130669
H16   H     H_    0.735846 0.031601 0.518330 0.102535
H17   H     H_    0.263950 0.968383 0.482279 0.102190
H18   H     H_    0.717219 0.841799 0.516936 0.126626
H19   H     H_    0.351370 0.813215 0.488995 0.120326
H20   H     H_    0.179471 0.598718 0.590930 0.113270
H21   H     H_    0.230607 0.361679 0.369867 0.118047
H22   H     H_    0.979622 0.656934 0.643915 0.080221
N1    N     N_R   0.215880 0.481050 0.481000 -0.228517
N2    N     N_R   0.784100 0.518950 0.519000 -0.227951
O1    O     O_R   0.419710 0.645650 0.494620 -0.508730
O2    O     O_R   0.611450 0.658430 0.507430 -0.514018
O3    O     O_R   0.357340 0.490460 0.641450 -0.505460
O4    O     O_R   0.549080 0.503250 0.654260 -0.499643
O5    O     O_R   0.388550 0.341570 0.492570 -0.508941
O6    O     O_R   0.580290 0.354350 0.505380 -0.506919
O7    O     O_R   0.450920 0.496750 0.345740 -0.507359
O8    O     O_R   0.642660 0.509540 0.358550 -0.504187

loop_
_geom_bond_atom_site_label_1
_geom_bond_atom_site_label_2
_ccdc_geom_bond_type
C6    C10   A    
C4    O4    A    
C2    C4    S    
C9    C14   A    
Cu1   O7    S    
C26   C37   A    
C36   H7    S    
C6    C7    A    
C25   O8    A    
C19   C24   A    
C18   H5    S    
C27   C36   A    
C22   N1    A    
Cu2   N2    S    
C9    C10   A    
C31   H13   S    
C26   C33   A    
C14   H17   S    
C19   C20   A    
C3    C13   A    
C6    H16   S    
C12   C30   A    
C32   C33   A    
C33   C34   A    
Cu2   O6    S    
C28   H8    S    
C11   H11   S    
C13   H12   S    
C13   C14   A    
C17   N2    A    
C4    O3    A    
C24   H2    S    
Cu2   O2    S    
C12   C23   A    
C21   N1    A    
C29   C30   A    
C27   C37   A    
C16   O5    A    
C35   H10   S    
C32   C36   A    
C22   C24   A    
C28   C29   A    
Cu1   O5    S    
C21   H20   S    
C37   H1    S    
Cu1   O1    S    
C3    C16   S    
C31   H15   S    
C22   H21   S    
C15   C20   A    
C23   C35   A    
C1    C5    S    
C18   N2    A    
C31   H14   S    
C5    C8    A    
C25   C27   S    
C10   C11   A    
C16   O6    A    
C29   H9    S    
C1    O1    A    
C3    C11   A    
C20   C21   A    
C5    C7    A    
C34   C35   A    
C2    C23   A    
C15   C17   A    
C15   H22   S    
Cu2   O8    S    
C30   C31   S    
C18   C19   A    
C2    C28   A    
C25   O7    A    
C26   H6    S    
C8    H19   S    
C17   H3    S    
Cu2   O4    S    
C1    O2    A    
C7    H18   S    
C12   C32   A    
C34   H4    S    
Cu1   O3    S    
C8    C9    A    
Cu1   N1    S    
Cu1   Cu2   S    
