data_mof_unit_9829.cif
_audit_creation_date              2012-12-11T15:55:08-0500
_audit_creation_method            fapswitch 2.2
_symmetry_space_group_name_H-M    P1
_symmetry_Int_Tables_number       1
_space_group_crystal_system       triclinic
_cell_length_a                    8.398055
_cell_length_b                    18.713288
_cell_length_c                    19.009776
_cell_angle_alpha                 99.07241
_cell_angle_beta                  94.346839
_cell_angle_gamma                 91.970952
_cell_volume                      2938.36563564

loop_
_atom_site_label
_atom_site_type_symbol
_atom_type_description
_atom_site_fract_x
_atom_site_fract_y
_atom_site_fract_z
_atom_type_partial_charge
Ba1   Ba    Ba6+2 0.152460 0.535140 0.468980 1.645866
Ba2   Ba    Ba6+2 0.657710 0.464850 0.530960 1.633091
C1    C     C_3   0.448812 0.733013 0.227423 0.273820
C2    C     C_3   0.401211 0.696499 0.289858 0.421940
C3    C     C_3   0.513976 0.684751 0.638579 0.299942
C4    C     C_3   0.529296 0.766771 0.659561 -0.382211
C5    C     C_3   0.859152 0.267280 0.660088 0.408117
C6    C     C_3   0.837500 0.185551 0.666507 -0.247634
C7    C     C_3   0.465520 0.290568 0.712686 0.659815
C8    C     C_3   0.550690 0.271585 0.782089 0.354475
C9    C     C_R   0.001780 0.952526 0.534789 0.014478
C10   C     C_R   0.079026 0.906673 0.579064 0.043308
C11   C     C_R   0.232007 0.041192 0.539485 -0.097420
C12   C     C_3   0.893377 0.733454 0.330688 0.369620
C13   C     C_R   0.067761 0.021629 0.524969 0.014434
C14   C     C_R   0.291377 0.111276 0.538133 -0.082826
C15   C     C_R   0.190790 0.164235 0.518098 -0.080846
C16   C     C_R   0.031300 0.142985 0.491788 -0.004771
C17   C     C_R   0.970013 0.070974 0.494175 0.026461
C18   C     C_R   0.246428 0.237163 0.522093 0.066755
C19   C     C_R   0.148345 0.286694 0.492691 -0.199044
C20   C     C_R   0.988506 0.266768 0.467073 0.031468
C21   C     C_R   0.932879 0.193394 0.463207 -0.060707
C22   C     C_R   0.848028 0.928696 0.501024 0.013089
C23   C     C_3   0.905464 0.810719 0.313651 -0.291022
C24   C     C_R   0.789494 0.855754 0.500360 -0.001785
C25   C     C_R   0.884785 0.806478 0.532429 -0.060302
C26   C     C_R   0.024425 0.834208 0.574176 -0.015891
C27   C     C_R   0.784136 0.167784 0.428638 -0.021676
C28   C     C_R   0.724399 0.097948 0.430193 -0.087872
C29   C     C_R   0.812369 0.048818 0.465177 0.008950
C30   C     C_R   0.751156 0.977413 0.468461 0.026582
C31   C     C_R   0.593653 0.953404 0.441729 -0.101463
C32   C     C_R   0.634547 0.832444 0.468350 -0.032183
C33   C     C_R   0.537318 0.882888 0.441616 -0.098738
C34   C     C_3   0.808804 0.387569 0.311530 0.314910
C35   C     C_R   0.580551 0.759450 0.464235 -0.008182
C36   C     C_R   0.683251 0.709802 0.489188 -0.290351
C37   C     C_R   0.832919 0.731997 0.525025 0.045724
C38   C     C_R   0.605117 0.534710 0.303494 -0.269626
C39   C     C_R   0.454956 0.501429 0.280013 0.103227
C40   C     C_R   0.397547 0.497906 0.208108 -0.101258
C41   C     C_R   0.492573 0.523734 0.158486 -0.018565
C42   C     C_R   0.645833 0.555563 0.183135 -0.156755
C43   C     C_R   0.702087 0.560774 0.255459 -0.014398
C44   C     C_R   0.441358 0.577433 0.046396 -0.021077
C45   C     C_3   0.862439 0.380872 0.235352 -0.208761
C46   C     C_R   0.387233 0.573299 0.974177 -0.057487
C47   C     C_R   0.322156 0.507895 0.934256 0.019110
C48   C     C_R   0.314921 0.446384 0.967873 -0.060110
C49   C     C_R   0.372019 0.449286 0.040080 0.046576
C50   C     C_R   0.433319 0.516302 0.080947 0.060788
C51   C     C_R   0.120859 0.468547 0.827919 -0.060120
C52   C     C_R   0.078293 0.458767 0.753803 0.114985
C53   C     C_R   0.331677 0.518468 0.736308 0.024049
C54   C     C_R   0.374068 0.528107 0.810063 -0.129765
C55   C     C_R   0.270415 0.502344 0.856591 0.010457
C56   C     C_3   0.012870 0.627445 0.692418 0.317903
C57   C     C_R   0.184785 0.483798 0.708966 -0.186281
C58   C     C_3   0.009648 0.648386 0.773463 -0.223980
C59   C     C_3   0.368873 0.296814 0.324384 0.326203
C60   C     C_3   0.479945 0.244548 0.283686 -0.353237
H1    H     H_    0.316220 0.649155 0.270633 0.091168
H2    H     H_    0.839486 0.431674 0.213907 0.076238
H3    H     H_    0.993513 0.372930 0.236788 0.147059
H4    H     H_    0.135756 0.615532 0.678507 -0.006724
H5    H     H_    0.931325 0.578900 0.674541 0.030591
H6    H     H_    0.024627 0.600049 0.799653 0.041611
H7    H     H_    0.891249 0.669781 0.785838 0.134048
H8    H     H_    0.429325 0.314075 0.378076 0.043698
H9    H     H_    0.435153 0.230706 0.226157 0.129957
H10   H     H_    0.488376 0.193581 0.307703 0.070950
H11   H     H_    0.601767 0.268987 0.286501 0.139935
H12   H     H_    0.512868 0.675369 0.312621 -0.205934
H13   H     H_    0.535885 0.699324 0.197590 -0.027113
H14   H     H_    0.630599 0.664842 0.622271 0.018074
H15   H     H_    0.421220 0.671477 0.593058 0.067772
H16   H     H_    0.624559 0.781962 0.703793 0.136060
H17   H     H_    0.560391 0.792411 0.613413 0.058344
H18   H     H_    0.414075 0.787583 0.677292 0.121173
H19   H     H_    0.509159 0.787025 0.247931 -0.003086
H20   H     H_    0.837381 0.847148 0.350920 0.042442
H21   H     H_    0.750034 0.283956 0.633110 0.050236
H22   H     H_    0.952342 0.272168 0.622869 0.060445
H23   H     H_    0.712942 0.165588 0.649000 0.149818
H24   H     H_    0.908264 0.153925 0.626520 0.065660
H25   H     H_    0.512098 0.345223 0.706504 -0.033224
H26   H     H_    0.537937 0.316646 0.827039 0.002162
H27   H     H_    0.967961 0.731644 0.381998 0.070390
H28   H     H_    0.679207 0.268796 0.776906 -0.011458
H29   H     H_    0.417807 0.122934 0.552082 0.121804
H30   H     H_    0.089321 0.800769 0.606776 0.099594
H31   H     H_    0.711302 0.200960 0.399018 0.097317
H32   H     H_    0.415833 0.868799 0.419733 0.108352
H33   H     H_    0.642134 0.653668 0.484275 0.072240
H34   H     H_    0.318242 0.002152 0.550349 0.090917
H35   H     H_    0.608803 0.084082 0.401956 0.060139
H36   H     H_    0.764827 0.720001 0.337658 -0.084776
H37   H     H_    0.508555 0.987991 0.420801 0.069351
H38   H     H_    0.487835 0.555141 0.831006 0.071131
H39   H     H_    0.395363 0.621525 0.949484 0.092777
H40   H     H_    0.489876 0.628892 0.075521 0.120937
H41   H     H_    0.280029 0.473251 0.190670 0.106912
H42   H     H_    0.269268 0.395204 0.936890 0.132908
H43   H     H_    0.040406 0.447841 0.862643 0.073265
H44   H     H_    0.722368 0.574822 0.146060 0.099562
H45   H     H_    0.152158 0.476620 0.652036 0.055810
H46   H     H_    0.033451 0.831123 0.320336 0.156737
H47   H     H_    0.650955 0.536228 0.358482 0.066198
H48   H     H_    0.854111 0.812258 0.257970 0.158381
H49   H     H_    0.678270 0.395047 0.310540 -0.030073
H50   H     H_    0.872987 0.436563 0.342871 0.069329
O1    O     O_2   0.118870 0.674530 0.547560 -0.469394
O2    O     O_3   0.341473 0.355618 0.286421 -0.635945
O3    O     O_3   0.949564 0.685227 0.274401 -0.525514
O4    O     O_2   0.691430 0.325420 0.452420 -0.472843
O5    O     O_3   0.939830 0.414660 0.457830 -0.499291
O6    O     O_3   0.456020 0.368240 0.581510 -0.468853
O7    O     O_3   0.842330 0.323590 0.338670 -0.657097
O8    O     O_3   0.374170 0.535780 0.585810 -0.488192
O9    O     O_3   0.871300 0.403980 0.619270 -0.491608
O10   O     O_2   0.741437 0.435734 0.743519 -0.530892
O11   O     O_3   0.895468 0.314273 0.725947 -0.559558
O12   O     O_3   0.870460 0.585330 0.542110 -0.490729
O13   O     O_3   0.436130 0.464210 0.414140 -0.509456
O14   O     O_2   0.629420 0.533310 0.672080 -0.460967
O15   O     O_3   0.470670 0.654622 0.697714 -0.647426
O16   O     O_2   0.573575 0.243510 0.524114 -0.526512
O17   O     O_3   0.489277 0.239175 0.652164 -0.649402
O18   O     O_3   0.354280 0.631750 0.418430 -0.470826
O19   O     O_2   0.245420 0.758931 0.471187 -0.495755
O20   O     O_3   0.961800 0.685735 0.660664 -0.645602
O21   O     O_3   0.329938 0.746558 0.340168 -0.606543
O22   O     O_2   0.180880 0.466650 0.327890 -0.473261
O23   O     O_3   0.939000 0.596010 0.380670 -0.497677
O24   O     O_2   0.035498 0.550934 0.252090 -0.472660
P1    P     P_3+3 0.947550 0.663200 0.567530 0.972402
P2    P     P_3+3 0.354660 0.445020 0.336980 0.956156
P3    P     P_3+3 0.906300 0.596756 0.288997 0.992444
P4    P     P_3+3 0.862750 0.336790 0.432410 0.955627
P5    P     P_3+3 0.894641 0.405474 0.711871 1.021998
P6    P     P_3+3 0.377206 0.725304 0.425705 0.955396
P7    P     P_3+3 0.452902 0.560198 0.674983 0.949140
P8    P     P_3+3 0.440936 0.272497 0.571023 0.960391
C61   C     C_3   0.775113 0.318188 0.184246 -0.407130
H51   H     H_    0.807983 0.265576 0.200011 0.157389
H52   H     H_    0.643710 0.323163 0.184402 0.123898
H53   H     H_    0.809669 0.319258 0.129069 0.138806
C62   C     C_3   0.141343 0.705257 0.804982 -0.361795
H54   H     H_    0.260887 0.682937 0.796934 0.133990
H55   H     H_    0.130462 0.754742 0.779460 0.153134
H56   H     H_    0.131101 0.720486 0.863385 0.145976
C63   C     C_3   0.208383 0.253677 0.324543 -0.366938
H57   H     H_    0.166091 0.225758 0.269789 0.129357
H58   H     H_    0.220849 0.211924 0.361098 0.061865
H59   H     H_    0.113757 0.290762 0.340618 0.116391
S1    S     S_3+6 0.280755 0.743267 0.166442 -0.042946
O25   O     O_2   0.339574 0.762888 0.098852 -0.282230
O26   O     O_2   0.181352 0.673238 0.148627 -0.261472
O27   O     O_3   0.167332 0.809361 0.202602 -0.471653
H60   H     H_    0.243576 0.850734 0.221832 0.320101
C64   C     C_3   0.882747 0.162946 0.739596 -0.194179
H61   H     H_    0.927342 0.208746 0.781583 0.218966
H62   H     H_    0.778392 0.135497 0.757822 0.172217
H63   H     H_    0.976053 0.122096 0.734592 0.137202
S2    S     S_3+6 0.260340 0.293358 0.721839 -0.085950
O28   O     O_2   0.228031 0.328856 0.795423 -0.313152
O29   O     O_2   0.191514 0.334502 0.666348 -0.438730
O30   O     O_3   0.185280 0.208029 0.707604 -0.493381
H64   H     H_    0.181918 0.192433 0.655476 0.319646
S3    S     S_3+6 0.482562 0.188066 0.808927 -0.021254
O31   O     O_2   0.606827 0.166897 0.862192 -0.287283
O32   O     O_2   0.329137 0.199206 0.845172 -0.220848
O33   O     O_3   0.453891 0.120905 0.737380 -0.514949
H65   H     H_    0.348970 0.096364 0.742665 0.363740
C65   C     C_3   0.219507 0.359031 0.482055 -0.202400
H66   H     H_    0.178399 0.374787 0.431002 0.073988
H67   H     H_    0.198279 0.401723 0.527490 0.150842
H68   H     H_    0.345719 0.356887 0.473173 0.116038
C66   C     C_3   0.202836 0.933931 0.640285 -0.402971
H69   H     H_    0.323940 0.918791 0.625186 0.122530
H70   H     H_    0.198842 0.993204 0.657926 0.132104
H71   H     H_    0.178359 0.908957 0.687975 0.118915
C67   C     C_3   0.376473 0.379362 0.070013 -0.384664
H72   H     H_    0.361212 0.331555 0.026868 0.152535
H73   H     H_    0.493797 0.375945 0.099810 0.117646
H74   H     H_    0.278830 0.375578 0.105489 0.120194

loop_
_geom_bond_atom_site_label_1
_geom_bond_atom_site_label_2
_ccdc_geom_bond_type
C59   H8    S    
C5    H21   S    
S3    O31   D    
C45   C61   S    
C48   H42   S    
S1    O25   D    
C53   C57   A    
C32   C35   A    
O30   H64   S    
C18   P8    S    
C53   C54   A    
C17   C29   A    
C40   H41   S    
C37   P1    S    
C61   H51   S    
Ba2   O6    S    
C5    C6    S    
O17   P8    S    
C51   C52   A    
C54   C55   A    
O23   P3    S    
C44   H40   S    
C2    H1    S    
C8    H26   S    
O21   P6    S    
C35   C36   A    
C10   C26   A    
O7    P4    S    
C6    H23   S    
C7    S2    S    
C22   C24   A    
C32   C33   A    
O6    P8    S    
C62   H55   S    
C3    C4    S    
C41   C50   S    
Ba2   O9    S    
C56   C58   S    
C12   O3    S    
C20   P4    S    
C9    C22   A    
C43   P3    S    
C15   C18   A    
C47   C55   S    
C67   H72   S    
C34   C45   S    
Ba1   Ba2   S    
C39   C40   A    
C34   O7    S    
O33   H65   S    
Ba2   O4    S    
C56   H4    S    
C65   H68   S    
C25   C37   A    
C14   C15   A    
C36   H33   S    
C34   H50   S    
C60   H11   S    
C63   H58   S    
C1    H13   S    
C7    C8    S    
C2    H12   S    
C66   H71   S    
C65   H67   S    
C5    H22   S    
S1    O26   D    
C19   C20   A    
S2    O29   D    
O11   P5    S    
S2    O28   D    
O8    P7    S    
Ba1   O1    S    
O24   P3    D    
C61   H52   S    
Ba2   O5    S    
C66   H70   S    
C12   H36   S    
C64   H62   S    
C52   C57   A    
C38   C43   A    
S3    O33   S    
C44   C46   A    
C53   P7    S    
C35   P6    S    
C11   H34   S    
C16   C21   A    
O9    P5    S    
O12   P1    S    
C49   C67   S    
C62   H56   S    
C56   O20   S    
C45   H2    S    
C51   C55   A    
C16   C17   A    
O15   P7    S    
C48   C49   A    
O20   P1    S    
C57   H45   S    
C49   C50   A    
C31   H37   S    
Ba1   O8    S    
C13   C17   A    
C41   C42   A    
C22   C30   A    
C12   H27   S    
C1    H19   S    
C27   C28   A    
C64   H63   S    
S3    O32   D    
C56   H5    S    
C4    H18   S    
C29   C30   A    
C28   H35   S    
C28   C29   A    
C19   C65   S    
C3    O15   S    
C34   H49   S    
C15   C16   A    
C24   C25   A    
C60   H10   S    
C26   H30   S    
Ba1   O5    S    
C63   H59   S    
O16   P8    D    
C8    H28   S    
C39   P2    S    
O19   P6    D    
C23   H48   S    
C14   H29   S    
Ba2   O14   S    
C65   H66   S    
C10   C66   S    
O3    P3    S    
Ba1   O18   S    
S1    O27   S    
C9    C13   A    
C11   C13   A    
C23   H20   S    
O1    P1    D    
C7    O17   S    
O5    P4    S    
C40   C41   A    
C54   H38   S    
C3    H15   S    
Ba1   O22   S    
C21   C27   A    
C59   O2    S    
C61   H53   S    
Ba1   P1    S    
C66   H69   S    
C64   H61   S    
C33   H32   S    
C46   C47   A    
Ba2   O8    S    
Ba2   O12   S    
C24   C32   A    
C42   C43   A    
C5    O11   S    
C59   C63   S    
O22   P2    D    
C9    C10   A    
C38   H47   S    
C42   H44   S    
O13   P2    S    
C67   H74   S    
Ba1   O13   S    
Ba2   P4    S    
C30   C31   A    
C3    H14   S    
C8    S3    S    
Ba1   O12   S    
C6    C64   S    
C62   H54   S    
C7    H25   S    
C44   C50   A    
C27   H31   S    
C4    H17   S    
C36   C37   A    
C58   H7    S    
C46   H39   S    
C31   C33   A    
C67   H73   S    
C60   H9    S    
C6    H24   S    
C58   C62   S    
O2    P2    S    
C12   C23   S    
C59   C60   S    
O18   P6    S    
O27   H60   S    
C4    H16   S    
Ba2   O13   S    
C51   H43   S    
O14   P7    D    
C52   P5    S    
C18   C19   A    
C58   H6    S    
S2    O30   S    
C47   C48   A    
C11   C14   A    
C25   C26   A    
C1    S1    S    
C20   C21   A    
C38   C39   A    
O10   P5    D    
C63   H57   S    
Ba1   O23   S    
C45   H3    S    
Ba1   P2    S    
C1    C2    S    
C23   H46   S    
C2    O21   S    
O4    P4    D    
