data_mof_unit_24170.cif
_audit_creation_date              2013-03-05T15:51:26-0500
_audit_creation_method            fapswitch 2.2
_symmetry_space_group_name_H-M    P1
_symmetry_Int_Tables_number       1
_space_group_crystal_system       triclinic
_cell_length_a                    19.049383
_cell_length_b                    10.950513
_cell_length_c                    18.736371
_cell_angle_alpha                 90.203127
_cell_angle_beta                  90.344196
_cell_angle_gamma                 90.266548
_cell_volume                      3908.27889393

loop_
_atom_site_label
_atom_site_type_symbol
_atom_site_description
_atom_site_fract_x
_atom_site_fract_y
_atom_site_fract_z
_atom_type_partial_charge
O1    O     O_R   0.957020 0.451640 0.669920 -0.537065
O2    O     O_R   0.042980 0.451640 0.330080 -0.532173
O3    O     O_R   0.457020 0.951640 0.669920 -0.533040
O4    O     O_R   0.542980 0.951640 0.330080 -0.534704
O5    O     O_R   0.821450 0.543440 0.674610 -0.503414
O6    O     O_R   0.178550 0.543440 0.325390 -0.502659
O7    O     O_R   0.321450 0.043440 0.674610 -0.501702
O8    O     O_R   0.678550 0.043440 0.325390 -0.515504
C1    C     C_R   0.760044 0.535091 0.646340 0.545733
C2    C     C_R   0.238361 0.528865 0.355484 0.583292
C3    C     C_R   0.260927 0.033285 0.645818 0.550296
C4    C     C_R   0.739183 0.034357 0.353276 0.568805
O9    O     O_R   0.715320 0.458650 0.668100 -0.500614
O10   O     O_R   0.284680 0.458650 0.331900 -0.487933
O11   O     O_R   0.215320 0.958650 0.668100 -0.499654
O12   O     O_R   0.784680 0.958650 0.331900 -0.474871
O13   O     O_R   0.737170 0.209590 0.674530 -0.514787
O14   O     O_R   0.262830 0.209590 0.325470 -0.496641
O15   O     O_R   0.237170 0.709590 0.674530 -0.510309
O16   O     O_R   0.762830 0.709590 0.325470 -0.500832
C5    C     C_R   0.791158 0.169785 0.638847 0.541222
C6    C     C_R   0.209067 0.171119 0.360995 0.552379
C7    C     C_R   0.272892 0.625310 0.646469 0.535720
C8    C     C_R   0.707963 0.673358 0.360874 0.548877
O17   O     O_R   0.832710 0.092740 0.669580 -0.488711
O18   O     O_R   0.167290 0.092740 0.330420 -0.505315
O19   O     O_R   0.332710 0.592740 0.669580 -0.498007
O20   O     O_R   0.667290 0.592740 0.330420 -0.517437
O21   O     O_R   0.946290 0.250060 0.676040 -0.451879
O22   O     O_R   0.053710 0.250060 0.323960 -0.469749
O23   O     O_R   0.446290 0.750060 0.676040 -0.442377
O24   O     O_R   0.553710 0.750060 0.323960 -0.477130
C9    C     C_R   0.973058 0.344581 0.647813 0.565658
C10   C     C_R   0.029356 0.347306 0.354358 0.598154
C11   C     C_R   0.473839 0.844207 0.648599 0.564986
C12   C     C_R   0.531119 0.848038 0.355554 0.595153
O25   O     O_R   0.956270 0.452200 0.830470 -0.526374
O26   O     O_R   0.043730 0.452200 0.169530 -0.516134
O27   O     O_R   0.456270 0.952200 0.830470 -0.520945
O28   O     O_R   0.543730 0.952200 0.169530 -0.523144
O29   O     O_R   0.820760 0.543950 0.823440 -0.508392
O30   O     O_R   0.179240 0.543950 0.176560 -0.508388
O31   O     O_R   0.320760 0.043950 0.823440 -0.506181
O32   O     O_R   0.679240 0.043950 0.176560 -0.510259
C13   C     C_R   0.761105 0.530314 0.853303 0.554333
C14   C     C_R   0.238342 0.528873 0.146254 0.555080
C15   C     C_R   0.259560 0.034598 0.851567 0.551501
C16   C     C_R   0.737528 0.025568 0.145192 0.559662
O33   O     O_R   0.714570 0.459210 0.828640 -0.496723
O34   O     O_R   0.285430 0.459210 0.171360 -0.502108
O35   O     O_R   0.214570 0.959210 0.828640 -0.501935
O36   O     O_R   0.785430 0.959210 0.171360 -0.494790
O37   O     O_R   0.736470 0.210100 0.823360 -0.504263
O38   O     O_R   0.263530 0.210100 0.176640 -0.499392
O39   O     O_R   0.236470 0.710100 0.823360 -0.511957
O40   O     O_R   0.763530 0.710100 0.176640 -0.506951
C17   C     C_R   0.772041 0.123718 0.852152 0.545085
C18   C     C_R   0.209831 0.170829 0.139692 0.557227
C19   C     C_R   0.272102 0.624546 0.852484 0.536045
C20   C     C_R   0.728017 0.625471 0.147246 0.556359
O41   O     O_R   0.831960 0.093290 0.830130 -0.513836
O42   O     O_R   0.168040 0.093290 0.169870 -0.507296
O43   O     O_R   0.331960 0.593290 0.830130 -0.517368
O44   O     O_R   0.668040 0.593290 0.169870 -0.519955
O45   O     O_R   0.945600 0.250580 0.824860 -0.491672
O46   O     O_R   0.054400 0.250580 0.175140 -0.500023
O47   O     O_R   0.445600 0.750580 0.824860 -0.492492
O48   O     O_R   0.554400 0.750580 0.175140 -0.492421
C21   C     C_R   0.971857 0.347334 0.852434 0.553543
C22   C     C_R   0.032795 0.346779 0.144389 0.558700
C23   C     C_R   0.468914 0.847633 0.854536 0.550353
C24   C     C_R   0.528773 0.846027 0.147158 0.575141
Cr1   Cr    Cr6+3 0.885860 0.491680 0.749630 1.018388
Cr2   Cr    Cr6+3 0.114140 0.491680 0.250370 1.017800
Cr3   Cr    Cr6+3 0.385860 0.991680 0.749630 1.026527
Cr4   Cr    Cr6+3 0.614140 0.991680 0.250370 1.011496
Cr5   Cr    Cr6+3 0.730490 0.332970 0.748720 1.045914
Cr6   Cr    Cr6+3 0.269510 0.332970 0.251280 1.047163
Cr7   Cr    Cr6+3 0.230490 0.832970 0.748720 1.044423
Cr8   Cr    Cr6+3 0.769510 0.832970 0.251280 1.053182
Cr9   Cr    Cr6+3 0.887570 0.179310 0.750150 1.098161
Cr10  Cr    Cr6+3 0.112430 0.179310 0.249850 1.068506
Cr11  Cr    Cr6+3 0.387570 0.679310 0.750150 1.099222
Cr12  Cr    Cr6+3 0.612430 0.679310 0.249850 1.056806
O49   O     O_3   0.834640 0.334650 0.749500 -0.286189
O50   O     O_3   0.165360 0.334650 0.250500 -0.313270
O51   O     O_3   0.334640 0.834650 0.749500 -0.269349
O52   O     O_3   0.665360 0.834650 0.250500 -0.290736
C25   C     C_R   0.747152 0.076769 0.425024 0.034539
C26   C     C_R   0.244976 0.099122 0.580613 0.023246
C27   C     C_R   0.245466 0.555926 0.429948 0.043623
C28   C     C_R   0.740092 0.605015 0.582729 0.023337
C29   C     C_R   0.785927 0.181308 0.440604 0.069252
C30   C     C_R   0.297804 0.152641 0.539993 -0.002880
C31   C     C_R   0.204528 0.644311 0.461745 0.024784
C32   C     C_R   0.786883 0.680426 0.546266 0.009081
C33   C     C_R   0.800429 0.210926 0.511215 -0.018952
C34   C     C_R   0.286040 0.177734 0.468740 0.002641
C35   C     C_R   0.209479 0.660984 0.534557 0.019721
C36   C     C_R   0.775516 0.705994 0.474601 0.014204
C37   C     C_R   0.741553 0.027078 0.550479 -0.122529
C38   C     C_R   0.165323 0.116641 0.479335 -0.171098
C39   C     C_R   0.284197 0.484974 0.546219 -0.149294
C40   C     C_R   0.662896 0.608150 0.478187 -0.178335
C41   C     C_R   0.726155 0.998143 0.479872 -0.138974
C42   C     C_R   0.177656 0.087712 0.550273 -0.127645
C43   C     C_R   0.283279 0.473374 0.472891 -0.145373
C44   C     C_R   0.675129 0.578266 0.549269 -0.125783
C45   C     C_3   0.766749 0.310112 0.423201 -0.246887
C46   C     C_3   0.370783 0.109833 0.525971 -0.255219
C47   C     C_3   0.205906 0.778132 0.447254 -0.270515
C48   C     C_3   0.864020 0.668828 0.535904 -0.259751
C49   C     C_3   0.783527 0.341631 0.499882 -0.293196
C50   C     C_3   0.357701 0.137541 0.447739 -0.267037
C51   C     C_3   0.212359 0.796512 0.526940 -0.247466
C52   C     C_3   0.850909 0.692186 0.457119 -0.261387
C53   C     C_R   0.776164 0.136875 0.566257 0.023790
C54   C     C_R   0.220973 0.153741 0.436542 0.014752
C55   C     C_R   0.250755 0.584353 0.577261 0.017292
C56   C     C_R   0.716239 0.662062 0.438108 -0.003618
H1    H     H_    0.724685 0.966331 0.592635 0.141824
H2    H     H_    0.114067 0.098861 0.456396 0.136734
H3    H     H_    0.316810 0.424114 0.577449 0.149358
H4    H     H_    0.614745 0.577166 0.452934 0.142621
H5    H     H_    0.697136 0.915330 0.467875 0.115148
H6    H     H_    0.137055 0.039732 0.577836 0.188053
H7    H     H_    0.314433 0.402004 0.449591 0.144032
H8    H     H_    0.637796 0.517594 0.573823 0.184878
H9    H     H_    0.155305 0.811259 0.424913 0.150036
H10   H     H_    0.884311 0.576089 0.547329 0.159580
H11   H     H_    0.710156 0.320670 0.409561 0.141133
H12   H     H_    0.377785 0.010773 0.536692 0.152667
H13   H     H_    0.803277 0.354088 0.385082 0.192011
H14   H     H_    0.410777 0.170766 0.551051 0.158070
H15   H     H_    0.253362 0.807875 0.417554 0.178885
H16   H     H_    0.893278 0.744046 0.562864 0.155358
H17   H     H_    0.830525 0.400881 0.506206 0.132137
H18   H     H_    0.390193 0.214485 0.427659 0.126182
H19   H     H_    0.263945 0.835747 0.543370 0.141697
H20   H     H_    0.873768 0.778486 0.437578 0.146762
H21   H     H_    0.736553 0.368091 0.530594 0.146933
H22   H     H_    0.356964 0.054553 0.413323 0.170477
H23   H     H_    0.165655 0.840181 0.550504 0.147456
H24   H     H_    0.860151 0.610856 0.422826 0.144072
C57   C     C_R   0.000154 0.345055 0.428168 -0.007247
C58   C     C_R   0.009574 0.330939 0.578348 0.008662
C59   C     C_R   0.506913 0.847985 0.431421 -0.006811
C60   C     C_R   0.513645 0.828421 0.581325 0.009575
C61   C     C_R   0.962679 0.126881 0.423793 0.223097
C62   C     C_R   0.000493 0.102942 0.569487 0.215570
C63   C     C_R   0.459830 0.635688 0.425723 0.226909
C64   C     C_R   0.500826 0.601486 0.569315 0.223873
C65   C     C_R   0.960930 0.013954 0.457684 -0.161917
C66   C     C_R   0.980060 0.001793 0.528628 -0.174758
C67   C     C_R   0.457134 0.520129 0.456889 -0.166094
C68   C     C_R   0.478482 0.502894 0.526956 -0.180119
C69   C     C_R   0.999588 0.221840 0.537619 -0.047076
C70   C     C_R   0.987097 0.231677 0.462366 -0.063198
C71   C     C_R   0.501980 0.721638 0.539299 -0.041248
C72   C     C_R   0.489346 0.735539 0.464726 -0.060689
H25   H     H_    0.944882 0.933960 0.428166 0.142153
H26   H     H_    0.979983 0.911524 0.551743 0.142394
H27   H     H_    0.437280 0.442598 0.426876 0.141357
H28   H     H_    0.477387 0.411205 0.548376 0.145819
C73   C     C_R   0.026486 0.440274 0.543523 -0.004684
C74   C     C_R   0.010300 0.452357 0.470799 -0.007266
C75   C     C_R   0.537026 0.935569 0.548644 -0.008033
C76   C     C_R   0.524406 0.952281 0.475339 -0.007430
C77   C     C_R   0.052318 0.542442 0.582110 -0.064456
C78   C     C_R   0.005301 0.572812 0.443281 -0.076497
C79   C     C_R   0.568043 0.030351 0.589712 -0.076729
C80   C     C_R   0.528843 0.074517 0.449694 -0.076715
C81   C     C_R   0.049745 0.658723 0.552970 -0.117847
C82   C     C_R   0.025834 0.674015 0.483598 -0.137588
C83   C     C_R   0.579067 0.145467 0.560667 -0.111907
C84   C     C_R   0.557253 0.168571 0.491342 -0.142634
H29   H     H_    0.982133 0.591611 0.391749 0.145766
H30   H     H_    0.071429 0.533023 0.636392 0.139110
H31   H     H_    0.506665 0.102396 0.399299 0.151202
H32   H     H_    0.582853 0.015483 0.644922 0.137479
H33   H     H_    0.065128 0.736971 0.584841 0.129947
H34   H     H_    0.022556 0.764399 0.460954 0.101574
H35   H     H_    0.601895 0.217929 0.592823 0.146522
H36   H     H_    0.561439 0.260027 0.469947 0.106155
C85   C     C_R   0.742083 0.049829 0.069132 0.019974
C86   C     C_R   0.240680 0.097834 0.917708 0.020896
C87   C     C_R   0.244030 0.558817 0.071003 0.016740
C88   C     C_R   0.754871 0.559370 0.928566 0.019060
C89   C     C_R   0.796129 0.993999 0.031767 0.026165
C90   C     C_R   0.179697 0.060614 0.953364 0.039419
C91   C     C_R   0.296768 0.501091 0.032958 0.019823
C92   C     C_R   0.718229 0.476095 0.970857 0.040023
C93   C     C_R   0.800981 0.003862 0.959110 0.023416
C94   C     C_R   0.169809 0.086848 0.024433 0.022618
C95   C     C_R   0.300098 0.506418 0.960157 0.025536
C96   C     C_R   0.717301 0.484786 0.043935 0.019187
C97   C     C_R   0.689640 0.106069 0.954850 -0.159432
C98   C     C_R   0.276201 0.205805 0.025683 -0.156701
C99   C     C_R   0.191492 0.617827 0.957211 -0.163808
C100  C     C_R   0.796702 0.656521 0.037154 -0.165531
C101  C     C_R   0.685237 0.096797 0.029501 -0.157326
C102  C     C_R   0.285696 0.180732 0.952617 -0.158857
C103  C     C_R   0.187992 0.610163 0.032039 -0.159206
C104  C     C_R   0.798408 0.645238 0.962674 -0.175566
C105  C     C_3   0.873381 0.002975 0.043481 -0.274958
C106  C     C_3   0.149273 0.935214 0.961285 -0.269188
C107  C     C_3   0.374246 0.505576 0.043183 -0.274185
C108  C     C_3   0.643573 0.435172 0.966566 -0.261253
C109  C     C_3   0.879324 0.014850 0.963441 -0.270659
C110  C     C_3   0.139112 0.963551 0.039328 -0.271522
C111  C     C_3   0.378784 0.509969 0.962676 -0.267316
C112  C     C_3   0.643397 0.438136 0.047293 -0.272169
C113  C     C_R   0.751521 0.071219 0.920256 0.020270
C114  C     C_R   0.220025 0.152324 0.063185 0.011968
C115  C     C_R   0.251527 0.575619 0.921457 0.020574
C116  C     C_R   0.751039 0.582425 0.077874 0.016230
H37   H     H_    0.647380 0.147197 0.924962 0.113493
H38   H     H_    0.314887 0.260198 0.053673 0.135562
H39   H     H_    0.150370 0.664872 0.928402 0.124279
H40   H     H_    0.826221 0.730142 0.061790 0.141272
H41   H     H_    0.639018 0.129654 0.056114 0.118054
H42   H     H_    0.330246 0.219103 0.925094 0.119038
H43   H     H_    0.142992 0.647236 0.059273 0.131323
H44   H     H_    0.831503 0.705903 0.931952 0.125965
H45   H     H_    0.896232 0.916907 0.064293 0.138492
H46   H     H_    0.189181 0.863554 0.952278 0.157932
H47   H     H_    0.395916 0.420289 0.066225 0.138440
H48   H     H_    0.637476 0.342833 0.943794 0.145230
H49   H     H_    0.888983 0.087161 0.073041 0.154882
H50   H     H_    0.099126 0.923578 0.931302 0.140309
H51   H     H_    0.391726 0.591168 0.070026 0.159181
H52   H     H_    0.609069 0.505055 0.942023 0.138964
H53   H     H_    0.897409 0.106670 0.947058 0.165925
H54   H     H_    0.083010 0.966518 0.054762 0.129829
H55   H     H_    0.399837 0.597530 0.942904 0.175225
H56   H     H_    0.605466 0.503819 0.069054 0.156240
H57   H     H_    0.906422 0.936551 0.937821 0.135179
H58   H     H_    0.172918 0.907184 0.074760 0.161809
H59   H     H_    0.402608 0.426800 0.938972 0.132756
H60   H     H_    0.640546 0.346121 0.071748 0.133876
C117  C     C_R   0.018556 0.341218 0.068653 0.013322
C118  C     C_R   0.009121 0.342267 0.919878 0.020909
C119  C     C_R   0.495027 0.833783 0.078293 0.022523
C120  C     C_R   0.486124 0.843858 0.929443 0.021389
C121  C     C_R   0.025462 0.449478 0.030561 0.036823
C122  C     C_R   0.021397 0.450942 0.957743 0.028540
C123  C     C_R   0.463222 0.933331 0.045185 0.023384
C124  C     C_R   0.460038 0.937933 0.972200 0.039980
C125  C     C_R   0.017047 0.230876 0.955949 -0.163854
C126  C     C_R   0.019945 0.230365 0.030657 -0.170235
C127  C     C_R   0.507222 0.735733 0.962308 -0.179891
C128  C     C_R   0.510120 0.729893 0.036611 -0.170676
C129  C     C_3   0.987474 0.567115 0.039449 -0.275686
C130  C     C_3   0.983015 0.570636 0.958994 -0.268045
C131  C     C_3   0.474183 0.068728 0.050992 -0.271358
C132  C     C_3   0.473753 0.071963 0.970211 -0.266382
H61   H     H_    0.013874 0.144858 0.927437 0.134560
H62   H     H_    0.020923 0.144313 0.058581 0.133288
H63   H     H_    0.521576 0.656875 0.930744 0.125736
H64   H     H_    0.529613 0.647972 0.060974 0.131974
H65   H     H_    0.020944 0.640765 0.062412 0.136423
H66   H     H_    0.928221 0.563316 0.939426 0.173144
H67   H     H_    0.525279 0.096938 0.074030 0.155654
H68   H     H_    0.429378 0.123354 0.947374 0.144677
H69   H     H_    0.935681 0.555114 0.065618 0.147159
H70   H     H_    0.014287 0.646074 0.935286 0.128802
H71   H     H_    0.428079 0.115137 0.074820 0.141810
H72   H     H_    0.525739 0.094445 0.947030 0.132777
N1    N     N_R   0.935141 0.133143 0.351973 0.094981
O53   O     O_R   0.899491 0.227346 0.330656 -0.380024
O54   O     O_R   0.940560 0.039728 0.309220 -0.345032
N2    N     N_R   0.027931 0.080278 0.640466 0.078882
O55   O     O_R   0.074851 0.152349 0.669286 -0.363067
O56   O     O_R   0.009562 0.982249 0.674899 -0.364592
N3    N     N_R   0.426360 0.652153 0.357423 0.089151
O57   O     O_R   0.387254 0.747309 0.345912 -0.372246
O58   O     O_R   0.427760 0.565410 0.309794 -0.337190
N4    N     N_R   0.528122 0.575337 0.639798 0.081620
O59   O     O_R   0.576171 0.644492 0.669057 -0.360820
O60   O     O_R   0.508773 0.476674 0.673035 -0.364387

loop_
_geom_bond_atom_site_label_1
_geom_bond_atom_site_label_2
_geom_bond_distance
_ccdc_geom_bond_type
C18   O42   1.294973 A    
Cr6   O50   1.984133 S    
O17   Cr9   2.057023 S    
O4    C12   1.252474 A    
O47   Cr11  1.938077 S    
C69   C70   1.432999 A    
C62   C69   1.434434 A    
O39   C19   1.281136 A    
O20   Cr12  2.066416 S    
C102  H42   1.079899 S    
C105  H49   1.112113 S    
N3    O57   1.301586 A    
C36   C52   1.483285 S    
O8    Cr4   1.941545 S    
C39   H3    1.083855 S    
O1    Cr1   2.070132 S    
C82   H34   1.080162 S    
Cr7   O51   1.983960 S    
O1    C9    1.280905 A    
C127  C128  1.394631 A    
C123  C131  1.499815 S    
C58   C69   1.426706 A    
O46   C22   1.271429 A    
C81   C82   1.385678 A    
O7    C3    1.274171 A    
C32   C48   1.489299 S    
C130  H66   1.106674 S    
C125  C126  1.400557 A    
C118  C122  1.401310 A    
C95   C111  1.499690 S    
C5    O17   1.293863 A    
O36   Cr8   2.064326 S    
C99   C115  1.407910 A    
C92   C96   1.372399 A    
C83   H35   1.082596 S    
C120  C127  1.396154 A    
C109  H57   1.111858 S    
C23   C120  1.440132 S    
O25   C21   1.257472 A    
C22   C117  1.444140 S    
O26   Cr2   2.060491 S    
C129  C130  1.509944 S    
C96   C116  1.394441 A    
C10   C57   1.493959 S    
C31   C35   1.378355 A    
C21   C118  1.447025 S    
C34   C50   1.490927 S    
C48   C52   1.518422 S    
C106  H50   1.111884 S    
C30   C34   1.381153 A    
C19   C115  1.455943 S    
C129  H65   1.109747 S    
C87   C103  1.409883 A    
C28   C32   1.395564 A    
O10   Cr6   2.058059 S    
O23   Cr11  1.948785 S    
C86   C102  1.403215 A    
C6    C54   1.445587 S    
O30   C14   1.275134 A    
C85   C101  1.409547 A    
O32   Cr4   1.948749 S    
C61   C65   1.392478 A    
C37   C53   1.398366 A    
O44   Cr12  2.067229 S    
O38   Cr6   1.939688 S    
C5    C53   1.432535 S    
C88   C104  1.400891 A    
C127  H63   1.081995 S    
C26   C30   1.393671 A    
C52   H24   1.111658 S    
C3    O11   1.263814 A    
C28   C44   1.412881 A    
C15   O35   1.259768 A    
C64   C68   1.400808 A    
O21   C9    1.270147 A    
C89   C105  1.489311 S    
N2    O55   1.303045 A    
C98   C102  1.408193 A    
C9    C58   1.486805 S    
C46   H12   1.112394 S    
C101  H41   1.077140 S    
C36   C56   1.399048 A    
C47   C51   1.510016 S    
O27   Cr3   2.065355 S    
C14   C87   1.453251 S    
O3    Cr3   2.070132 S    
C61   C70   1.428531 A    
C46   C50   1.517280 S    
O47   C23   1.274496 A    
O2    Cr2   2.069706 S    
O48   C24   1.269320 A    
O2    C10   1.257752 A    
C50   H22   1.112422 S    
O42   Cr10  2.067229 S    
C64   C71   1.432828 A    
C81   H33   1.081015 S    
O18   Cr10  2.066416 S    
C33   C53   1.393899 A    
N1    O53   1.300396 A    
C104  H44   1.083189 S    
C107  C111  1.512331 S    
C92   C108  1.490716 S    
C24   C119  1.443612 S    
C38   C54   1.392918 A    
C98   H38   1.077948 S    
C48   H16   1.110695 S    
C97   H37   1.078989 S    
C59   C72   1.421872 A    
O34   Cr6   2.064326 S    
C1    C28   1.467990 S    
O13   Cr5   1.940168 S    
C105  H45   1.110958 S    
C112  H56   1.100891 S    
C47   H9    1.111510 S    
Cr9   O49   1.981496 S    
O6    Cr2   1.941545 S    
C111  H55   1.103701 S    
O35   Cr7   2.059099 S    
C57   C74   1.430173 A    
C73   C77   1.414710 A    
O24   Cr12  1.949008 S    
O8    C4    1.269312 A    
C51   H23   1.105591 S    
O30   Cr2   1.948749 S    
C37   C41   1.388545 A    
C8    C56   1.460446 S    
O22   C10   1.295029 A    
C78   H29   1.080049 S    
C45   H13   1.109730 S    
O48   Cr12  1.946198 S    
C4    O12   1.267806 A    
C4    C25   1.427707 S    
C99   H39   1.082151 S    
C26   C42   1.404479 A    
C2    O10   1.254424 A    
C62   N2    1.448663 S    
C75   C76   1.405676 A    
O23   C11   1.266727 A    
O16   Cr8   1.946197 S    
C106  H46   1.108310 S    
C75   C79   1.414784 A    
C122  C130  1.504006 S    
C91   C95   1.367310 A    
C129  H69   1.111828 S    
Cr10  O50   1.973351 S    
C79   C83   1.390345 A    
O11   Cr7   2.066999 S    
C30   C46   1.493645 S    
C25   C29   1.388671 A    
C37   H1    1.083707 S    
Cr4   O52   1.981036 S    
C120  C124  1.397730 A    
C125  H61   1.082492 S    
O43   Cr11  2.067581 S    
O12   Cr8   2.058059 S    
C60   C71   1.423261 A    
C85   C89   1.391153 A    
O22   Cr10  1.949008 S    
O15   C7    1.264097 A    
O21   Cr9   1.948785 S    
C45   H11   1.113082 S    
C27   C43   1.409851 A    
C100  C104  1.401081 A    
C94   C110  1.496683 S    
O39   Cr7   1.947286 S    
O3    C11   1.283741 A    
C106  C110  1.507528 S    
C12   C59   1.497021 S    
C93   C109  1.498370 S    
C83   C84   1.385870 A    
C105  C109  1.510616 S    
C124  C132  1.490207 S    
C108  C112  1.512798 S    
C93   C113  1.401333 A    
C13   O33   1.261643 A    
C103  H43   1.080298 S    
N4    O59   1.302442 A    
C91   C107  1.487713 S    
O29   C13   1.278042 A    
C44   H8    1.077273 S    
C15   C86   1.464969 S    
O15   Cr7   1.940168 S    
O32   C16   1.275893 A    
Cr1   O49   1.973126 S    
C42   H6    1.069530 S    
C112  H60   1.109613 S    
C6    O18   1.297245 A    
C64   N4    1.446433 S    
C87   C91   1.388631 A    
C108  H52   1.110243 S    
C18   C114  1.461248 S    
C80   H31   1.077820 S    
Cr3   O51   1.973126 S    
O26   C22   1.261219 A    
C58   C73   1.402675 A    
C17   C113  1.456246 S    
C2    C27   1.430774 S    
C74   C78   1.421334 A    
C7    O19   1.269687 A    
C132  H68   1.102780 S    
O9    Cr5   2.066999 S    
C121  C129  1.489778 S    
O37   Cr5   1.947286 S    
C100  H40   1.081313 S    
C110  H54   1.109406 S    
C117  C121  1.392033 A    
C79   H32   1.083641 S    
C46   H14   1.111402 S    
C48   H10   1.109398 S    
C33   C49   1.484243 S    
C131  C132  1.514058 S    
C98   C114  1.409957 A    
C110  H58   1.112612 S    
C77   H30   1.083605 S    
C40   C44   1.391126 A    
C8    O20   1.299999 A    
C97   C113  1.402469 A    
C128  H64   1.074700 S    
O31   Cr3   1.949258 S    
O14   Cr6   1.946197 S    
O38   C18   1.302247 A    
O25   Cr1   2.065355 S    
C107  H47   1.110565 S    
C19   O43   1.265342 A    
C84   H36   1.082822 S    
C111  H59   1.111790 S    
C1    O9    1.262026 A    
C130  H70   1.111680 S    
O27   C23   1.255949 A    
C119  C128  1.409346 A    
O28   C24   1.265179 A    
N3    O58   1.301489 A    
O14   C6    1.294432 A    
C118  C125  1.404909 A    
C95   C115  1.399450 A    
C66   H26   1.080608 S    
C39   C55   1.390979 A    
C117  C126  1.405502 A    
Cr12  O52   1.973351 S    
C51   H19   1.111995 S    
O31   C15   1.286093 A    
O37   C17   1.284568 A    
Cr11  O51   1.981496 S    
O6    C2    1.279125 A    
O7    Cr3   1.947778 S    
C123  C124  1.369572 A    
O24   C12   1.299843 A    
C13   C88   1.450189 S    
C17   O41   1.261883 A    
C40   H4    1.082156 S    
C78   C82   1.392208 A    
C45   C49   1.508428 S    
Cr2   O50   1.981036 S    
C35   C55   1.402132 A    
C88   C92   1.397309 A    
C14   O34   1.269509 A    
C119  C123  1.395214 A    
C63   C67   1.396408 A    
O40   Cr8   1.939688 S    
C97   C101  1.405700 A    
C41   H5    1.082070 S    
C20   O44   1.269791 A    
C49   H17   1.108741 S    
C67   H27   1.082189 S    
C63   C72   1.424578 A    
O16   C8    1.302373 A    
N1    O54   1.301867 A    
C90   C106  1.496202 S    
C20   C116  1.452040 S    
C61   N1    1.443316 S    
C16   C85   1.453600 S    
Cr8   O52   1.984133 S    
C38   H2    1.081000 S    
O41   Cr9   2.067581 S    
C132  H72   1.110684 S    
O46   Cr10  1.946198 S    
C35   C51   1.492231 S    
C57   C70   1.420764 A    
C76   C80   1.426081 A    
C3    C26   1.452059 S    
C107  H51   1.110877 S    
C131  H67   1.104696 S    
C131  H71   1.111821 S    
Cr5   O49   1.983960 S    
O45   C21   1.275820 A    
O5    C1    1.283911 A    
C32   C36   1.388512 A    
C34   C54   1.398624 A    
O19   Cr11  2.057023 S    
C100  C116  1.415235 A    
C29   C33   1.386924 A    
O33   Cr5   2.059099 S    
O40   C20   1.267219 A    
C38   C42   1.386374 A    
N4    O60   1.301829 A    
C11   C60   1.484858 S    
C50   H18   1.111207 S    
C49   H21   1.105985 S    
O5    Cr1   1.947778 S    
C47   H15   1.112458 S    
C109  H53   1.106394 S    
O4    Cr4   2.069706 S    
C71   C72   1.425184 A    
C59   C76   1.441894 A    
C90   C94   1.375463 A    
O29   Cr1   1.949258 S    
C96   C112  1.497150 S    
C99   C103  1.406764 A    
C89   C93   1.369629 A    
C73   C74   1.402075 A    
C16   O36   1.266637 A    
C31   C47   1.491429 S    
C68   H28   1.082766 S    
C27   C31   1.381443 A    
N2    O56   1.301964 A    
C94   C114  1.392076 A    
C62   C66   1.396711 A    
O28   Cr4   2.060491 S    
C25   C41   1.401930 A    
C67   C68   1.385815 A    
C60   C75   1.397679 A    
C77   C81   1.388176 A    
O45   Cr9   1.938077 S    
C7    C55   1.431067 S    
C39   C43   1.379302 A    
C86   C90   1.403154 A    
C43   H7    1.076370 S    
C52   H20   1.103300 S    
C65   C66   1.383200 A    
C121  C122  1.366229 A    
C63   N3    1.438581 S    
C126  H62   1.079616 S    
C65   H25   1.076437 S    
C108  H48   1.101472 S    
C80   C84   1.395208 A    
C29   C45   1.495274 S    
C40   C56   1.397056 A    
O13   C5    1.305775 A    
