data_mof_unit_31057.cif
_audit_creation_date              2012-12-10T17:17:49-0500
_audit_creation_method            fapswitch 2.2
_symmetry_space_group_name_H-M    P1
_symmetry_Int_Tables_number       1
_space_group_crystal_system       triclinic
_cell_length_a                    14.837322
_cell_length_b                    15.781758
_cell_length_c                    9.624892
_cell_angle_alpha                 89.006332
_cell_angle_beta                  90.854863
_cell_angle_gamma                 90.513868
_cell_volume                      2253.08007946

loop_
_atom_site_label
_atom_site_type_symbol
_atom_type_description
_atom_site_fract_x
_atom_site_fract_y
_atom_site_fract_z
_atom_type_partial_charge
C1    C     C_R   0.382081 0.880877 0.500336 0.834464
C2    C     C_R   0.385549 0.122643 0.498342 0.766487
C3    C     C_R   0.882057 0.380916 0.500338 0.834046
C4    C     C_R   0.885520 0.622632 0.498400 0.766439
C5    C     C_R   0.273961 0.216833 0.373630 -0.011830
C6    C     C_R   0.337074 0.730701 0.476497 -0.014597
C7    C     C_R   0.773896 0.716786 0.373780 -0.012323
C8    C     C_R   0.837628 0.230335 0.481993 -0.014421
C9    C     C_R   0.703070 0.772819 0.381740 -0.263209
C10   C     C_R   0.770690 0.168573 0.476596 -0.249538
C11   C     C_R   0.203076 0.272800 0.381784 -0.266127
C12   C     C_R   0.270025 0.669042 0.471468 -0.246531
C13   C     C_R   0.678225 0.806796 0.508343 -0.070058
C14   C     C_R   0.681015 0.189286 0.496923 -0.100448
C15   C     C_R   0.178490 0.306962 0.508394 -0.073086
C16   C     C_R   0.180829 0.689415 0.496816 -0.100383
C17   C     C_R   0.662095 0.019711 0.153828 -0.135511
C18   C     C_R   0.162161 0.519153 0.154008 -0.136149
C19   C     C_R   0.738005 0.053875 0.094717 -0.217232
C20   C     C_R   0.238448 0.552519 0.094969 -0.218204
C21   C     C_R   0.740977 0.063324 0.953617 -0.210209
C22   C     C_R   0.241687 0.561665 0.953917 -0.209069
C23   C     C_R   0.671181 0.030991 0.870183 -0.003740
C24   C     C_R   0.171559 0.530097 0.870297 -0.005952
C25   C     C_R   0.582490 0.012143 0.928137 0.130565
C26   C     C_R   0.082606 0.511804 0.928131 0.130758
C27   C     C_R   0.580579 0.010217 0.078109 0.205172
C28   C     C_R   0.080643 0.509933 0.078146 0.205985
C29   C     C_R   0.423225 0.990495 0.072021 -0.013516
C30   C     C_R   0.923192 0.490782 0.072008 -0.013839
C31   C     C_R   0.616467 0.120348 0.499302 0.793040
C32   C     C_R   0.614507 0.877450 0.502339 0.885300
C33   C     C_R   0.116328 0.620451 0.499280 0.794290
C34   C     C_R   0.114571 0.377477 0.502356 0.884635
C35   C     C_R   0.423292 0.989941 0.924536 -0.046943
C36   C     C_R   0.923254 0.490248 0.924530 -0.046693
C37   C     C_R   0.367538 0.238664 0.735814 -0.150187
C38   C     C_R   0.196127 0.922813 0.542808 -0.166534
C39   C     C_R   0.866335 0.737904 0.736987 -0.151811
C40   C     C_R   0.695369 0.423492 0.532398 -0.165411
C41   C     C_R   0.341708 0.268889 0.863969 -0.125075
C42   C     C_R   0.105665 0.943318 0.559285 -0.117108
C43   C     C_R   0.840079 0.768097 0.864928 -0.126973
C44   C     C_R   0.604645 0.444207 0.544478 -0.116435
C45   C     C_R   0.752074 0.794355 0.882585 -0.154448
C46   C     C_R   0.538768 0.380933 0.539747 -0.116761
C47   C     C_R   0.253785 0.295249 0.882221 -0.155826
C48   C     C_R   0.039624 0.880247 0.553527 -0.115925
C49   C     C_R   0.693609 0.799491 0.768245 -0.130818
C50   C     C_R   0.563416 0.296656 0.523726 -0.162796
C51   C     C_R   0.194936 0.300356 0.768308 -0.131071
C52   C     C_R   0.063887 0.796333 0.532397 -0.162961
C53   C     C_R   0.723946 0.781308 0.632896 0.117405
C54   C     C_R   0.654786 0.274105 0.513370 0.100766
C55   C     C_R   0.224723 0.281869 0.632774 0.118149
C56   C     C_R   0.155027 0.773912 0.518084 0.100588
C57   C     C_R   0.306396 0.237986 0.621203 0.068203
C58   C     C_R   0.222087 0.837926 0.521419 0.074984
C59   C     C_R   0.805667 0.737457 0.621734 0.069134
C60   C     C_R   0.721730 0.338247 0.516229 0.074144
C61   C     C_R   0.324544 0.195851 0.495555 -0.201896
C62   C     C_R   0.313091 0.815485 0.501380 -0.168185
C63   C     C_R   0.824284 0.695673 0.495849 -0.201001
C64   C     C_R   0.813097 0.315524 0.501390 -0.167450
Cu1   Cu    Cu3+1 0.499990 0.000000 0.640660 0.954414
Cu2   Cu    Cu3+1 0.999990 0.500000 0.640660 0.955638
Cu3   Cu    Cu3+1 0.500010 0.000000 0.359340 0.975240
Cu4   Cu    Cu3+1 0.000010 0.500000 0.359340 0.974828
H1    H     H_    0.804872 0.083854 0.909868 0.165962
H2    H     H_    0.305798 0.581772 0.910369 0.166224
H3    H     H_    0.360164 0.981957 0.868414 0.141113
H4    H     H_    0.860093 0.482504 0.868397 0.141258
H5    H     H_    0.436439 0.218136 0.727382 0.163074
H6    H     H_    0.245102 0.973983 0.546224 0.128803
H7    H     H_    0.935243 0.717328 0.729394 0.163604
H8    H     H_    0.744267 0.474742 0.535211 0.127615
H9    H     H_    0.389479 0.269574 0.949766 0.193318
H10   H     H_    0.086706 0.008478 0.575355 0.153356
H11   H     H_    0.887619 0.768851 0.950993 0.194217
H12   H     H_    0.585376 0.509648 0.556542 0.154570
H13   H     H_    0.729559 0.812574 0.984232 0.154313
H14   H     H_    0.468310 0.397192 0.547684 0.157267
H15   H     H_    0.231620 0.313559 0.984012 0.154667
H16   H     H_    0.969331 0.896403 0.564535 0.157803
H17   H     H_    0.625069 0.816721 0.789124 0.178451
H18   H     H_    0.510632 0.249556 0.517062 0.114407
H19   H     H_    0.126518 0.317700 0.789755 0.179892
H20   H     H_    0.010967 0.749450 0.524604 0.113629
H21   H     H_    0.667919 0.791251 0.286417 0.180583
H22   H     H_    0.788811 0.103071 0.460891 0.176823
H23   H     H_    0.167684 0.291052 0.286584 0.181469
H24   H     H_    0.287766 0.603779 0.452330 0.174486
H25   H     H_    0.359987 0.983017 0.125557 0.143605
H26   H     H_    0.859924 0.483528 0.125538 0.143564
H27   H     H_    0.671106 0.002867 0.260050 0.202016
H28   H     H_    0.170997 0.502721 0.260376 0.202315
H29   H     H_    0.797211 0.067562 0.157967 0.190552
H30   H     H_    0.297689 0.565898 0.158328 0.192338
N1    N     N_R   0.501200 1.000000 0.147910 -0.192605
N2    N     N_R   0.001200 0.500000 0.147910 -0.192617
N3    N     N_R   0.501270 1.000000 0.852040 -0.203657
N4    N     N_R   0.001270 0.500000 0.852040 -0.203544
O1    O     O_R   0.409820 0.909830 0.618810 -0.571367
O2    O     O_R   0.409820 0.090170 0.618810 -0.593100
O3    O     O_R   0.909820 0.409830 0.618810 -0.568977
O4    O     O_R   0.909820 0.590170 0.618810 -0.593525
O5    O     O_R   0.409840 0.909830 0.381240 -0.584696
O6    O     O_R   0.409840 0.090170 0.381240 -0.542996
O7    O     O_R   0.909840 0.409830 0.381240 -0.585408
O8    O     O_R   0.909840 0.590170 0.381240 -0.542955
O9    O     O_R   0.590170 0.090170 0.618760 -0.590829
O10   O     O_R   0.590170 0.909830 0.618760 -0.591763
O11   O     O_R   0.090170 0.590170 0.618760 -0.590998
O12   O     O_R   0.090170 0.409830 0.618760 -0.590267
O13   O     O_R   0.590190 0.090180 0.381190 -0.583118
O14   O     O_R   0.590190 0.909820 0.381190 -0.620500
O15   O     O_R   0.090190 0.590180 0.381190 -0.583221
O16   O     O_R   0.090190 0.409820 0.381190 -0.621205
C65   C     C_2   0.294746 0.186498 0.233171 0.848335
O17   O     O_2   0.369872 0.198091 0.185602 -0.599380
O18   O     O_R   0.226968 0.148395 0.152774 -0.773728
H31   H     H_    0.249120 0.130695 0.058538 0.327540
C66   C     C_2   0.431583 0.703115 0.461688 0.825464
O19   O     O_2   0.490658 0.731692 0.537570 -0.633021
O20   O     O_R   0.452251 0.640997 0.365571 -0.769092
H32   H     H_    0.518776 0.626704 0.366346 0.342209
C67   C     C_2   0.794776 0.686444 0.233385 0.847423
O21   O     O_2   0.869920 0.698074 0.185925 -0.599153
O22   O     O_R   0.727094 0.648186 0.152998 -0.775258
H33   H     H_    0.749335 0.630378 0.058872 0.327553
C68   C     C_2   0.932467 0.202603 0.472885 0.823562
O23   O     O_2   0.990138 0.232915 0.549437 -0.631723
O24   O     O_R   0.955008 0.138513 0.381433 -0.767098
H34   H     H_    0.021540 0.124465 0.385739 0.341309
C69   C     C_1   0.711183 0.002626 0.744420 0.338897
N5    N     N_1   0.750128 0.982556 0.647128 -0.352219
C70   C     C_1   0.211186 0.502941 0.743419 0.340342
N6    N     N_1   0.249806 0.483909 0.645158 -0.352304

loop_
_geom_bond_atom_site_label_1
_geom_bond_atom_site_label_2
_ccdc_geom_bond_type
C34   O16   A    
Cu2   Cu4   S    
C58   C62   A    
C40   C60   A    
Cu2   O11   S    
C18   H28   S    
Cu2   N4    S    
C13   C32   S    
Cu1   N3    S    
C14   C31   S    
C44   H12   S    
Cu3   O5    S    
C1    C62   S    
C67   O22   S    
C53   C59   A    
C66   O19   D    
C54   C60   A    
C3    C64   S    
C3    O3    A    
C33   O15   A    
C4    C63   S    
C27   N1    A    
C50   C54   A    
C5    C65   S    
C19   C21   A    
C24   C26   A    
C5    C11   A    
C6    C12   A    
C16   C33   S    
Cu3   O6    S    
C66   O20   S    
C43   H11   S    
C30   N2    A    
C36   N4    A    
Cu3   O13   S    
Cu1   O9    S    
C9    C13   A    
Cu4   O16   S    
C38   C58   A    
C11   C15   A    
C12   C16   A    
Cu1   Cu3   S    
C40   C44   A    
C17   H27   S    
C39   H7    S    
Cu2   O12   S    
C1    O1    A    
C15   C34   S    
C18   C20   A    
C2    C61   S    
Cu3   N1    S    
C28   N2    A    
C35   H3    S    
C46   H14   S    
C6    C66   S    
Cu2   O4    S    
C31   O13   A    
C29   H25   S    
C44   C46   A    
C46   C50   A    
C13   C53   A    
C65   O18   S    
C19   H29   S    
C29   N1    A    
C17   C27   A    
C49   H17   S    
C69   N5    T    
C18   C28   A    
C10   C14   A    
C9    H21   S    
C39   C43   A    
C35   N3    A    
C4    O4    A    
C48   H16   S    
C21   H1    S    
C15   C55   A    
C42   C48   A    
Cu3   O14   S    
C16   C56   A    
Cu1   O10   S    
C11   H23   S    
Cu4   O15   S    
C45   C49   A    
C39   C59   A    
C8    C68   S    
C41   C47   A    
C5    C61   A    
Cu4   O8    S    
C32   O14   A    
C43   C45   A    
C7    C63   A    
O18   H31   S    
C8    C64   A    
C37   H5    S    
C14   C54   A    
C1    O5    A    
C2    O2    A    
C42   H10   S    
C47   H15   S    
C21   C23   A    
O24   H34   S    
C22   C24   A    
C59   C63   A    
C34   O12   A    
Cu1   O1    S    
Cu2   O3    S    
C51   H19   S    
C67   O21   D    
O22   H33   S    
C38   H6    S    
C7    C9    A    
C4    O8    A    
C32   O10   A    
C26   C28   A    
Cu4   N2    S    
C12   H24   S    
C45   H13   S    
C20   C22   A    
C68   O24   S    
C47   C51   A    
C65   O17   D    
C57   C61   A    
C30   C36   A    
C24   C70   S    
C25   C27   A    
C70   N6    T    
C29   C35   A    
C33   O11   A    
C23   C69   S    
C60   C64   A    
C6    C62   A    
C55   C57   A    
C30   H26   S    
C26   N4    A    
C41   H9    S    
C25   N3    A    
O20   H32   S    
C52   C56   A    
C3    O7    A    
C49   C53   A    
C2    O6    A    
C17   C19   A    
C56   C58   A    
C51   C55   A    
Cu4   O7    S    
C23   C25   A    
C37   C41   A    
C68   O23   D    
C52   H20   S    
C50   H18   S    
C38   C42   A    
C40   H8    S    
C48   C52   A    
C20   H30   S    
C10   H22   S    
C8    C10   A    
C31   O9    A    
Cu1   O2    S    
C7    C67   S    
C22   H2    S    
C37   C57   A    
C36   H4    S    
