data_mof_unit_61471.cif
_audit_creation_date              2012-12-10T19:02:18-0500
_audit_creation_method            fapswitch 2.2
_symmetry_space_group_name_H-M    P1
_symmetry_Int_Tables_number       1
_space_group_crystal_system       triclinic
_cell_length_a                    14.346573
_cell_length_b                    10.84488
_cell_length_c                    9.533767
_cell_angle_alpha                 90.191106
_cell_angle_beta                  89.961043
_cell_angle_gamma                 90.189186
_cell_volume                      1483.31222725

loop_
_atom_site_label
_atom_site_type_symbol
_atom_type_description
_atom_site_fract_x
_atom_site_fract_y
_atom_site_fract_z
_atom_type_partial_charge
C1    C     C_R   0.498263 0.262374 0.499739 0.796738
C2    C     C_3   0.535090 0.077090 0.759896 -0.501466
C3    C     C_R   0.559061 0.575899 0.073977 0.287167
C4    C     C_R   0.331024 0.499986 0.500065 0.804333
C5    C     C_R   0.436931 0.432298 0.074230 -0.068103
C6    C     C_R   0.436891 0.432346 0.925342 -0.067382
C7    C     C_R   0.559373 0.575348 0.926374 0.279880
C8    C     C_3   0.663246 0.571861 0.921154 -0.494750
C9    C     C_3   0.662933 0.573883 0.079991 -0.492864
C10   C     C_R   0.499217 0.737726 0.500121 0.853254
C11   C     C_R   0.668960 0.500263 0.499955 0.839751
C12   C     C_1   0.771245 0.500570 0.499956 -0.199383
C13   C     C_1   0.228708 0.500160 0.500143 -0.189518
C14   C     C_1   0.143306 0.500346 0.500163 -0.001329
C15   C     C_1   0.042667 0.500562 0.500146 0.012601
C16   C     C_1   0.957265 0.500688 0.500103 0.015117
C17   C     C_1   0.856634 0.500708 0.500025 -0.002204
C18   C     C_1   0.486072 0.879447 0.874741 0.242237
C19   C     C_2   0.640437 0.890316 0.755559 0.833356
C20   C     C_R   0.483866 0.064303 0.624235 0.063289
C21   C     C_R   0.489602 0.129537 0.498856 -0.075214
C22   C     C_R   0.483432 0.063855 0.371686 -0.199221
C23   C     C_R   0.484398 0.935147 0.372176 -0.185165
C24   C     C_R   0.492607 0.870873 0.499673 -0.062544
C25   C     C_R   0.487920 0.937874 0.624925 0.034678
C26   C     C_3   0.540981 0.936023 0.761110 -0.048179
Cu1   Cu    Cu3+1 0.500000 0.499980 0.640670 0.953714
Cu2   Cu    Cu3+1 0.500000 0.500020 0.359330 0.950191
H1    H     H_    0.482012 0.111237 0.271874 0.168068
H2    H     H_    0.690427 0.483987 0.877062 0.215867
H3    H     H_    0.742847 0.806411 0.646228 0.328533
H4    H     H_    0.693643 0.656404 0.874316 0.228709
H5    H     H_    0.690830 0.487626 0.126351 0.218736
H6    H     H_    0.691999 0.660534 0.124964 0.218028
H7    H     H_    0.482911 0.886783 0.272630 0.184668
H8    H     H_    0.490053 0.117309 0.843292 0.191513
H9    H     H_    0.603120 0.125308 0.746485 0.204095
H10   H     H_    0.387301 0.375324 0.129968 0.139347
H11   H     H_    0.387218 0.375430 0.869281 0.140539
N1    N     N_R   0.500540 0.500930 0.147930 -0.184219
N2    N     N_R   0.500540 0.500890 0.852020 -0.184628
N3    N     N_1   0.442733 0.835389 0.964018 -0.308319
O1    O     O_R   0.500000 0.319640 0.618810 -0.577239
O2    O     O_R   0.675530 0.832805 0.635253 -0.777662
O3    O     O_R   0.500010 0.319680 0.381230 -0.584970
O4    O     O_R   0.376050 0.499980 0.618820 -0.562995
O5    O     O_R   0.376060 0.500020 0.381230 -0.562478
O6    O     O_R   0.499990 0.680320 0.618770 -0.567827
O7    O     O_R   0.500000 0.680360 0.381190 -0.580098
O8    O     O_R   0.623940 0.499980 0.618770 -0.559935
O9    O     O_R   0.623950 0.500020 0.381180 -0.563470
O10   O     O_2   0.690938 0.905559 0.857522 -0.603247

loop_
_geom_bond_atom_site_label_1
_geom_bond_atom_site_label_2
_ccdc_geom_bond_type
C12   C17   T    
Cu1   O6    S    
C23   C24   A    
Cu2   O5    S    
C1    C21   S    
C3    C9    S    
C22   H1    S    
Cu2   O7    S    
Cu1   N2    S    
C3    C7    A    
C18   C26   S    
Cu1   O8    S    
C11   C12   S    
C8    H2    S    
C20   C21   A    
C7    N2    A    
C7    C8    S    
C2    C26   S    
C11   O8    A    
C4    O4    A    
C13   C14   T    
C24   C25   A    
C9    H5    S    
C2    H9    S    
C1    O3    A    
C5    C6    A    
Cu1   O4    S    
C21   C22   A    
C3    N1    A    
C23   H7    S    
C18   N3    T    
C10   O6    A    
C9    H6    S    
Cu2   O9    S    
Cu2   O3    S    
C11   O9    A    
C20   C25   A    
Cu2   N1    S    
C2    C20   S    
C15   C16   T    
C8    H4    S    
Cu1   O1    S    
Cu1   Cu2   S    
C19   O2    S    
H3    O2    S    
C5    N1    A    
C2    H8    S    
C4    C13   S    
C19   C26   S    
C6    H11   S    
C16   C17   S    
C4    O5    A    
C10   C24   S    
C25   C26   S    
C5    H10   S    
C10   O7    A    
C19   O10   D    
C1    O1    A    
C22   C23   A    
C14   C15   S    
C8    C9    S    
C6    N2    A    
