data_mof_unit_7271.cif
_audit_creation_date              2012-12-10T16:45:21-0500
_audit_creation_method            fapswitch 2.2
_symmetry_space_group_name_H-M    P1
_symmetry_Int_Tables_number       1
_space_group_crystal_system       triclinic
_cell_length_a                    7.436668
_cell_length_b                    8.74122
_cell_length_c                    15.735123
_cell_angle_alpha                 94.123159
_cell_angle_beta                  74.829544
_cell_angle_gamma                 102.742868
_cell_volume                      962.800134963

loop_
_atom_site_label
_atom_site_type_symbol
_atom_type_description
_atom_site_fract_x
_atom_site_fract_y
_atom_site_fract_z
_atom_type_partial_charge
C1    C     C_R   0.542661 0.799347 0.503841 0.857368
C2    C     C_R   0.457339 0.200653 0.496159 0.857368
C3    C     C_R   0.273307 0.411920 0.082597 0.358600
C4    C     C_R   0.726693 0.588078 0.917403 0.358600
C5    C     C_R   0.155295 0.350026 0.027674 -0.233565
C6    C     C_R   0.844704 0.649973 0.972326 -0.233565
C7    C     C_2   0.552698 0.963822 0.517613 0.098902
C8    C     C_2   0.447302 0.036178 0.482386 0.098902
C9    C     C_R   0.383497 0.486620 0.666302 0.801436
C10   C     C_R   0.616503 0.513380 0.333697 0.801435
C11   C     C_R   0.311584 0.460110 0.761110 -0.052000
C12   C     C_R   0.688415 0.539889 0.238890 -0.052001
C13   C     C_R   0.089482 0.317490 0.884536 -0.143057
C14   C     C_R   0.910519 0.682509 0.115464 -0.143057
C15   C     C_R   0.142085 0.353046 0.795355 -0.083916
C16   C     C_R   0.857915 0.646953 0.204645 -0.083916
C17   C     C_R   0.428291 0.527886 0.816152 -0.137620
C18   C     C_R   0.571709 0.472114 0.183848 -0.137620
C19   C     C_R   0.395117 0.473507 0.901867 0.092858
C20   C     C_R   0.604883 0.526492 0.098133 0.092857
C21   C     C_R   0.214507 0.377439 0.937941 0.057986
C22   C     C_R   0.785493 0.622560 0.062059 0.057987
C23   C     C_R   0.530861 0.516609 0.953777 -0.064431
C24   C     C_R   0.469139 0.483390 0.046223 -0.064431
Cu1   Cu    Cu3+1 0.322120 0.483240 0.490330 1.075912
Cu2   Cu    Cu3+1 0.677880 0.516760 0.509670 1.075912
H1    H     H_    0.010141 0.289335 0.056396 0.183295
H2    H     H_    0.989859 0.710663 0.943604 0.183295
H3    H     H_    0.458785 0.373870 0.209023 0.203688
H4    H     H_    0.541215 0.626129 0.790977 0.203687
H5    H     H_    0.949810 0.701558 0.246434 0.195648
H6    H     H_    0.050190 0.298441 0.753566 0.195648
H7    H     H_    0.952691 0.241210 0.911471 0.153004
H8    H     H_    0.047309 0.758788 0.088528 0.153004
H9    H     H_    0.003690 0.614999 0.568738 0.261587
H10   H     H_    0.996310 0.385001 0.431262 0.261587
N1    N     N_2   0.945180 0.542040 0.524240 -0.171292
N2    N     N_2   0.054820 0.457960 0.475760 -0.171292
O1    O     O_R   0.384450 0.714270 0.493720 -0.564223
O2    O     O_R   0.615550 0.285730 0.506280 -0.564223
O3    O     O_R   0.684880 0.742590 0.510050 -0.538994
O4    O     O_R   0.315120 0.257410 0.489950 -0.538994
O5    O     O_R   0.265540 0.477900 0.617090 -0.580133
O6    O     O_R   0.734460 0.522100 0.382910 -0.580133
O7    O     O_R   0.565970 0.506210 0.633420 -0.545424
O8    O     O_R   0.434030 0.493790 0.366580 -0.545424
Cl1   Cl    Cl    0.151056 0.415810 0.195155 -0.662470
Cl2   Cl    Cl    0.848944 0.584188 0.804845 -0.662469
Cl3   Cl    Cl    0.686299 0.053840 0.593285 -0.563157
Cl4   Cl    Cl    0.313701 0.946159 0.406715 -0.563157

loop_
_geom_bond_atom_site_label_1
_geom_bond_atom_site_label_2
_ccdc_geom_bond_type
Cu1   O4    S    
C14   H8    S    
C19   C23   A    
C23   C24   A    
Cu2   N1    S    
C13   H7    S    
N1    N2    D    
C8    Cl4   S    
Cu1   N2    S    
Cu1   O5    S    
C11   C15   A    
H10   N2    S    
C13   C21   A    
C7    C8    D    
C18   H3    S    
C1    C7    S    
Cu1   O1    S    
C16   H5    S    
C9    O7    A    
C17   H4    S    
C9    C11   S    
Cu2   O2    S    
C3    C24   A    
C10   C12   S    
C2    O4    A    
C6    H2    S    
C12   C16   A    
C3    Cl1   S    
C19   C21   A    
C20   C22   A    
C18   C20   A    
C13   C15   A    
C14   C22   A    
C14   C16   A    
C9    O5    A    
C1    O1    A    
Cu2   O6    S    
C6    C22   A    
C17   C19   A    
C2    O2    A    
C10   O8    A    
C15   H6    S    
C5    C21   A    
C7    Cl3   S    
C4    C6    A    
C4    Cl2   S    
C12   C18   A    
C4    C23   A    
C20   C24   A    
C11   C17   A    
Cu2   O7    S    
H9    N1    S    
Cu1   Cu2   S    
C5    H1    S    
C10   O6    A    
Cu1   O8    S    
C2    C8    S    
C1    O3    A    
Cu2   O3    S    
C3    C5    A    
