data_mof_unit_10922.cif
_audit_creation_date              2012-12-10T19:45:56-0500
_audit_creation_method            fapswitch 2.2
_symmetry_space_group_name_H-M    P1
_symmetry_Int_Tables_number       1
_space_group_crystal_system       triclinic
_cell_length_a                    18.411294
_cell_length_b                    18.365989
_cell_length_c                    27.569936
_cell_angle_alpha                 89.999626
_cell_angle_beta                  89.838916
_cell_angle_gamma                 90.045694
_cell_volume                      9322.50309849

loop_
_atom_site_label
_atom_site_type_symbol
_atom_type_description
_atom_site_fract_x
_atom_site_fract_y
_atom_site_fract_z
_atom_type_partial_charge
C1    C     C_1   0.000187 0.500146 0.775489 -0.018703
C2    C     C_1   0.500093 0.999788 0.775491 -0.021427
C3    C     C_1   0.500190 0.000148 0.275489 -0.018689
C4    C     C_1   0.000089 0.499767 0.275491 -0.021493
C5    C     C_1   0.500089 0.000066 0.180932 -0.152246
C6    C     C_1   0.999777 0.499858 0.180911 -0.152856
C7    C     C_1   0.000087 0.500065 0.680932 -0.152235
C8    C     C_1   0.499780 0.999876 0.680911 -0.153009
C9    C     C_3   0.222022 0.716226 0.910230 0.502479
C10   C     C_3   0.282482 0.220238 0.910998 0.516069
C11   C     C_3   0.780964 0.283066 0.910859 0.523000
C12   C     C_3   0.717333 0.779332 0.910221 0.554632
C13   C     C_3   0.212097 0.265434 0.907220 0.490605
C14   C     C_3   0.277911 0.779105 0.908558 0.503359
C15   C     C_3   0.787592 0.733670 0.906632 0.492372
C16   C     C_3   0.734595 0.213346 0.906710 0.488994
C17   C     C_3   0.721982 0.216279 0.410227 0.502500
C18   C     C_3   0.782523 0.720264 0.410997 0.516028
C19   C     C_3   0.280860 0.783163 0.410859 0.522957
C20   C     C_3   0.217343 0.279346 0.410222 0.554648
C21   C     C_3   0.712162 0.765498 0.407215 0.490662
C22   C     C_3   0.777865 0.279161 0.408559 0.503365
C23   C     C_3   0.287604 0.233687 0.406633 0.492359
C24   C     C_3   0.234487 0.713449 0.406701 0.489038
C25   C     C_R   0.500080 0.999987 0.870915 0.804802
C26   C     C_R   0.000016 0.500009 0.870885 0.809275
C27   C     C_R   0.000080 0.499985 0.370914 0.804788
C28   C     C_R   0.500016 0.000009 0.370885 0.809275
C29   C     C_R   0.500016 0.000009 0.129124 0.823019
C30   C     C_R   0.999912 0.499979 0.129092 0.822625
C31   C     C_R   0.000016 0.500009 0.629124 0.823018
C32   C     C_R   0.499913 0.999983 0.629092 0.822542
C33   C     C_R   0.639944 0.859820 0.000125 0.865587
C34   C     C_R   0.139871 0.640254 0.000299 0.859138
C35   C     C_R   0.359983 0.140071 0.000339 0.864287
C36   C     C_R   0.860025 0.359898 0.000316 0.866951
C37   C     C_R   0.640053 0.140537 0.999503 0.871478
C38   C     C_R   0.140232 0.359694 0.999693 0.872979
C39   C     C_R   0.359988 0.859650 0.000051 0.867281
C40   C     C_R   0.859568 0.640151 0.999561 0.873023
C41   C     C_R   0.139945 0.359821 0.500126 0.865602
C42   C     C_R   0.639872 0.140254 0.500300 0.859226
C43   C     C_R   0.859982 0.640070 0.500340 0.864289
C44   C     C_R   0.360024 0.859899 0.500315 0.867031
C45   C     C_R   0.140050 0.640539 0.499502 0.871490
C46   C     C_R   0.640236 0.859697 0.499692 0.872961
C47   C     C_R   0.859987 0.359650 0.500052 0.867236
C48   C     C_R   0.359569 0.140152 0.499561 0.873035
C49   C     C_1   0.000122 0.500067 0.819072 -0.164227
C50   C     C_1   0.500187 0.999874 0.819085 -0.165108
C51   C     C_1   0.500124 0.000068 0.319072 -0.164252
C52   C     C_1   0.000186 0.499861 0.319085 -0.165072
C53   C     C_R   0.258196 0.794716 0.961396 -0.210429
C54   C     C_R   0.201819 0.252571 0.961775 -0.174383
C55   C     C_R   0.747099 0.201954 0.961287 -0.164589
C56   C     C_R   0.797988 0.746802 0.961148 -0.163697
C57   C     C_R   0.259649 0.204688 0.962047 -0.031135
C58   C     C_R   0.206579 0.740003 0.961438 -0.063701
C59   C     C_R   0.740034 0.794517 0.961337 -0.053673
C60   C     C_R   0.795303 0.259652 0.961816 -0.042425
C61   C     C_R   0.758172 0.294741 0.461405 -0.210443
C62   C     C_R   0.701847 0.752601 0.461762 -0.174358
C63   C     C_R   0.247053 0.701998 0.461265 -0.164608
C64   C     C_R   0.297994 0.246809 0.461151 -0.163735
C65   C     C_R   0.759664 0.704702 0.462040 -0.031053
C66   C     C_R   0.706554 0.240026 0.461445 -0.063712
C67   C     C_R   0.240038 0.294522 0.461341 -0.053652
C68   C     C_R   0.295261 0.759694 0.461798 -0.042522
C69   C     C_R   0.302735 0.805184 0.001847 -0.250464
C70   C     C_R   0.193428 0.300968 0.001303 -0.268050
C71   C     C_R   0.698315 0.194240 0.000770 -0.273660
C72   C     C_R   0.806060 0.698588 0.000843 -0.272694
C73   C     C_R   0.302817 0.194094 0.002537 -0.273226
C74   C     C_R   0.193641 0.697799 0.002458 -0.262645
C75   C     C_R   0.697020 0.805755 0.002050 -0.276947
C76   C     C_R   0.806133 0.302668 0.002437 -0.278833
C77   C     C_R   0.802736 0.305182 0.501847 -0.250352
C78   C     C_R   0.693440 0.800979 0.501298 -0.268156
C79   C     C_R   0.198304 0.694250 0.500763 -0.273641
C80   C     C_R   0.306062 0.198591 0.500844 -0.272680
C81   C     C_R   0.802815 0.694092 0.502536 -0.273236
C82   C     C_R   0.693653 0.197787 0.502453 -0.262420
C83   C     C_R   0.197021 0.305757 0.502052 -0.276948
C84   C     C_R   0.306125 0.802675 0.502431 -0.278794
C85   C     C_R   0.290479 0.762973 0.044145 0.361894
C86   C     C_R   0.236538 0.290796 0.043494 0.357940
C87   C     C_R   0.707994 0.238101 0.042782 0.360773
C88   C     C_R   0.762606 0.708945 0.042990 0.360492
C89   C     C_R   0.288643 0.234693 0.044841 0.331224
C90   C     C_R   0.233465 0.711848 0.045169 0.335512
C91   C     C_R   0.711073 0.765413 0.044423 0.334949
C92   C     C_R   0.764792 0.289227 0.044512 0.333745
C93   C     C_R   0.790526 0.262923 0.544130 0.361682
C94   C     C_R   0.736538 0.790794 0.543493 0.357943
C95   C     C_R   0.208005 0.738090 0.542783 0.360774
C96   C     C_R   0.262607 0.208945 0.542991 0.360504
C97   C     C_R   0.788634 0.734684 0.544842 0.331197
C98   C     C_R   0.733528 0.211780 0.545149 0.335365
C99   C     C_R   0.211072 0.265411 0.544424 0.334951
C100  C     C_R   0.264803 0.789215 0.544512 0.333740
C101  C     C_1   0.500162 0.000146 0.224512 -0.015103
C102  C     C_1   0.999880 0.499768 0.224500 -0.014158
C103  C     C_1   0.000159 0.500145 0.724512 -0.015114
C104  C     C_1   0.499885 0.999793 0.724500 -0.013967
O1    O     O_3   0.500000 0.000000 0.000010 -0.485559
O2    O     O_3   0.000000 0.500000 0.000010 -0.480089
O3    O     O_3   0.000000 0.500000 0.500010 -0.485555
O4    O     O_3   0.500000 0.000000 0.500010 -0.480104
O5    O     O_R   0.439270 0.000000 0.893740 -0.628937
O6    O     O_R   0.000000 0.439270 0.893740 -0.652115
O7    O     O_R   0.560730 0.000000 0.893740 -0.658373
O8    O     O_R   0.000000 0.560730 0.893740 -0.652329
O9    O     O_R   0.939270 0.500000 0.393740 -0.628936
O10   O     O_R   0.500000 0.939270 0.393740 -0.652182
O11   O     O_R   0.060730 0.500000 0.393740 -0.658386
O12   O     O_R   0.500000 0.060730 0.393740 -0.652303
O13   O     O_R   0.500000 0.939230 0.106280 -0.651206
O14   O     O_R   0.060770 0.500000 0.106280 -0.653096
O15   O     O_R   0.500000 0.060770 0.106280 -0.649240
O16   O     O_R   0.939230 0.500000 0.106280 -0.650142
O17   O     O_R   0.000000 0.439230 0.606280 -0.651196
O18   O     O_R   0.560770 0.000000 0.606280 -0.653026
O19   O     O_R   0.000000 0.560770 0.606280 -0.649256
O20   O     O_R   0.439230 0.000000 0.606280 -0.650142
O21   O     O_R   0.646160 0.914520 0.972140 -0.639586
O22   O     O_R   0.085480 0.646160 0.972140 -0.640050
O23   O     O_R   0.353840 0.085480 0.972140 -0.618385
O24   O     O_R   0.914520 0.353840 0.972140 -0.635511
O25   O     O_R   0.646160 0.085480 0.972140 -0.678825
O26   O     O_R   0.085480 0.353840 0.972140 -0.679187
O27   O     O_R   0.353840 0.914520 0.972140 -0.658005
O28   O     O_R   0.914520 0.646160 0.972140 -0.678219
O29   O     O_R   0.146160 0.414520 0.472140 -0.639546
O30   O     O_R   0.585480 0.146160 0.472140 -0.640063
O31   O     O_R   0.853840 0.585480 0.472140 -0.618419
O32   O     O_R   0.414520 0.853840 0.472140 -0.635611
O33   O     O_R   0.146160 0.585480 0.472140 -0.678808
O34   O     O_R   0.585480 0.853840 0.472140 -0.679144
O35   O     O_R   0.853840 0.414520 0.472140 -0.658053
O36   O     O_R   0.414520 0.146160 0.472140 -0.678222
O37   O     O_R   0.414550 0.146120 0.027860 -0.617129
O38   O     O_R   0.853880 0.414550 0.027860 -0.615013
O39   O     O_R   0.585450 0.853880 0.027860 -0.614092
O40   O     O_R   0.146120 0.585450 0.027860 -0.614139
O41   O     O_R   0.414550 0.853880 0.027860 -0.624240
O42   O     O_R   0.853880 0.585450 0.027860 -0.616625
O43   O     O_R   0.585450 0.146120 0.027860 -0.615993
O44   O     O_R   0.146120 0.414550 0.027860 -0.617732
O45   O     O_R   0.914550 0.646120 0.527860 -0.617115
O46   O     O_R   0.353880 0.914550 0.527860 -0.615023
O47   O     O_R   0.085450 0.353880 0.527860 -0.614122
O48   O     O_R   0.646120 0.085450 0.527860 -0.614011
O49   O     O_R   0.914550 0.353880 0.527860 -0.624197
O50   O     O_R   0.353880 0.085450 0.527860 -0.616637
O51   O     O_R   0.085450 0.646120 0.527860 -0.616011
O52   O     O_R   0.646120 0.914550 0.527860 -0.617684
Zn1   Zn    Zn3+2 0.500000 0.913210 0.039810 0.962264
Zn2   Zn    Zn3+2 0.086790 0.500000 0.039810 0.962209
Zn3   Zn    Zn3+2 0.500000 0.086790 0.039810 0.963484
Zn4   Zn    Zn3+2 0.913210 0.500000 0.039810 0.964769
Zn5   Zn    Zn3+2 0.000000 0.413210 0.539810 0.962241
Zn6   Zn    Zn3+2 0.586790 0.000000 0.539810 0.962316
Zn7   Zn    Zn3+2 0.000000 0.586790 0.539810 0.963478
Zn8   Zn    Zn3+2 0.413210 0.000000 0.539810 0.964780
Zn9   Zn    Zn3+2 0.586760 0.000000 0.960200 0.929396
Zn10  Zn    Zn3+2 0.000000 0.586760 0.960200 0.932192
Zn11  Zn    Zn3+2 0.413240 0.000000 0.960200 0.965561
Zn12  Zn    Zn3+2 0.000000 0.413240 0.960200 0.933929
Zn13  Zn    Zn3+2 0.086760 0.500000 0.460200 0.929401
Zn14  Zn    Zn3+2 0.500000 0.086760 0.460200 0.932213
Zn15  Zn    Zn3+2 0.913240 0.500000 0.460200 0.965515
Zn16  Zn    Zn3+2 0.500000 0.913240 0.460200 0.933881
O53   O     O_3   0.159404 0.725941 0.880950 -0.632681
C105  C     C_3   0.171119 0.702084 0.832756 0.145722
H1    H     H_    0.182058 0.642558 0.831707 0.145715
H2    H     H_    0.217314 0.731708 0.815692 0.178269
C106  C     C_3   0.102249 0.715919 0.803337 -0.368264
H3    H     H_    0.055407 0.689060 0.821567 0.237790
H4    H     H_    0.091429 0.775356 0.801620 0.211958
C107  C     C_3   0.109052 0.686084 0.751861 -0.956049
H5    H     H_    0.153994 0.713865 0.732247 0.266272
H6    H     H_    0.057516 0.695625 0.732038 0.265151
H7    H     H_    0.119604 0.626549 0.752647 0.272477
O54   O     O_3   0.283845 0.155191 0.883035 -0.596508
C108  C     C_3   0.308208 0.168944 0.835147 0.165297
H8    H     H_    0.367404 0.181178 0.835193 0.133805
H9    H     H_    0.278354 0.215303 0.818434 0.167929
C109  C     C_3   0.296232 0.100921 0.804328 -0.345770
H10   H     H_    0.323497 0.053759 0.821788 0.244807
H11   H     H_    0.237128 0.089415 0.801987 0.238534
C110  C     C_3   0.326677 0.110463 0.753170 -0.973417
H12   H     H_    0.298375 0.155677 0.734293 0.267878
H13   H     H_    0.318498 0.059462 0.732240 0.268722
H14   H     H_    0.385799 0.122365 0.754505 0.273970
O55   O     O_3   0.846574 0.283401 0.883602 -0.608804
C111  C     C_3   0.835021 0.307394 0.835499 0.166999
H15   H     H_    0.823321 0.366813 0.835154 0.134562
H16   H     H_    0.789249 0.277595 0.818120 0.170794
C112  C     C_3   0.904225 0.294460 0.806018 -0.354105
H17   H     H_    0.950518 0.322569 0.823853 0.234687
H18   H     H_    0.916165 0.235172 0.804811 0.224619
C113  C     C_3   0.896708 0.323089 0.754315 -0.964188
H19   H     H_    0.852303 0.293971 0.735198 0.266227
H20   H     H_    0.948364 0.314259 0.734277 0.267280
H21   H     H_    0.884725 0.382346 0.754639 0.272811
O56   O     O_3   0.717501 0.845182 0.882748 -0.612098
C114  C     C_3   0.681007 0.840633 0.837512 0.131417
H22   H     H_    0.671747 0.897480 0.825204 0.157357
H23   H     H_    0.625960 0.816278 0.840304 0.133018
C115  C     C_3   0.726442 0.801951 0.798565 -0.320347
H24   H     H_    0.780796 0.828053 0.796026 0.251756
H25   H     H_    0.733333 0.743713 0.808316 0.249078
C116  C     C_3   0.689973 0.806162 0.748971 -0.990705
H26   H     H_    0.635957 0.779221 0.750152 0.272388
H27   H     H_    0.724235 0.778105 0.721540 0.276325
H28   H     H_    0.683110 0.863837 0.737743 0.266011
O57   O     O_3   0.164031 0.227886 0.875255 -0.626057
C117  C     C_3   0.089438 0.238513 0.884619 0.121828
H29   H     H_    0.061233 0.236486 0.849078 0.146060
H30   H     H_    0.076781 0.292655 0.899475 0.179156
C118  C     C_3   0.059294 0.176549 0.916110 -0.387012
H31   H     H_    0.071547 0.123608 0.898544 0.238013
H32   H     H_    0.084794 0.176742 0.952455 0.235462
C119  C     C_3   0.977506 0.182916 0.922744 -0.877334
H33   H     H_    0.963881 0.235586 0.939984 0.317034
H34   H     H_    0.957980 0.138392 0.946676 0.241991
H35   H     H_    0.949799 0.178755 0.887160 0.284181
O58   O     O_3   0.260515 0.832485 0.872665 -0.635913
C120  C     C_3   0.215404 0.889677 0.889106 0.140604
H36   H     H_    0.247292 0.927478 0.912207 0.186079
H37   H     H_    0.167982 0.868747 0.909779 0.162434
C121  C     C_3   0.186703 0.931214 0.845231 -0.348665
H38   H     H_    0.233069 0.951139 0.823041 0.229613
H39   H     H_    0.153631 0.893965 0.822450 0.223254
C122  C     C_3   0.139966 0.995675 0.860792 -0.988002
H40   H     H_    0.092812 0.976686 0.882627 0.263744
H41   H     H_    0.119297 0.024392 0.828200 0.268780
H42   H     H_    0.172660 0.034514 0.882617 0.301658
O59   O     O_3   0.835908 0.770639 0.874431 -0.636755
C123  C     C_3   0.910437 0.759934 0.883394 0.112451
H43   H     H_    0.938242 0.759378 0.847586 0.144970
H44   H     H_    0.922924 0.706884 0.899805 0.183359
C124  C     C_3   0.940906 0.823859 0.912670 -0.375406
H45   H     H_    0.928829 0.875388 0.893258 0.231596
H46   H     H_    0.915334 0.826153 0.949092 0.234242
C125  C     C_3   0.022693 0.818098 0.918874 -0.901791
H47   H     H_    0.036921 0.766244 0.937026 0.317177
H48   H     H_    0.042250 0.863977 0.941588 0.241380
H49   H     H_    0.049792 0.821038 0.882945 0.278351
O60   O     O_3   0.770970 0.165186 0.874072 -0.630700
C126  C     C_3   0.759546 0.090477 0.882969 0.126499
H50   H     H_    0.758744 0.062646 0.847195 0.150083
H51   H     H_    0.706386 0.078464 0.899391 0.181353
C127  C     C_3   0.822837 0.059086 0.912242 -0.399533
H52   H     H_    0.874243 0.067998 0.891928 0.230008
H53   H     H_    0.827222 0.086630 0.947883 0.237194
C128  C     C_3   0.813645 0.977881 0.920944 -0.866775
H54   H     H_    0.761609 0.967201 0.939804 0.314729
H55   H     H_    0.858466 0.957958 0.944248 0.239789
H56   H     H_    0.814910 0.948203 0.885881 0.292662
O61   O     O_3   0.659355 0.226004 0.380958 -0.632661
C129  C     C_3   0.671056 0.202171 0.332758 0.145762
H57   H     H_    0.681986 0.142643 0.331694 0.145707
H58   H     H_    0.717252 0.231795 0.315695 0.178271
C130  C     C_3   0.602182 0.216030 0.303348 -0.368263
H59   H     H_    0.555342 0.189162 0.321574 0.237755
H60   H     H_    0.591367 0.275469 0.301649 0.211968
C131  C     C_3   0.608973 0.186226 0.251864 -0.956052
H61   H     H_    0.653916 0.214013 0.232254 0.266271
H62   H     H_    0.557435 0.195788 0.232046 0.265139
H63   H     H_    0.619516 0.126689 0.252632 0.272480
O62   O     O_3   0.783863 0.655226 0.383024 -0.596543
C132  C     C_3   0.808245 0.668983 0.335141 0.165313
H64   H     H_    0.867444 0.681202 0.335195 0.133799
H65   H     H_    0.778409 0.715354 0.318428 0.167948
C133  C     C_3   0.796263 0.600971 0.304313 -0.345805
H66   H     H_    0.823514 0.553799 0.321772 0.244798
H67   H     H_    0.737156 0.589475 0.301965 0.238513
C134  C     C_3   0.826722 0.610518 0.253159 -0.973350
H68   H     H_    0.798432 0.655741 0.234284 0.267883
H69   H     H_    0.818539 0.559523 0.232224 0.268720
H70   H     H_    0.885846 0.622409 0.254502 0.273985
O63   O     O_3   0.346435 0.783528 0.383565 -0.608848
C135  C     C_3   0.334825 0.807584 0.335483 0.167038
H71   H     H_    0.323125 0.867004 0.335179 0.134544
H72   H     H_    0.289031 0.777809 0.318112 0.170775
C136  C     C_3   0.403993 0.794687 0.305958 -0.354112
H73   H     H_    0.450313 0.822753 0.323790 0.234730
H74   H     H_    0.415917 0.735399 0.304696 0.224628
C137  C     C_3   0.396421 0.823410 0.254281 -0.964181
H75   H     H_    0.351996 0.794327 0.235162 0.266256
H76   H     H_    0.448057 0.814616 0.234212 0.267290
H77   H     H_    0.384438 0.882667 0.254657 0.272798
O64   O     O_3   0.217513 0.345201 0.382756 -0.612089
C138  C     C_3   0.181024 0.340662 0.337517 0.131397
H78   H     H_    0.171767 0.397511 0.325213 0.157358
H79   H     H_    0.125974 0.316309 0.340306 0.133026
C139  C     C_3   0.226460 0.301984 0.298570 -0.320356
H80   H     H_    0.280815 0.328086 0.296033 0.251750
H81   H     H_    0.233351 0.243745 0.308318 0.249084
C140  C     C_3   0.189994 0.306200 0.248975 -0.990684
H82   H     H_    0.135978 0.279260 0.250153 0.272387
H83   H     H_    0.224258 0.278147 0.221544 0.276325
H84   H     H_    0.183132 0.363877 0.237749 0.266006
O65   O     O_3   0.664094 0.727995 0.375229 -0.626080
C141  C     C_3   0.589502 0.738698 0.384552 0.121791
H85   H     H_    0.561336 0.736648 0.348996 0.146177
H86   H     H_    0.576871 0.792872 0.399370 0.179025
C142  C     C_3   0.559271 0.676804 0.416067 -0.387037
H87   H     H_    0.571680 0.623816 0.398614 0.238165
H88   H     H_    0.584578 0.677161 0.452470 0.235388
C143  C     C_3   0.477443 0.683089 0.422503 -0.877082
H89   H     H_    0.463670 0.735805 0.439622 0.317341
H90   H     H_    0.457852 0.638631 0.446466 0.242028
H91   H     H_    0.449917 0.678765 0.386864 0.283749
O66   O     O_3   0.760448 0.332555 0.372681 -0.635902
C144  C     C_3   0.715372 0.389758 0.389148 0.140578
H92   H     H_    0.747290 0.427534 0.412247 0.186113
H93   H     H_    0.667956 0.368836 0.409830 0.162391
C145  C     C_3   0.686661 0.431329 0.345290 -0.348696
H94   H     H_    0.733020 0.451234 0.323087 0.229622
H95   H     H_    0.653547 0.394109 0.322515 0.223238
C146  C     C_3   0.639976 0.495814 0.360879 -0.987832
H96   H     H_    0.592828 0.476847 0.382728 0.263710
H97   H     H_    0.619299 0.524556 0.328299 0.268784
H98   H     H_    0.672713 0.534624 0.382698 0.301690
O67   O     O_3   0.335921 0.270662 0.374436 -0.636743
C147  C     C_3   0.410449 0.259981 0.383411 0.112470
H99   H     H_    0.438267 0.259425 0.347608 0.144947
H100  H     H_    0.422945 0.206939 0.399830 0.183380
C148  C     C_3   0.440888 0.323924 0.412684 -0.375392
H101  H     H_    0.428824 0.375440 0.393255 0.231580
H102  H     H_    0.415285 0.326237 0.449096 0.234249
C149  C     C_3   0.522671 0.318170 0.418921 -0.901794
H103  H     H_    0.536887 0.266325 0.437090 0.317117
H104  H     H_    0.542207 0.364062 0.441633 0.241373
H105  H     H_    0.549798 0.321095 0.383001 0.278405
O68   O     O_3   0.270823 0.665323 0.374020 -0.630621
C150  C     C_3   0.259426 0.590605 0.382898 0.126489
H106  H     H_    0.258577 0.562801 0.347116 0.150050
H107  H     H_    0.206292 0.578571 0.399350 0.181322
C151  C     C_3   0.322766 0.559203 0.412120 -0.399528
H108  H     H_    0.374139 0.568125 0.391771 0.229994
H109  H     H_    0.327208 0.586733 0.447762 0.237186
C152  C     C_3   0.313588 0.477994 0.420816 -0.866618
H110  H     H_    0.261567 0.467300 0.439692 0.314736
H111  H     H_    0.358430 0.458074 0.444103 0.239790
H112  H     H_    0.314835 0.448325 0.385749 0.292591
N1    N     N_3   0.252907 0.642096 0.907777 -0.500546
H113  H     H_    0.288638 0.633026 0.936571 0.143985
H114  H     H_    0.210637 0.604616 0.912274 0.172116
N2    N     N_3   0.350771 0.262420 0.908678 -0.512343
H115  H     H_    0.352088 0.301857 0.936049 0.142443
H116  H     H_    0.393936 0.227050 0.915792 0.164903
N3    N     N_3   0.740352 0.352290 0.908437 -0.510294
H117  H     H_    0.700913 0.354548 0.935791 0.141421
H118  H     H_    0.776472 0.394942 0.915496 0.166963
N4    N     N_3   0.648784 0.737555 0.908244 -0.503845
H119  H     H_    0.648528 0.696405 0.934476 0.140350
H120  H     H_    0.606132 0.772378 0.917735 0.157230
N5    N     N_3   0.224319 0.341472 0.892550 -0.473794
H121  H     H_    0.250927 0.370031 0.920072 0.132284
H122  H     H_    0.174192 0.367104 0.888089 0.175991
N6    N     N_3   0.353209 0.754384 0.902015 -0.453810
H123  H     H_    0.370885 0.724778 0.932148 0.126086
H124  H     H_    0.386476 0.800471 0.900057 0.192615
N7    N     N_3   0.775236 0.657527 0.892284 -0.482116
H125  H     H_    0.749563 0.628904 0.920262 0.130866
H126  H     H_    0.825350 0.632110 0.887039 0.176426
N8    N     N_3   0.658925 0.226994 0.892409 -0.473217
H127  H     H_    0.631132 0.254152 0.920122 0.131176
H128  H     H_    0.632423 0.177152 0.888042 0.174114
N9    N     N_3   0.752872 0.142153 0.407751 -0.500554
H129  H     H_    0.788618 0.133071 0.436536 0.143997
H130  H     H_    0.710607 0.104667 0.412248 0.172117
N10   N     N_3   0.850835 0.762411 0.408694 -0.512330
H131  H     H_    0.852166 0.801831 0.436076 0.142439
H132  H     H_    0.893980 0.727014 0.415803 0.164910
N11   N     N_3   0.240243 0.852390 0.408493 -0.510294
H133  H     H_    0.200835 0.854616 0.435868 0.141431
H134  H     H_    0.276370 0.895034 0.415556 0.166934
N12   N     N_3   0.148796 0.237567 0.408238 -0.503849
H135  H     H_    0.148539 0.196413 0.434467 0.140346
H136  H     H_    0.106142 0.272387 0.417731 0.157224
N13   N     N_3   0.724434 0.841541 0.392573 -0.473800
H137  H     H_    0.751050 0.870061 0.420109 0.132298
H138  H     H_    0.674327 0.867211 0.388115 0.175868
N14   N     N_3   0.853162 0.254450 0.401994 -0.453816
H139  H     H_    0.870856 0.224830 0.432117 0.126073
H140  H     H_    0.886425 0.300539 0.400038 0.192640
N15   N     N_3   0.275255 0.157546 0.392280 -0.482111
H141  H     H_    0.249580 0.128917 0.420255 0.130862
H142  H     H_    0.325372 0.132135 0.387036 0.176456
N16   N     N_3   0.158800 0.727109 0.392445 -0.473207
H143  H     H_    0.131039 0.754243 0.420183 0.131173
H144  H     H_    0.132294 0.677269 0.388075 0.174056
O69   O     O_3   0.332978 0.772640 0.085006 -0.619248
C153  C     C_3   0.386754 0.717641 0.086026 0.138265
H145  H     H_    0.416042 0.713783 0.050609 0.125550
H146  H     H_    0.361823 0.663924 0.094421 0.163585
C154  C     C_3   0.441941 0.735547 0.125566 -0.305454
H147  H     H_    0.464649 0.790832 0.119254 0.262459
H148  H     H_    0.414273 0.735063 0.161405 0.216078
C155  C     C_3   0.504058 0.680586 0.126148 -0.972140
H149  H     H_    0.482850 0.624889 0.133078 0.256345
H150  H     H_    0.542955 0.694955 0.155333 0.270935
H151  H     H_    0.533362 0.681307 0.090880 0.279278
O70   O     O_3   0.225775 0.333674 0.084249 -0.621694
C156  C     C_3   0.280825 0.387385 0.086343 0.135455
H152  H     H_    0.287515 0.415682 0.050767 0.123872
H153  H     H_    0.333484 0.362469 0.096769 0.169392
C157  C     C_3   0.260333 0.443965 0.124660 -0.302719
H154  H     H_    0.206666 0.467954 0.115660 0.266348
H155  H     H_    0.256101 0.417130 0.160698 0.213298
C158  C     C_3   0.316587 0.504910 0.127234 -0.971702
H156  H     H_    0.370631 0.482530 0.137044 0.256798
H157  H     H_    0.300081 0.545144 0.155224 0.272707
H158  H     H_    0.320597 0.533192 0.091715 0.275403
O71   O     O_3   0.663410 0.229714 0.082953 -0.616341
C159  C     C_3   0.609866 0.284952 0.082372 0.139014
H159  H     H_    0.581473 0.287038 0.046685 0.124080
H160  H     H_    0.634725 0.339000 0.089695 0.162555
C160  C     C_3   0.553735 0.269312 0.121943 -0.299558
H161  H     H_    0.530365 0.214109 0.116472 0.262265
H162  H     H_    0.580773 0.270824 0.157885 0.214547
C161  C     C_3   0.492441 0.325176 0.121304 -0.976495
H163  H     H_    0.514326 0.380790 0.127479 0.256125
H164  H     H_    0.452755 0.312442 0.150494 0.270430
H165  H     H_    0.463876 0.323633 0.085884 0.278353
O72   O     O_3   0.772295 0.665809 0.083680 -0.618103
C162  C     C_3   0.717260 0.612005 0.084921 0.139147
H166  H     H_    0.713890 0.582228 0.049708 0.125206
H167  H     H_    0.663572 0.637003 0.092913 0.165044
C163  C     C_3   0.734514 0.557274 0.124997 -0.305305
H168  H     H_    0.789349 0.533767 0.118746 0.261207
H169  H     H_    0.734508 0.585676 0.160571 0.216536
C164  C     C_3   0.678861 0.495699 0.126357 -0.972717
H170  H     H_    0.678939 0.465935 0.091295 0.278706
H171  H     H_    0.623644 0.517721 0.133399 0.256618
H172  H     H_    0.692861 0.456917 0.155766 0.270524
O73   O     O_3   0.331621 0.226413 0.085523 -0.627300
C165  C     C_3   0.297485 0.177496 0.117759 0.128429
H173  H     H_    0.292125 0.122747 0.100669 0.118232
H174  H     H_    0.242709 0.197767 0.128567 0.153124
C166  C     C_3   0.344265 0.170737 0.163268 -0.326260
H175  H     H_    0.399878 0.152999 0.152887 0.245499
H176  H     H_    0.348376 0.224804 0.181188 0.217369
C167  C     C_3   0.312375 0.116013 0.199116 -0.974475
H177  H     H_    0.257118 0.133216 0.210617 0.268647
H178  H     H_    0.347576 0.112888 0.231697 0.274172
H179  H     H_    0.309455 0.061102 0.182331 0.264019
O74   O     O_3   0.223247 0.669984 0.086320 -0.625526
C168  C     C_3   0.169125 0.702532 0.115380 0.133123
H180  H     H_    0.116370 0.704226 0.095671 0.117132
H181  H     H_    0.185179 0.758906 0.125913 0.144692
C169  C     C_3   0.159660 0.657115 0.161433 -0.318437
H182  H     H_    0.148158 0.599649 0.151451 0.246101
H183  H     H_    0.210917 0.658381 0.182639 0.218109
C170  C     C_3   0.097644 0.685683 0.192917 -0.974174
H184  H     H_    0.108209 0.742976 0.203724 0.266111
H185  H     H_    0.092933 0.651917 0.226196 0.273153
H186  H     H_    0.045463 0.682682 0.172872 0.262837
O75   O     O_3   0.668543 0.774172 0.085430 -0.626953
C171  C     C_3   0.700609 0.827144 0.115588 0.135205
H187  H     H_    0.703097 0.880752 0.096689 0.117551
H188  H     H_    0.756469 0.810376 0.126393 0.146002
C172  C     C_3   0.654166 0.835064 0.161338 -0.320416
H189  H     H_    0.597217 0.847478 0.150993 0.246647
H190  H     H_    0.654399 0.782801 0.181684 0.217769
C173  C     C_3   0.682373 0.895638 0.194151 -0.972449
H191  H     H_    0.739084 0.884064 0.205409 0.265799
H192  H     H_    0.647758 0.899281 0.227117 0.274142
H193  H     H_    0.680512 0.948785 0.174951 0.262615
O76   O     O_3   0.772769 0.332204 0.085343 -0.625116
C174  C     C_3   0.824619 0.300043 0.116177 0.135582
H194  H     H_    0.878562 0.297188 0.097811 0.117056
H195  H     H_    0.807271 0.244195 0.127094 0.145363
C175  C     C_3   0.831625 0.346865 0.161779 -0.322705
H196  H     H_    0.844838 0.403784 0.151285 0.246077
H197  H     H_    0.778922 0.347145 0.181561 0.217166
C176  C     C_3   0.890829 0.318374 0.195396 -0.965043
H198  H     H_    0.878390 0.261727 0.206856 0.265377
H199  H     H_    0.893882 0.353334 0.228197 0.277517
H200  H     H_    0.944395 0.319619 0.176757 0.261879
O77   O     O_3   0.833063 0.272552 0.584977 -0.619386
C177  C     C_3   0.886850 0.217562 0.585949 0.138226
H201  H     H_    0.916092 0.213731 0.550514 0.125535
H202  H     H_    0.861942 0.163835 0.594344 0.163605
C178  C     C_3   0.942086 0.235455 0.625461 -0.305389
H203  H     H_    0.964792 0.290738 0.619141 0.262516
H204  H     H_    0.914462 0.234969 0.661315 0.216025
C179  C     C_3   0.004196 0.180486 0.626005 -0.972110
H205  H     H_    0.982991 0.124793 0.632952 0.256311
H206  H     H_    0.043140 0.194854 0.655161 0.271005
H207  H     H_    0.033444 0.181198 0.590716 0.279211
O78   O     O_3   0.725779 0.833673 0.584247 -0.621677
C180  C     C_3   0.780843 0.887369 0.586344 0.135467
H208  H     H_    0.787511 0.915694 0.550776 0.123902
H209  H     H_    0.833506 0.862433 0.596741 0.169387
C181  C     C_3   0.760397 0.943921 0.624690 -0.302679
H210  H     H_    0.706743 0.967954 0.615708 0.266268
H211  H     H_    0.756160 0.917051 0.660715 0.213331
C182  C     C_3   0.816695 0.004822 0.627284 -0.971740
H212  H     H_    0.820703 0.033147 0.591779 0.275492
H213  H     H_    0.870730 0.982394 0.637066 0.256819
H214  H     H_    0.800237 0.045030 0.655302 0.272529
O79   O     O_3   0.163440 0.729684 0.582962 -0.616353
C183  C     C_3   0.109894 0.784920 0.582403 0.139009
H215  H     H_    0.081487 0.787024 0.546720 0.124098
H216  H     H_    0.134755 0.838965 0.589732 0.162565
C184  C     C_3   0.053779 0.769260 0.621980 -0.299597
H217  H     H_    0.030415 0.714055 0.616505 0.262276
H218  H     H_    0.080829 0.770767 0.657918 0.214547
C185  C     C_3   0.992475 0.825115 0.621358 -0.976491
H219  H     H_    0.014353 0.880731 0.627536 0.256127
H220  H     H_    0.952802 0.812366 0.650552 0.270427
H221  H     H_    0.963898 0.823576 0.585942 0.278360
O80   O     O_3   0.272294 0.165806 0.583680 -0.618097
C186  C     C_3   0.217265 0.111997 0.584916 0.139100
H222  H     H_    0.213887 0.082234 0.549699 0.125194
H223  H     H_    0.163578 0.136989 0.592919 0.165073
C187  C     C_3   0.234531 0.057250 0.624980 -0.305280
H224  H     H_    0.289368 0.033751 0.618721 0.261250
H225  H     H_    0.234528 0.085637 0.660560 0.216519
C188  C     C_3   0.178885 0.995669 0.626332 -0.972699
H226  H     H_    0.178959 0.965920 0.591265 0.278689
H227  H     H_    0.123667 0.017681 0.633384 0.256612
H228  H     H_    0.192896 0.956874 0.655732 0.270544
O81   O     O_3   0.831602 0.726389 0.585528 -0.627300
C189  C     C_3   0.797450 0.677474 0.617757 0.128416
H229  H     H_    0.792083 0.622729 0.600663 0.118216
H230  H     H_    0.742676 0.697754 0.628562 0.153126
C190  C     C_3   0.844221 0.670699 0.663270 -0.326247
H231  H     H_    0.899832 0.652950 0.652892 0.245496
H232  H     H_    0.848340 0.724763 0.681192 0.217381
C191  C     C_3   0.812312 0.615977 0.699112 -0.974509
H233  H     H_    0.757057 0.633191 0.710609 0.268651
H234  H     H_    0.847507 0.612841 0.731696 0.274173
H235  H     H_    0.809383 0.561069 0.682323 0.264012
O82   O     O_3   0.723407 0.169803 0.586260 -0.625541
C192  C     C_3   0.669560 0.202420 0.615513 0.133118
H236  H     H_    0.616657 0.204184 0.595982 0.117086
H237  H     H_    0.685764 0.258769 0.626004 0.145004
C193  C     C_3   0.660397 0.156988 0.661586 -0.318608
H238  H     H_    0.648447 0.099603 0.651629 0.245842
H239  H     H_    0.711913 0.157941 0.682517 0.218303
C194  C     C_3   0.598938 0.185860 0.693428 -0.974174
H240  H     H_    0.609956 0.243086 0.704198 0.266149
H241  H     H_    0.594482 0.152085 0.726717 0.273192
H242  H     H_    0.546493 0.183159 0.673672 0.262916
O83   O     O_3   0.168540 0.274167 0.585431 -0.626944
C195  C     C_3   0.200601 0.327142 0.615589 0.135203
H243  H     H_    0.203086 0.380750 0.596689 0.117560
H244  H     H_    0.256462 0.310379 0.626395 0.145992
C196  C     C_3   0.154157 0.335060 0.661338 -0.320442
H245  H     H_    0.097207 0.347467 0.650992 0.246633
H246  H     H_    0.154395 0.282798 0.681686 0.217756
C197  C     C_3   0.182357 0.395639 0.694150 -0.972409
H247  H     H_    0.239069 0.384071 0.705409 0.265788
H248  H     H_    0.147742 0.399280 0.727116 0.274150
H249  H     H_    0.180491 0.448785 0.674948 0.262611
O84   O     O_3   0.272798 0.832173 0.585350 -0.625123
C198  C     C_3   0.324664 0.800001 0.616167 0.135554
H250  H     H_    0.378598 0.797150 0.597788 0.117055
H251  H     H_    0.307320 0.744150 0.627079 0.145372
C199  C     C_3   0.331695 0.846809 0.661773 -0.322700
H252  H     H_    0.344902 0.903731 0.651284 0.246077
H253  H     H_    0.279002 0.847084 0.681567 0.217168
C200  C     C_3   0.390917 0.818306 0.695372 -0.965068
H254  H     H_    0.378483 0.761656 0.706827 0.265380
H255  H     H_    0.393987 0.853256 0.728178 0.277509
H256  H     H_    0.444473 0.819557 0.676720 0.261881

loop_
_geom_bond_atom_site_label_1
_geom_bond_atom_site_label_2
_ccdc_geom_bond_type
C186  C187  S    
C170  H184  S    
C18   C21   S    
C10   O54   S    
C191  H235  S    
C53   C69   A    
O3    Zn15  S    
C164  H170  S    
C18   C65   S    
C92   O76   S    
O4    Zn8   S    
C197  H249  S    
C21   N13   S    
C109  C110  S    
O2    Zn10  S    
C94   O78   S    
C135  H71   S    
C11   O55   S    
C182  H214  S    
C137  H77   S    
C96   C99   A    
C15   O59   S    
C132  C133  S    
C189  H229  S    
C36   O38   A    
C127  H53   S    
C28   O12   A    
C72   C88   A    
C89   O73   S    
N4    H119  S    
C195  C196  S    
O59   C123  S    
O62   C132  S    
C56   C72   A    
C4    C102  S    
C114  C115  S    
C91   O75   S    
C136  H74   S    
O35   Zn15  S    
C162  C163  S    
C125  H47   S    
C55   C60   A    
C112  H17   S    
C82   C98   A    
C125  H49   S    
O58   C120  S    
C107  H6    S    
C160  C161  S    
C199  H253  S    
C21   O65   S    
C116  H27   S    
C5    C101  T    
C113  H19   S    
O75   C171  S    
C84   C100  A    
C145  C146  S    
C126  H50   S    
C90   O74   S    
C31   O17   A    
O56   C114  S    
C200  H256  S    
C47   O49   A    
C94   C97   A    
C44   C84   S    
C140  H82   S    
C60   C76   A    
C44   O46   A    
O49   Zn5   S    
O66   C144  S    
C144  C145  S    
C167  H179  S    
C120  H36   S    
C175  H197  S    
C66   C82   A    
C29   O15   A    
N3    H117  S    
C54   C70   A    
C2    C104  S    
C53   C58   A    
O17   Zn5   S    
N2    H115  S    
C39   O41   A    
C33   O21   A    
O84   C198  S    
C19   C68   S    
C37   O43   A    
C152  H112  S    
C35   O23   A    
C8    C104  T    
C105  C106  S    
C38   O44   A    
C21   C62   S    
C146  H97   S    
C147  H100  S    
C23   C64   S    
C6    C30   S    
C131  H62   S    
C24   C63   S    
C99   O83   S    
C190  H232  S    
C117  H29   S    
O14   Zn2   S    
C139  H80   S    
C11   C60   S    
C160  H161  S    
C13   C54   S    
O3    Zn13  S    
C140  H84   S    
C24   O68   S    
C197  H247  S    
C159  H159  S    
C173  H191  S    
C135  C136  S    
C111  H15   S    
C151  C152  S    
C85   C90   A    
O80   C186  S    
C41   O47   A    
C192  C193  S    
C19   O63   S    
O41   Zn1   S    
C56   C59   A    
C42   O30   A    
C100  O84   S    
C167  H177  S    
C74   C90   A    
C14   N6    S    
C110  H14   S    
C193  H238  S    
C149  H105  S    
O76   C174  S    
C39   O27   A    
C78   C94   A    
C171  C172  S    
C37   O25   A    
C134  H69   S    
C177  H201  S    
N16   H143  S    
O55   C111  S    
C23   O67   S    
C13   N5    S    
O16   Zn4   S    
C24   N16   S    
C156  H152  S    
C55   C71   A    
N13   H138  S    
C27   O11   A    
C20   N12   S    
N1    H113  S    
O4    Zn14  S    
C87   O71   S    
O71   C159  S    
C10   N2    S    
C18   O62   S    
N8    H127  S    
C162  H167  S    
C170  H185  S    
O77   C177  S    
C30   O16   A    
O50   Zn8   S    
C157  H154  S    
C191  H234  S    
C9    C58   S    
C120  C121  S    
O61   C129  S    
C108  H9    S    
O42   Zn4   S    
C9    N1    S    
N6    H123  S    
C177  C178  S    
C168  H181  S    
C128  H54   S    
C93   O77   S    
C25   C50   S    
C96   O80   S    
C2    C50   T    
O37   Zn3   S    
C158  H156  S    
C181  H211  S    
C169  H182  S    
C106  H4    S    
C112  C113  S    
C180  H209  S    
C158  H157  S    
C9    O53   S    
O7    Zn9   S    
C1    C103  S    
C75   C91   A    
C3    C101  S    
C195  H244  S    
C184  C185  S    
O27   Zn11  S    
C146  H96   S    
C7    C103  T    
C188  H226  S    
C186  H222  S    
C166  H175  S    
C111  C112  S    
C45   O33   A    
N10   H132  S    
C176  H198  S    
C142  H88   S    
C48   O36   A    
C193  C194  S    
O32   Zn16  S    
C194  H242  S    
C155  H149  S    
C149  H103  S    
C171  H187  S    
C126  C127  S    
C30   O14   A    
C127  C128  S    
O51   Zn7   S    
O57   C117  S    
O4    Zn6   S    
C198  H251  S    
C145  H95   S    
C166  C167  S    
O21   Zn9   S    
C14   O58   S    
C192  H236  S    
C25   O5    A    
C178  H204  S    
C117  H30   S    
C162  H166  S    
C88   C91   A    
C122  H40   S    
C124  C125  S    
O81   C189  S    
C39   C69   S    
O12   Zn14  S    
C131  H61   S    
C156  C157  S    
N4    H120  S    
C130  H60   S    
C28   O10   A    
C174  H194  S    
C27   O9    A    
O15   Zn3   S    
N3    H118  S    
O3    Zn7   S    
O65   C141  S    
C115  H25   S    
O4    Zn16  S    
C43   C81   S    
C122  H42   S    
C153  H146  S    
C47   O35   A    
C184  H217  S    
N6    H124  S    
C154  C155  S    
C69   C85   A    
C58   C74   A    
C117  C118  S    
C110  H12   S    
N15   H142  S    
C48   O50   A    
C199  H252  S    
C40   C72   S    
C130  C131  S    
C62   C78   A    
C157  C158  S    
C147  H99   S    
C173  H193  S    
C182  H212  S    
C129  H57   S    
C115  C116  S    
C46   O52   A    
O18   Zn6   S    
C181  C182  S    
C40   O42   A    
C128  H56   S    
C135  H72   S    
C185  H219  S    
O69   C153  S    
C22   C61   S    
C169  C170  S    
C123  H43   S    
C132  H65   S    
C189  H230  S    
C175  H196  S    
C148  C149  S    
C196  H246  S    
C187  H224  S    
C25   O7    A    
C15   N7    S    
C150  C151  S    
C133  H66   S    
C171  H188  S    
O30   Zn14  S    
C188  H228  S    
O63   C135  S    
C114  H23   S    
C165  H173  S    
C190  H231  S    
C165  H174  S    
C183  H215  S    
C54   C57   A    
C44   O32   A    
C140  H83   S    
C38   C70   S    
C12   N4    S    
N12   H135  S    
C86   O70   S    
C189  C190  S    
C20   O64   S    
C194  H240  S    
C155  H151  S    
C119  H33   S    
C129  C130  S    
C163  H168  S    
C88   O72   S    
N11   H133  S    
C160  H162  S    
C116  H26   S    
C33   O39   A    
C67   C83   A    
N5    H122  S    
C34   O40   A    
C17   C66   S    
C113  H20   S    
C38   O26   A    
O82   C192  S    
C118  C119  S    
N9    H130  S    
O64   C138  S    
C28   C51   S    
C151  H109  S    
C200  H255  S    
C161  H163  S    
C124  H45   S    
C176  H200  S    
C179  H205  S    
C186  H223  S    
C137  H75   S    
C144  H93   S    
O29   Zn13  S    
C22   N14   S    
C63   C68   A    
C12   C59   S    
C76   C92   A    
O1    Zn1   S    
O3    Zn5   S    
C113  H21   S    
N2    H116  S    
C141  H86   S    
C134  H68   S    
O31   Zn15  S    
C152  H111  S    
C196  C197  S    
O11   Zn13  S    
C182  H213  S    
C83   C99   A    
C87   C92   A    
C64   C80   A    
C139  H81   S    
C147  C148  S    
C41   O29   A    
C154  H147  S    
C164  H171  S    
C197  H248  S    
C141  C142  S    
O34   Zn16  S    
C114  H22   S    
C68   C84   A    
C32   O18   A    
N15   H141  S    
O39   Zn1   S    
C138  H79   S    
C26   C49   S    
C138  H78   S    
C46   C78   S    
C3    C51   T    
C95   C100  A    
O74   C168  S    
O60   C126  S    
C142  H87   S    
C97   O81   S    
C187  C188  S    
C123  C124  S    
C198  H250  S    
C119  H34   S    
C139  C140  S    
C167  H178  S    
C196  H245  S    
C110  H13   S    
C79   C95   A    
C127  H52   S    
C11   C16   S    
C65   C81   A    
C136  H73   S    
C12   C15   S    
C34   O22   A    
O8    Zn10  S    
C143  H89   S    
C136  C137  S    
C45   C79   S    
C177  H202  S    
C19   N11   S    
N16   H144  S    
C34   C74   S    
C183  C184  S    
C71   C87   A    
C111  H16   S    
C22   O66   S    
C98   O82   S    
C119  H35   S    
C26   O8    A    
O46   Zn8   S    
C107  H5    S    
C11   N3    S    
N13   H137  S    
C116  H28   S    
C159  C160  S    
O36   Zn14  S    
C151  H108  S    
O28   Zn10  S    
O22   Zn10  S    
C86   C89   A    
N8    H128  S    
C143  H91   S    
N10   H131  S    
C146  H98   S    
C17   C22   S    
C179  H207  S    
O25   Zn9   S    
C198  C199  S    
C157  H155  S    
C19   C24   S    
C73   C89   A    
O67   C147  S    
C120  H37   S    
C148  H101  S    
C145  H94   S    
C174  C175  S    
O47   Zn5   S    
C108  H8    S    
O1    Zn3   S    
O2    Zn4   S    
C159  H160  S    
C121  H38   S    
O1    Zn9   S    
C149  H104  S    
C17   O61   S    
C105  H2    S    
N11   H134  S    
C172  C173  S    
O70   C156  S    
C169  H183  S    
C106  H3    S    
C190  C191  S    
C85   O69   S    
C112  H18   S    
C181  H210  S    
C13   O57   S    
O48   Zn6   S    
C193  H239  S    
O20   Zn8   S    
C184  H218  S    
C18   N10   S    
C168  C169  S    
C32   O20   A    
C20   C67   S    
N7    H125  S    
C42   C82   S    
C9    C14   S    
O43   Zn3   S    
C200  H254  S    
O79   C183  S    
O9    Zn15  S    
C63   C79   A    
O53   C105  S    
O54   C108  S    
O10   Zn16  S    
C81   C97   A    
C4    C52   T    
C109  H11   S    
C194  H241  S    
C155  H150  S    
C173  H192  S    
C126  H51   S    
C174  H195  S    
C57   C73   A    
C41   C83   S    
O19   Zn7   S    
C180  H208  S    
C134  H70   S    
C166  H176  S    
O72   C162  S    
O5    Zn11  S    
C105  H1    S    
O6    Zn12  S    
C61   C66   A    
C150  H106  S    
C124  H46   S    
C16   N8    S    
C133  C134  S    
O45   Zn7   S    
C80   C96   A    
C36   C76   S    
C130  H59   S    
C26   O6    A    
O33   Zn13  S    
C143  H90   S    
C107  H7    S    
C46   O34   A    
C40   O28   A    
O52   Zn6   S    
N1    H114  S    
C6    C102  T    
C122  H41   S    
C153  C154  S    
C144  H92   S    
C121  H39   S    
C154  H148  S    
C33   C75   S    
C141  H85   S    
C138  C139  S    
C5    C29   S    
N14   H140  S    
C170  H186  S    
C125  H48   S    
C7    C31   S    
O13   Zn1   S    
C8    C32   S    
C64   C67   A    
C10   C57   S    
C191  H233  S    
N7    H126  S    
C61   C77   A    
O83   C195  S    
C16   O60   S    
N14   H139  S    
C108  C109  S    
C129  H58   S    
C175  C176  S    
O2    Zn2   S    
C20   C23   S    
C29   O13   A    
C121  C122  S    
O1    Zn11  S    
C109  H10   S    
C128  H55   S    
O2    Zn12  S    
C185  H220  S    
O26   Zn12  S    
C118  H31   S    
C172  H189  S    
C131  H63   S    
C106  C107  S    
C14   C53   S    
C123  H44   S    
C132  H64   S    
C158  H158  S    
O44   Zn2   S    
C43   O31   A    
C148  H102  S    
C187  H225  S    
C35   O37   A    
C45   O51   A    
C195  H243  S    
C150  H107  S    
C133  H67   S    
O68   C150  S    
C188  H227  S    
C185  H221  S    
C156  H153  S    
C47   C77   S    
O40   Zn2   S    
C70   C86   A    
C59   C75   A    
C36   O24   A    
C42   O48   A    
C27   C52   S    
C77   C93   A    
C183  H216  S    
C178  H203  S    
C142  C143  S    
C35   C73   S    
N12   H136  S    
C62   C65   A    
C172  H190  S    
O38   Zn4   S    
C10   C13   S    
C43   O45   A    
C163  H169  S    
C23   N15   S    
N5    H121  S    
C17   N9    S    
C180  C181  S    
C15   C56   S    
C48   C80   S    
C165  C166  S    
C37   C71   S    
C16   C55   S    
C31   O19   A    
C118  H32   S    
N9    H129  S    
O73   C165  S    
C161  H164  S    
O78   C180  S    
C176  H199  S    
C164  H172  S    
C179  H206  S    
C137  H76   S    
C168  H180  S    
C178  C179  S    
C163  C164  S    
C12   O56   S    
C192  H237  S    
O23   Zn11  S    
C115  H24   S    
C95   O79   S    
O24   Zn12  S    
C153  H145  S    
C152  H110  S    
C1    C49   T    
C93   C98   A    
C199  C200  S    
C161  H165  S    
