data_mof_unit_55527.cif
_audit_creation_date              2012-12-11T15:41:25-0500
_audit_creation_method            fapswitch 2.2
_symmetry_space_group_name_H-M    P1
_symmetry_Int_Tables_number       1
_space_group_crystal_system       triclinic
_cell_length_a                    19.071776
_cell_length_b                    11.123799
_cell_length_c                    18.670669
_cell_angle_alpha                 90.087167
_cell_angle_beta                  89.867487
_cell_angle_gamma                 90.219341
_cell_volume                      3960.94953396

loop_
_atom_site_label
_atom_site_type_symbol
_atom_type_description
_atom_site_fract_x
_atom_site_fract_y
_atom_site_fract_z
_atom_type_partial_charge
C1    C     C_R   0.727265 0.955046 0.852270 0.544591
C2    C     C_R   0.321812 0.397376 0.023234 -0.029173
C3    C     C_R   0.758733 0.864447 0.352076 0.547502
C4    C     C_2   0.499326 0.169526 0.921948 -0.112834
C5    C     C_2   0.504226 0.165185 0.079779 -0.122876
C6    C     C_2   0.998944 0.665578 0.921812 -0.116608
C7    C     C_2   0.004287 0.665982 0.079842 -0.116267
C8    C     C_2   0.488997 0.069585 0.038054 -0.164476
C9    C     C_2   0.503134 0.068647 0.960797 -0.163043
C10   C     C_2   0.994127 0.567628 0.039141 -0.152746
C11   C     C_2   0.010398 0.567806 0.962305 -0.153906
C12   C     C_R   0.747236 0.404781 0.080166 -0.022339
C13   C     C_R   0.189329 0.936035 0.967044 -0.007328
C14   C     C_R   0.249516 0.397999 0.917910 0.003827
C15   C     C_R   0.246926 0.901619 0.080959 -0.020330
C16   C     C_R   0.742696 0.916676 0.923450 0.039793
C17   C     C_3   0.582201 0.445074 0.344374 -0.012042
C18   C     C_3   0.584365 0.544012 0.288905 -0.340396
C19   C     C_3   0.411091 0.296254 0.553081 -0.004609
C20   C     C_3   0.371153 0.262114 0.620760 -0.345135
C21   C     C_3   0.089411 0.796565 0.447378 -0.004469
C22   C     C_3   0.128923 0.761823 0.379585 -0.345285
C23   C     C_3   0.918316 0.944287 0.656131 -0.015994
C24   C     C_R   0.820525 0.865782 0.019541 -0.042521
C25   C     C_3   0.914893 0.044077 0.711067 -0.340838
C26   C     C_3   0.921509 0.208558 0.363507 0.016134
C27   C     C_3   0.979541 0.248155 0.312634 -0.336709
C28   C     C_3   0.066439 0.232770 0.628944 0.003966
C29   C     C_3   0.020612 0.284781 0.688183 -0.339523
C30   C     C_3   0.432364 0.731303 0.370292 0.004781
C31   C     C_3   0.478371 0.783655 0.311197 -0.341247
C32   C     C_3   0.577421 0.709770 0.635891 0.017525
C33   C     C_3   0.520332 0.749130 0.687830 -0.337836
C34   C     C_3   0.052046 0.080961 0.128512 -0.120392
C35   C     C_R   0.764217 0.265998 0.981940 -0.160526
C36   C     C_3   0.942883 0.117595 0.909609 -0.134046
C37   C     C_3   0.553414 0.660094 0.072734 -0.125919
C38   C     C_3   0.435808 0.601964 0.864610 -0.100938
C39   C     C_R   0.207841 0.308138 0.028547 -0.143351
C40   C     C_R   0.270461 0.771949 0.980009 -0.153602
C41   C     C_R   0.697086 0.894812 0.043256 -0.106577
C42   C     C_R   0.775897 0.298208 0.053030 -0.168321
C43   C     C_R   0.198151 0.333950 0.956827 -0.155069
C44   C     C_R   0.281643 0.802641 0.051192 -0.160851
C45   C     C_R   0.272103 0.954347 0.147487 0.542822
C46   C     C_R   0.686147 0.915145 0.971677 -0.140569
C47   C     C_3   0.631349 0.510276 0.044119 0.148276
C48   C     C_3   0.386669 0.463451 0.942363 0.138724
C49   C     C_3   0.120912 0.968146 0.051836 0.143292
C50   C     C_3   0.879780 0.947523 0.937954 0.135135
C51   C     C_3   0.621462 0.479208 0.965609 -0.227853
C52   C     C_3   0.395776 0.440718 0.023445 -0.218208
C53   C     C_3   0.111456 0.941853 0.973038 -0.215040
C54   C     C_3   0.889256 0.931115 0.018599 -0.227742
C55   C     C_R   0.726960 0.341779 0.935954 -0.004450
C56   C     C_R   0.228300 0.452201 0.851144 0.544317
C57   C     C_R   0.269648 0.342423 0.064345 0.007450
C58   C     C_R   0.227343 0.841685 0.936293 -0.005133
C59   C     C_R   0.764821 0.872203 0.068296 0.027889
C60   C     C_R   0.519695 0.168474 0.414697 -0.036857
C61   C     C_R   0.558692 0.173936 0.559967 -0.008439
C62   C     C_R   0.941359 0.673796 0.440002 -0.007841
C63   C     C_R   0.980169 0.667928 0.585302 -0.036352
C64   C     C_R   0.544300 0.274389 0.446200 -0.027378
C65   C     C_R   0.560916 0.278134 0.518240 -0.010248
C66   C     C_R   0.939484 0.777886 0.481955 -0.010094
C67   C     C_R   0.772078 0.454589 0.147473 0.542619
C68   C     C_R   0.956006 0.773932 0.553998 -0.025752
C69   C     C_R   0.546006 0.063935 0.525039 -0.163050
C70   C     C_R   0.527751 0.060870 0.452430 -0.158725
C71   C     C_R   0.971461 0.560346 0.547390 -0.157076
C72   C     C_R   0.953361 0.563639 0.474730 -0.162592
C73   C     C_R   0.530362 0.177777 0.850802 0.544783
C74   C     C_R   0.470459 0.177323 0.149665 0.538328
C75   C     C_R   0.030504 0.677282 0.850934 0.535854
C76   C     C_R   0.970222 0.677402 0.149537 0.551697
C77   C     C_3   0.510308 0.396127 0.445218 0.153906
C78   C     C_R   0.706861 0.477336 0.035097 0.087911
C79   C     C_3   0.521715 0.395333 0.525743 0.182009
C80   C     C_3   0.979061 0.895247 0.474716 0.180933
C81   C     C_3   0.990355 0.895856 0.555274 0.153588
C82   C     C_R   0.763879 0.437915 0.430726 -0.019968
C83   C     C_R   0.233942 0.449432 0.567228 -0.015620
C84   C     C_R   0.266477 0.950699 0.432979 -0.015940
C85   C     C_R   0.736339 0.936539 0.569431 -0.019632
C86   C     C_R   0.820824 0.394413 0.468944 0.074919
C87   C     C_R   0.176394 0.412027 0.527320 0.084343
C88   C     C_R   0.323689 0.911800 0.472566 0.083764
C89   C     C_R   0.312465 0.423178 0.952741 0.039625
C90   C     C_R   0.678858 0.895060 0.530835 0.075188
C91   C     C_R   0.821204 0.392470 0.542843 -0.032111
C92   C     C_R   0.177187 0.410361 0.453503 -0.041286
C93   C     C_R   0.322949 0.909275 0.546367 -0.040581
C94   C     C_R   0.678413 0.894379 0.456888 -0.033279
C95   C     C_R   0.706679 0.481156 0.543825 -0.171666
C96   C     C_R   0.294882 0.490018 0.455499 -0.190373
C97   C     C_R   0.206155 0.991248 0.545063 -0.190393
C98   C     C_R   0.794197 0.979703 0.456693 -0.172113
C99   C     C_R   0.709080 0.489351 0.469631 -0.183732
C100  C     C_R   0.198451 0.964890 0.039306 0.075622
C101  C     C_R   0.290783 0.500209 0.530272 -0.182934
C102  C     C_R   0.210285 0.002327 0.470324 -0.181967
C103  C     C_R   0.791919 0.986630 0.530891 -0.185928
C104  C     C_3   0.855807 0.275798 0.461093 0.144382
C105  C     C_3   0.134911 0.299087 0.533534 0.157689
C106  C     C_3   0.363890 0.798101 0.465589 0.157479
C107  C     C_3   0.642230 0.777285 0.537676 0.144928
C108  C     C_3   0.863289 0.279041 0.541647 -0.212530
C109  C     C_3   0.126610 0.306120 0.453151 -0.214658
C110  C     C_3   0.372097 0.803749 0.546027 -0.215066
C111  C     C_R   0.809807 0.888277 0.947604 0.020769
C112  C     C_3   0.633838 0.783025 0.457246 -0.212202
C113  C     C_R   0.759471 0.422065 0.580643 0.008632
C114  C     C_R   0.241171 0.430990 0.417522 -0.004490
C115  C     C_R   0.259277 0.930759 0.582594 -0.004024
C116  C     C_R   0.740713 0.922522 0.419375 0.007811
C117  C     C_R   0.723559 0.313209 0.859936 0.572605
C118  C     C_R   0.275711 0.314431 0.139899 0.573066
C119  C     C_R   0.223751 0.813845 0.860046 0.570166
C120  C     C_R   0.773010 0.825191 0.139347 0.578672
C121  C     C_R   0.726025 0.959691 0.645381 0.520687
C122  C     C_R   0.697327 0.446789 0.963587 -0.002511
C123  C     C_R   0.275415 0.964358 0.356043 0.537588
C124  C     C_R   0.224825 0.463581 0.644104 0.537894
C125  C     C_R   0.774130 0.460347 0.354730 0.517659
C126  C     C_R   0.564838 0.181046 0.637831 0.577174
C127  C     C_R   0.472503 0.176437 0.353471 0.528603
C128  C     C_R   0.027460 0.676131 0.646523 0.530394
C129  C     C_R   0.935104 0.680939 0.362161 0.576286
C130  C     C_R   0.741264 0.364080 0.647877 0.550249
C131  C     C_R   0.258913 0.365757 0.351917 0.556270
C132  C     C_R   0.241164 0.865497 0.648083 0.556425
Cr1   Cr    Cr6+3 0.769260 0.163750 0.750730 0.983695
Cr2   Cr    Cr6+3 0.385810 0.322400 0.252290 0.981480
Cr3   Cr    Cr6+3 0.114190 0.822400 0.747710 0.980748
Cr4   Cr    Cr6+3 0.885810 0.822400 0.252290 0.989553
Cr5   Cr    Cr6+3 0.230740 0.163750 0.249270 1.007276
Cr6   Cr    Cr6+3 0.269260 0.663750 0.750730 1.002921
Cr7   Cr    Cr6+3 0.730740 0.663750 0.249270 0.984615
Cr8   Cr    Cr6+3 0.612640 0.009910 0.748780 0.982172
Cr9   Cr    Cr6+3 0.387360 0.009910 0.251220 0.983308
Cr10  Cr    Cr6+3 0.112640 0.509910 0.748780 0.983591
Cr11  Cr    Cr6+3 0.887360 0.509910 0.251220 0.987816
Cr12  Cr    Cr6+3 0.614190 0.322400 0.747710 0.990507
H1    H     H_    0.462400 0.991199 0.059871 0.159959
H2    H     H_    0.343830 0.513082 0.429430 0.119302
H3    H     H_    0.938204 0.212037 0.891284 0.150798
H4    H     H_    0.973914 0.068080 0.868643 0.099524
H5    H     H_    0.970984 0.118640 0.961742 0.135804
H6    H     H_    0.535573 0.614270 0.122519 0.100461
H7    H     H_    0.519156 0.634917 0.026892 0.134522
H8    H     H_    0.547915 0.758275 0.081341 0.131636
H9    H     H_    0.439808 0.699409 0.852666 0.143300
H10   H     H_    0.412739 0.556712 0.816921 0.133611
H11   H     H_    0.489663 0.568090 0.874808 0.099889
H12   H     H_    0.157488 0.014793 0.571372 0.118949
H13   H     H_    0.840329 0.009173 0.428761 0.109090
H14   H     H_    0.666336 0.529620 0.443223 0.179814
H15   H     H_    0.335554 0.533540 0.559402 0.162069
H16   H     H_    0.165907 0.037061 0.441488 0.161405
H17   H     H_    0.835179 0.025568 0.557496 0.181518
H18   H     H_    0.817774 0.207296 0.441940 0.087604
H19   H     H_    0.168863 0.222767 0.549704 0.081758
H20   H     H_    0.329083 0.722789 0.448707 0.082596
H21   H     H_    0.515963 0.983375 0.935777 0.145894
H22   H     H_    0.679571 0.707376 0.555399 0.087779
H23   H     H_    0.835704 0.206526 0.568912 0.138523
H24   H     H_    0.145388 0.224917 0.425661 0.131418
H25   H     H_    0.351921 0.722910 0.572913 0.131818
H26   H     H_    0.658612 0.709250 0.428615 0.140044
H27   H     H_    0.918030 0.293418 0.559554 0.181221
H28   H     H_    0.073405 0.335231 0.436492 0.179112
H29   H     H_    0.425656 0.831023 0.563047 0.180357
H30   H     H_    0.579224 0.800956 0.440481 0.180279
H31   H     H_    0.532741 0.241902 0.058419 0.084624
H32   H     H_    0.971279 0.486264 0.061455 0.160462
H33   H     H_    0.483248 0.252314 0.947091 0.083126
H34   H     H_    0.028991 0.744837 0.057217 0.079503
H35   H     H_    0.975354 0.743936 0.945491 0.081414
H36   H     H_    0.783566 0.181503 0.962869 0.204253
H37   H     H_    0.165084 0.265153 0.056259 0.213529
H38   H     H_    0.295219 0.693559 0.958661 0.211920
H39   H     H_    0.652222 0.897263 0.078908 0.152920
H40   H     H_    0.807834 0.240735 0.086405 0.139687
H41   H     H_    0.148053 0.309305 0.933694 0.148773
H42   H     H_    0.318700 0.750863 0.082273 0.146548
H43   H     H_    0.032788 0.486641 0.939486 0.152802
H44   H     H_    0.633412 0.935844 0.954778 0.135899
H45   H     H_    0.603647 0.449528 0.082536 0.087340
H46   H     H_    0.415760 0.399242 0.907519 0.100061
H47   H     H_    0.103594 0.893664 0.087847 0.092594
H48   H     H_    0.913981 0.892464 0.902717 0.108557
H49   H     H_    0.586297 0.400610 0.957122 0.095839
H50   H     H_    0.433269 0.368364 0.035888 0.102492
H51   H     H_    0.086009 0.853975 0.962579 0.098333
H52   H     H_    0.933807 0.872504 0.032450 0.102220
H53   H     H_    0.610152 0.558082 0.931066 0.158267
H54   H     H_    0.945603 0.970016 0.458099 0.145850
H55   H     H_    0.402113 0.523742 0.056076 0.148753
H56   H     H_    0.089797 0.017998 0.941726 0.150996
H57   H     H_    0.887055 0.016425 0.049719 0.147836
H58   H     H_    0.541878 0.982653 0.555493 0.214747
H59   H     H_    0.511834 0.977005 0.428703 0.199435
H60   H     H_    0.986486 0.476225 0.571054 0.199966
H61   H     H_    0.956812 0.482244 0.444143 0.214173
H62   H     H_    0.557421 0.368789 0.317930 0.166401
H63   H     H_    0.635345 0.411685 0.355192 0.135328
H64   H     H_    0.606322 0.627558 0.312238 0.179533
H65   H     H_    0.046828 0.902312 0.568191 0.157211
H66   H     H_    0.617227 0.515738 0.242821 0.133918
H67   H     H_    0.530656 0.558453 0.268653 0.109185
H68   H     H_    0.433783 0.213083 0.531625 0.137292
H69   H     H_    0.373867 0.325191 0.511795 0.131671
H70   H     H_    0.352845 0.343871 0.649036 0.168506
H71   H     H_    0.325225 0.205015 0.606846 0.093407
H72   H     H_    0.405780 0.211005 0.657339 0.176396
H73   H     H_    0.066482 0.713572 0.469120 0.136710
H74   H     H_    0.126954 0.826093 0.488387 0.132201
H75   H     H_    0.147481 0.843342 0.351139 0.169480
H76   H     H_    0.453861 0.402178 0.432290 0.156776
H77   H     H_    0.174655 0.704854 0.393386 0.092347
H78   H     H_    0.093924 0.710392 0.343218 0.175840
H79   H     H_    0.943615 0.869669 0.683214 0.169179
H80   H     H_    0.865433 0.908830 0.645088 0.133947
H81   H     H_    0.892962 0.126685 0.687025 0.180016
H82   H     H_    0.881545 0.015641 0.756769 0.154242
H83   H     H_    0.968243 0.060160 0.731980 0.108023
H84   H     H_    0.871105 0.211160 0.333548 0.139909
H85   H     H_    0.932004 0.114589 0.378944 0.129991
H86   H     H_    0.031609 0.229751 0.336406 0.135731
H87   H     H_    0.555585 0.469941 0.542477 0.144764
H88   H     H_    0.975312 0.197051 0.261709 0.062612
H89   H     H_    0.975003 0.345513 0.300829 0.188986
H90   H     H_    0.118026 0.211792 0.653915 0.128313
H91   H     H_    0.043058 0.147599 0.609320 0.183003
H92   H     H_    0.965258 0.290818 0.671166 0.116949
H93   H     H_    0.025033 0.229936 0.737384 0.060429
H94   H     H_    0.038502 0.375218 0.702816 0.219513
H95   H     H_    0.380719 0.710260 0.345228 0.127488
H96   H     H_    0.455516 0.646137 0.389672 0.181181
H97   H     H_    0.533700 0.790105 0.328333 0.116172
H98   H     H_    0.660902 0.511113 0.572097 0.107820
H99   H     H_    0.474040 0.728554 0.261949 0.060582
H100  H     H_    0.460672 0.874032 0.296693 0.218755
H101  H     H_    0.628255 0.711557 0.665125 0.142049
H102  H     H_    0.566102 0.616106 0.620027 0.130816
H103  H     H_    0.467808 0.731693 0.664623 0.133601
H104  H     H_    0.524787 0.697226 0.738350 0.062767
H105  H     H_    0.525782 0.846232 0.700289 0.190682
H106  H     H_    0.079593 0.048102 0.177130 0.137249
H107  H     H_    0.005400 0.023935 0.116888 0.117413
H108  H     H_    0.033316 0.173396 0.139657 0.129106
O1    O     O_R   0.784290 0.290360 0.830540 -0.491243
O2    O     O_R   0.456020 0.282110 0.333230 -0.549048
O3    O     O_R   0.043980 0.782110 0.666770 -0.548778
O4    O     O_R   0.956020 0.782110 0.333230 -0.476132
O5    O     O_R   0.679070 0.374030 0.674430 -0.522436
O6    O     O_R   0.320930 0.374030 0.325570 -0.506089
O7    O     O_R   0.179070 0.874030 0.674430 -0.505069
O8    O     O_R   0.820930 0.874030 0.325570 -0.523913
O9    O     O_3   0.665360 0.165350 0.749070 -0.291100
O10   O     O_3   0.334640 0.165350 0.250930 -0.262566
O11   O     O_3   0.165360 0.665350 0.749070 -0.264235
O12   O     O_R   0.215710 0.290360 0.169460 -0.515543
O13   O     O_3   0.834640 0.665350 0.250930 -0.279847
O14   O     O_R   0.762610 0.041070 0.825230 -0.482131
O15   O     O_R   0.237390 0.041070 0.174770 -0.498923
O16   O     O_R   0.262610 0.541070 0.825230 -0.497845
O17   O     O_R   0.737390 0.541070 0.174770 -0.493939
O18   O     O_R   0.667390 0.924160 0.829970 -0.536500
O19   O     O_R   0.332610 0.924160 0.170030 -0.532910
O20   O     O_R   0.167390 0.424160 0.829970 -0.540676
O21   O     O_R   0.832610 0.424160 0.170030 -0.526119
O22   O     O_R   0.553980 0.081420 0.821780 -0.499541
O23   O     O_R   0.284290 0.790360 0.830540 -0.500899
O24   O     O_R   0.446020 0.081420 0.178220 -0.507232
O25   O     O_R   0.053980 0.581420 0.821780 -0.505652
O26   O     O_R   0.946020 0.581420 0.178220 -0.494587
O27   O     O_R   0.543210 0.283170 0.826740 -0.535691
O28   O     O_R   0.456790 0.283170 0.173260 -0.537075
O29   O     O_R   0.043210 0.783170 0.826740 -0.541972
O30   O     O_R   0.956790 0.783170 0.173260 -0.533564
O31   O     O_R   0.678350 0.375000 0.822720 -0.502103
O32   O     O_R   0.321650 0.375000 0.177280 -0.499442
O33   O     O_R   0.178350 0.875000 0.822720 -0.498206
O34   O     O_R   0.715710 0.790360 0.169460 -0.496686
O35   O     O_R   0.821650 0.875000 0.177280 -0.513256
O36   O     O_R   0.785060 0.289300 0.670580 -0.538764
O37   O     O_R   0.214940 0.289300 0.329420 -0.525267
O38   O     O_R   0.285060 0.789300 0.670580 -0.526618
O39   O     O_R   0.714940 0.789300 0.329420 -0.540129
O40   O     O_R   0.763330 0.040090 0.676940 -0.530493
O41   O     O_R   0.236670 0.040090 0.323060 -0.513126
O42   O     O_R   0.263330 0.540090 0.676940 -0.514162
O43   O     O_R   0.736670 0.540090 0.323060 -0.530225
O44   O     O_R   0.668160 0.923110 0.670000 -0.507440
O45   O     O_R   0.554690 0.080440 0.673480 -0.519059
O46   O     O_R   0.331840 0.923110 0.330000 -0.504712
O47   O     O_R   0.168160 0.423110 0.670000 -0.504476
O48   O     O_R   0.831840 0.423110 0.330000 -0.509687
O49   O     O_3   0.550271 0.486244 0.409243 -0.614960
O50   O     O_3   0.459546 0.390590 0.568977 -0.565077
O51   O     O_3   0.041256 0.890652 0.431538 -0.564801
O52   O     O_3   0.950600 0.985664 0.591452 -0.616013
O53   O     O_3   0.921204 0.282990 0.425108 -0.562406
O54   O     O_3   0.071447 0.315596 0.571511 -0.556451
O55   O     O_3   0.427666 0.813988 0.427947 -0.556755
O56   O     O_R   0.445310 0.080440 0.326520 -0.502977
O57   O     O_3   0.577456 0.784940 0.574736 -0.563075
O58   O     O_3   0.097953 0.085067 0.069383 -0.587642
O59   O     O_3   0.874939 0.068798 0.917093 -0.563957
O60   O     O_3   0.624353 0.634439 0.058032 -0.537332
O61   O     O_3   0.392710 0.586607 0.925296 -0.582148
O62   O     O_R   0.054690 0.580440 0.673480 -0.501802
O63   O     O_R   0.945310 0.580440 0.326520 -0.520869
O64   O     O_R   0.543980 0.282110 0.666770 -0.474797

loop_
_geom_bond_atom_site_label_1
_geom_bond_atom_site_label_2
_ccdc_geom_bond_type
C120  O35   A    
C81   H65   S    
C6    H35   S    
C127  O2    A    
C107  C112  S    
C19   C20   S    
C4    H33   S    
Cr6   O42   S    
C126  O64   A    
C6    C75   S    
Cr7   O17   S    
C75   O25   A    
C68   C81   S    
C76   O30   A    
C17   H62   S    
C18   H66   S    
C15   C44   A    
C104  H18   S    
C95   C99   A    
C92   C109  S    
C24   C54   S    
C128  O3    A    
C114  C131  S    
C5    C74   S    
C35   C42   A    
C12   C42   A    
C51   H53   S    
C36   H4    S    
C8    H1    S    
Cr4   O8    S    
C85   C121  S    
Cr3   O33   S    
C97   C115  A    
Cr4   O30   S    
C85   C103  A    
C109  H28   S    
C93   C110  S    
Cr3   O3    S    
Cr5   O10   S    
C21   C22   S    
C37   O60   S    
C96   C114  A    
Cr12  O9    S    
Cr10  O25   S    
Cr7   O39   S    
C125  O43   A    
Cr11  O48   S    
C77   C79   S    
C22   H77   S    
C103  H17   S    
C40   C58   A    
C19   H68   S    
C20   H71   S    
C31   H100  S    
C130  O36   A    
C102  H16   S    
C6    C11   D    
C131  O37   A    
C47   O60   S    
Cr11  O13   S    
C82   C125  S    
C98   H13   S    
Cr2   O6    S    
C40   H38   S    
C34   H106  S    
C41   C59   A    
C124  O47   A    
C2    C52   S    
C63   C71   A    
Cr12  O64   S    
Cr10  O11   S    
C56   O20   A    
C55   C117  S    
C28   O54   S    
C84   C88   A    
C30   H96   S    
C90   C107  S    
C5    C8    D    
C39   C43   A    
C85   C90   A    
C1    O18   A    
C104  O53   S    
C60   C64   A    
C32   C33   S    
C49   C53   S    
C127  O56   A    
C25   H81   S    
C58   C119  S    
C69   C70   A    
Cr5   O12   S    
C61   C65   A    
C45   O15   A    
C80   O51   S    
C28   H90   S    
C14   C43   A    
C112  H30   S    
C22   H75   S    
C47   H45   S    
C59   C120  S    
C65   C79   S    
C84   C102  A    
C37   H6    S    
C86   C104  S    
C2    C57   A    
C73   O27   A    
Cr1   O9    S    
C74   O28   A    
C108  H27   S    
C3    C116  S    
C43   H41   S    
C33   H104  S    
C97   H12   S    
C117  O1    A    
Cr10  O47   S    
C83   C124  S    
C50   O59   S    
Cr7   O13   S    
C69   H58   S    
C21   H73   S    
C38   H11   S    
C124  O42   A    
C115  C132  S    
C71   H60   S    
C113  C130  S    
C62   C66   A    
C51   H49   S    
C125  O48   A    
C42   H40   S    
C25   H83   S    
Cr2   O32   S    
Cr7   O34   S    
C19   H69   S    
C20   H70   S    
C110  H25   S    
C109  H24   S    
C131  O6    A    
C87   C105  S    
C48   C52   S    
C73   O22   A    
Cr1   O36   S    
Cr12  O31   S    
C17   C18   S    
C19   O50   S    
Cr12  O5    S    
C79   O50   S    
C4    C73   S    
C34   H107  S    
C23   H79   S    
C37   H8    S    
C49   O58   S    
C123  O41   A    
C29   H94   S    
C105  C109  S    
C63   C68   A    
C83   C101  A    
C63   C128  S    
C7    C76   S    
C54   H57   S    
C66   C80   S    
Cr3   O7    S    
Cr6   O23   S    
C21   H74   S    
Cr2   O28   S    
C18   H67   S    
C71   C72   A    
C107  O57   S    
C24   C59   A    
C94   C112  S    
C50   C111  S    
Cr12  O27   S    
C56   O16   A    
C10   C11   S    
C27   H88   S    
C40   C44   A    
C16   C111  A    
C15   C45   S    
C57   C118  S    
C38   H9    S    
C4    C9    D    
C96   C101  A    
Cr4   O35   S    
C7    C10   D    
C83   C87   A    
C82   C99   A    
C14   C56   S    
C15   C100  A    
C126  O45   A    
C84   C123  S    
C22   H78   S    
C26   C27   S    
C50   C54   S    
C20   H72   S    
C31   H99   S    
C28   C29   S    
C34   O58   S    
C86   C91   A    
C30   C31   S    
C98   C103  A    
C23   O52   S    
C112  H26   S    
C1    O14   A    
C26   H84   S    
C105  H19   S    
C61   C126  S    
C106  H20   S    
C50   H48   S    
C48   H46   S    
C97   C102  A    
C105  O54   S    
C119  O33   A    
C36   O59   S    
C87   C92   A    
C5    H31   S    
C90   C94   A    
C13   C53   S    
C129  O63   A    
C26   H85   S    
C17   H63   S    
C54   H52   S    
C16   C46   A    
C94   C116  A    
C47   C51   S    
C82   C86   A    
Cr11  O26   S    
C7    H34   S    
C2    C89   A    
C120  O34   A    
C30   O55   S    
C14   C89   A    
C27   H86   S    
C80   H54   S    
C1    C16   S    
C33   H105  S    
Cr8   O45   S    
C17   O49   S    
Cr10  O62   S    
C132  O38   A    
Cr1   O1    S    
Cr9   O56   S    
C104  C108  S    
C96   H2    S    
C70   H59   S    
C121  O40   A    
C91   C108  S    
C31   H97   S    
C60   C127  S    
C72   H61   S    
C32   H101  S    
C64   C65   A    
C9    H21   S    
Cr6   O38   S    
Cr7   O43   S    
Cr6   O16   S    
C128  O62   A    
Cr8   O18   S    
C33   H103  S    
Cr9   O19   S    
C95   H98   S    
C119  O23   A    
C67   O17   A    
C106  O55   S    
C118  O12   A    
C101  H15   S    
Cr11  O21   S    
C51   C122  S    
C41   H39   S    
C21   O51   S    
Cr11  O63   S    
C48   C89   S    
C44   H42   S    
C66   C68   A    
Cr3   O11   S    
C38   O61   S    
Cr9   O10   S    
C32   O57   S    
Cr3   O29   S    
C3    O39   A    
C30   H95   S    
Cr1   O14   S    
C11   H43   S    
C36   H5    S    
C3    O8    A    
C39   C57   A    
C25   H82   S    
C18   H64   S    
C93   C115  A    
Cr8   O22   S    
C36   H3    S    
C8    C9    S    
C12   C78   A    
C41   C46   A    
C129  O4    A    
C67   O21   A    
C107  H22   S    
Cr2   O10   S    
C62   C129  S    
C24   C111  A    
C37   H7    S    
C29   H93   S    
C132  O7    A    
C10   H32   S    
C12   C67   S    
C35   C55   A    
Cr1   O40   S    
C52   H50   S    
Cr2   O2    S    
C77   O49   S    
C13   C58   A    
C91   C113  A    
C32   H102  S    
Cr4   O13   S    
C117  O31   A    
Cr5   O37   S    
C29   H92   S    
C118  O32   A    
C88   C106  S    
C98   C116  A    
C60   C70   A    
C79   H87   S    
C62   C72   A    
C48   O61   S    
C52   H55   S    
C23   H80   S    
C39   H37   S    
Cr9   O46   S    
C108  H23   S    
Cr8   O9    S    
C26   O53   S    
C123  O46   A    
C38   H10   S    
C81   O52   S    
C130  O5    A    
C106  C110  S    
C110  H29   S    
C61   C69   A    
C35   H36   S    
C45   O19   A    
C88   C93   A    
C53   H56   S    
Cr4   O4    S    
C80   C81   S    
Cr8   O44   S    
C77   H76   S    
C49   H47   S    
C75   O29   A    
C47   C78   S    
C76   O26   A    
C13   C100  A    
Cr5   O41   S    
C49   C100  S    
Cr5   O15   S    
C95   C113  A    
C53   H51   S    
C74   O24   A    
C23   C25   S    
C78   C122  A    
Cr10  O20   S    
C55   C122  A    
C27   H89   S    
C28   H91   S    
Cr6   O11   S    
C64   C77   S    
C99   H14   S    
C121  O44   A    
C34   H108  S    
Cr9   O24   S    
C46   H44   S    
C92   C114  A    
