data_mof_unit_21328.cif
_audit_creation_date              2012-12-10T18:55:19-0500
_audit_creation_method            fapswitch 2.2
_symmetry_space_group_name_H-M    P1
_symmetry_Int_Tables_number       1
_space_group_crystal_system       triclinic
_cell_length_a                    10.703548
_cell_length_b                    9.817306
_cell_length_c                    27.650767
_cell_angle_alpha                 90.048669
_cell_angle_beta                  88.925771
_cell_angle_gamma                 90.022245
_cell_volume                      2905.03085144

loop_
_atom_site_label
_atom_site_type_symbol
_atom_type_description
_atom_site_fract_x
_atom_site_fract_y
_atom_site_fract_z
_atom_type_partial_charge
C1    C     C_R   0.259821 0.499984 0.500026 0.876965
C2    C     C_R   0.366116 0.478578 0.876450 -0.067698
C3    C     C_R   0.512345 0.498421 0.353073 -0.080429
C4    C     C_R   0.487864 0.499202 0.646948 -0.080607
C5    C     C_R   0.382117 0.448952 0.978208 0.049999
C6    C     C_R   0.616846 0.480681 0.021487 0.042812
C7    C     C_R   0.611097 0.459840 0.971012 -0.025282
C8    C     C_R   0.392112 0.429371 0.028880 -0.007635
C9    C     C_R   0.492244 0.458270 0.949316 -0.000418
C10   C     C_R   0.508619 0.458713 0.050475 0.003120
C11   C     C_R   0.266004 0.467286 0.955927 -0.271277
C12   C     C_R   0.740179 0.500015 0.499973 0.876625
C13   C     C_R   0.725176 0.531567 0.043305 -0.303403
C14   C     C_R   0.256452 0.480420 0.905616 0.474236
C15   C     C_R   0.731963 0.548402 0.093511 0.451221
C16   C     C_R   0.502307 0.499831 0.405879 0.902649
C17   C     C_R   0.497762 0.499978 0.594127 0.903467
C18   C     C_R   0.290617 0.383063 0.058615 0.459509
C19   C     C_R   0.719105 0.440093 0.941305 0.464026
C20   C     C_R   0.064408 0.378982 0.489865 -0.182180
C21   C     C_R   0.935592 0.621019 0.510130 -0.181642
C22   C     C_R   0.936499 0.378998 0.489859 -0.185161
C23   C     C_R   0.516754 0.467383 0.101238 -0.136177
C24   C     C_R   0.063501 0.621004 0.510135 -0.184089
C25   C     C_R   0.872569 0.500019 0.499985 -0.014334
C26   C     C_R   0.127431 0.499981 0.500011 -0.014679
C27   C     C_R   0.577285 0.072132 0.529659 -0.074207
C28   C     C_R   0.422715 0.927868 0.470341 -0.072466
C29   C     C_R   0.422710 0.071932 0.470342 -0.074079
C30   C     C_R   0.577287 0.928067 0.529659 -0.072782
C31   C     C_R   0.420705 0.441032 0.180467 0.561777
C32   C     C_R   0.585565 0.479958 0.819767 0.579555
C33   C     C_R   0.631228 0.520088 0.173874 0.606413
C34   C     C_R   0.483895 0.467791 0.898518 -0.136893
C35   C     C_R   0.362854 0.489334 0.825629 0.592619
C36   C     C_R   0.515512 0.617980 0.276004 0.522408
C37   C     C_R   0.477119 0.620777 0.723649 0.526389
C38   C     C_R   0.506140 0.620289 0.326686 -0.331145
C39   C     C_R   0.487079 0.622102 0.672994 -0.330058
C40   C     C_R   0.531064 0.374428 0.328753 -0.203096
C41   C     C_R   0.475980 0.374937 0.671627 -0.198797
C42   C     C_R   0.541136 0.371791 0.278736 -0.195931
C43   C     C_R   0.465658 0.373261 0.721663 -0.201440
C44   C     C_R   0.532184 0.492577 0.252400 0.270782
C45   C     C_R   0.412942 0.431342 0.130280 -0.060775
C46   C     C_R   0.467188 0.495307 0.747579 0.274563
C47   C     C_3   0.073539 0.344873 0.060990 0.031346
C48   C     C_3   0.024883 0.216130 0.086433 -0.337269
C49   C     C_3   0.909488 0.245657 0.117930 -0.870544
C50   C     C_3   0.862939 0.267526 0.949566 0.058417
C51   C     C_3   0.784067 0.166981 0.979800 -0.378290
C52   C     C_3   0.828875 0.020752 0.972477 -0.895738
C53   C     C_R   0.594054 0.468322 0.869807 -0.075405
C54   C     C_R   0.304325 0.383070 0.109067 -0.247248
C55   C     C_R   0.710169 0.452381 0.891270 -0.229854
C56   C     C_R   0.628293 0.512029 0.123001 -0.071091
H1    H     H_    0.537295 0.279176 0.348296 0.173058
H2    H     H_    0.794932 0.446110 0.869328 0.212676
H3    H     H_    0.495421 0.718454 0.654137 0.158555
H4    H     H_    0.492360 0.716416 0.345300 0.158401
H5    H     H_    0.181672 0.479673 0.977425 0.174438
H6    H     H_    0.803456 0.566317 0.021421 0.191509
H7    H     H_    0.113562 0.285041 0.481646 0.155180
H8    H     H_    0.886438 0.714960 0.518350 0.155174
H9    H     H_    0.888081 0.285054 0.481646 0.158952
H10   H     H_    0.111917 0.714949 0.518347 0.159455
H11   H     H_    0.487261 0.817966 0.728331 0.330370
H12   H     H_    0.475511 0.278833 0.652364 0.173034
H13   H     H_    0.493727 0.813908 0.270802 0.330776
H14   H     H_    0.074361 0.493506 0.910143 0.337129
H15   H     H_    0.902334 0.619195 0.088302 0.316525
H16   H     H_    0.005831 0.373796 0.032934 0.187255
H17   H     H_    0.075538 0.433611 0.086163 0.149363
H18   H     H_    0.001233 0.138516 0.058817 0.229070
H19   H     H_    0.098407 0.172137 0.109496 0.235900
H20   H     H_    0.931863 0.321246 0.146407 0.299751
H21   H     H_    0.877078 0.150239 0.135668 0.268541
H22   H     H_    0.832835 0.285598 0.095602 0.255170
H23   H     H_    0.638992 0.126972 0.553342 0.132589
H24   H     H_    0.962966 0.252063 0.958032 0.188556
H25   H     H_    0.854581 0.244683 0.910311 0.155751
H26   H     H_    0.789812 0.193858 0.018644 0.237022
H27   H     H_    0.684607 0.173353 0.969222 0.223824
H28   H     H_    0.820971 0.990827 0.933903 0.275586
H29   H     H_    0.770336 0.950847 0.994882 0.269425
H30   H     H_    0.927635 0.010318 0.983526 0.262085
H31   H     H_    0.361009 0.873027 0.446656 0.131118
H32   H     H_    0.360991 0.126613 0.446664 0.129125
H33   H     H_    0.639002 0.873386 0.553340 0.128166
H34   H     H_    0.552989 0.275343 0.260164 0.161383
H35   H     H_    0.459457 0.276840 0.740564 0.160242
H36   H     H_    0.230215 0.343900 0.132169 0.197754
N1    N     N_R   0.528201 0.485276 0.200964 -0.350928
N2    N     N_R   0.471535 0.489941 0.798983 -0.351217
N3    N     N_R   0.500000 0.857200 0.500000 -0.081324
N4    N     N_R   0.500000 0.142800 0.500000 -0.081842
O1    O     O_R   0.316770 0.614620 0.500000 -0.628122
O2    O     O_2   0.690391 0.480482 0.791795 -0.534967
O3    O     O_2   0.252972 0.498546 0.802752 -0.460157
O4    O     O_2   0.735553 0.560955 0.196363 -0.466306
O5    O     O_3   0.479386 0.739155 0.750594 -0.748050
O6    O     O_3   0.505634 0.735085 0.248742 -0.746581
O7    O     O_3   0.140980 0.496937 0.884755 -0.693808
O8    O     O_3   0.838996 0.599890 0.114018 -0.704696
O9    O     O_3   0.189842 0.316865 0.037515 -0.651768
O10   O     O_3   0.832694 0.404607 0.961054 -0.688531
O11   O     O_R   0.683230 0.385380 0.500000 -0.628209
O12   O     O_R   0.683230 0.614620 0.500000 -0.626555
O13   O     O_R   0.316770 0.385380 0.500000 -0.626405
O14   O     O_R   0.500030 0.614650 0.428760 -0.618630
O15   O     O_R   0.499970 0.385350 0.571240 -0.623668
O16   O     O_R   0.499970 0.614650 0.571240 -0.621187
O17   O     O_R   0.500030 0.385350 0.428760 -0.626309
O18   O     O_2   0.321190 0.407692 0.208815 -0.548137
Zn1   Zn    Zn3+2 0.500000 0.653120 0.500000 0.955078
Zn2   Zn    Zn3+2 0.500000 0.346880 0.500000 0.952629

loop_
_geom_bond_atom_site_label_1
_geom_bond_atom_site_label_2
_ccdc_geom_bond_type
C2    C35   A    
C32   N2    A    
H15   O8    S    
C23   C45   A    
C16   O17   A    
C16   O14   A    
C23   C56   A    
H13   O6    S    
C5    C9    A    
C28   N3    A    
O12   Zn1   S    
C52   H29   S    
C24   C26   A    
C5    C11   A    
C27   H23   S    
C49   H21   S    
C11   C14   A    
C4    C41   A    
C49   H22   S    
C36   O6    S    
C52   H28   S    
C29   H32   S    
C44   N1    S    
O13   Zn2   S    
C1    O13   A    
C13   H6    S    
C3    C38   A    
N3    Zn1   S    
C47   O9    S    
C22   C25   A    
O15   Zn2   S    
C15   O8    S    
O1    Zn1   S    
C31   O18   S    
C24   H10   S    
O17   Zn2   S    
C2    C34   A    
C33   C56   A    
C40   C42   A    
C27   C30   A    
C41   C43   A    
C48   H19   S    
C27   N4    A    
C42   C44   A    
C30   H33   S    
C35   O3    S    
C17   O15   A    
C41   H12   S    
C53   C55   A    
O11   Zn2   S    
C51   C52   S    
C48   H18   S    
C47   H17   S    
C1    O1    A    
C12   O12   A    
H14   O7    S    
C31   N1    A    
C8    C18   A    
C50   H24   S    
C42   H34   S    
C21   H8    S    
C22   H9    S    
C54   H36   S    
C30   N3    A    
C12   O11   A    
C47   C48   S    
C46   N2    S    
C4    C39   A    
C39   H3    S    
C28   H31   S    
C50   C51   S    
C49   H20   S    
C51   H26   S    
C38   H4    S    
C4    C17   S    
C48   C49   S    
C20   C22   A    
C45   C54   A    
C7    C19   A    
C13   C15   A    
C9    C34   A    
C36   C44   A    
C5    C8    A    
C21   C24   A    
C17   O16   A    
C51   H27   S    
C32   C53   A    
H11   O5    S    
C35   N2    A    
C19   C55   A    
C7    C9    A    
C21   C25   A    
C28   C29   A    
C40   H1    S    
C11   H5    S    
C33   N1    A    
C3    C40   A    
C29   N4    A    
C6    C7    A    
C10   C23   A    
C12   C25   S    
C33   O4    S    
C15   C56   A    
C20   H7    S    
C52   H30   S    
C18   O9    S    
C37   C39   A    
C6    C13   A    
C37   O5    S    
C14   O7    S    
C1    C26   S    
C20   C26   A    
C36   C38   A    
C32   O2    S    
C2    C14   A    
C43   C46   A    
C43   H35   S    
C47   H16   S    
C6    C10   A    
C18   C54   A    
C19   O10   S    
C34   C53   A    
C8    C10   A    
C31   C45   A    
C55   H2    S    
C50   O10   S    
N4    Zn2   S    
C37   C46   A    
O14   Zn1   S    
O16   Zn1   S    
C3    C16   S    
C50   H25   S    
