data_mof_unit_46677.cif
_audit_creation_date              2013-03-05T15:40:09-0500
_audit_creation_method            fapswitch 2.2
_symmetry_space_group_name_H-M    P1
_symmetry_Int_Tables_number       1
_space_group_crystal_system       triclinic
_cell_length_a                    27.984953
_cell_length_b                    18.708139
_cell_length_c                    16.815087
_cell_angle_alpha                 89.866089
_cell_angle_beta                  62.745861
_cell_angle_gamma                 89.761512
_cell_volume                      7826.08301744

loop_
_atom_site_label
_atom_site_type_symbol
_atom_site_description
_atom_site_fract_x
_atom_site_fract_y
_atom_site_fract_z
_atom_type_partial_charge
O1    O     O_R   0.255040 0.869590 0.478480 -0.579119
O2    O     O_R   0.744960 0.130410 0.521520 -0.577258
O3    O     O_R   0.744960 0.869590 0.521520 -0.577484
O4    O     O_R   0.255040 0.130410 0.478480 -0.576042
O5    O     O_R   0.755040 0.369590 0.478480 -0.587471
O6    O     O_R   0.244960 0.630410 0.521520 -0.575542
O7    O     O_R   0.244960 0.369590 0.521520 -0.578586
O8    O     O_R   0.755040 0.630410 0.478480 -0.585739
O9    O     O_R   0.182050 0.796550 0.624440 -0.594449
O10   O     O_R   0.817950 0.203450 0.375560 -0.580856
O11   O     O_R   0.817950 0.796550 0.375560 -0.590352
O12   O     O_R   0.182050 0.203450 0.624440 -0.581029
O13   O     O_R   0.682050 0.296550 0.624440 -0.603775
O14   O     O_R   0.317950 0.703450 0.375560 -0.579620
O15   O     O_R   0.317950 0.296550 0.375560 -0.596556
O16   O     O_R   0.682050 0.703450 0.624440 -0.580997
Cu1   Cu    Cu3+1 0.209920 0.785290 0.495070 1.018947
Cu2   Cu    Cu3+1 0.790080 0.214710 0.504930 1.068547
Cu3   Cu    Cu3+1 0.790080 0.785290 0.504930 1.055108
Cu4   Cu    Cu3+1 0.209920 0.214710 0.495070 1.068630
Cu5   Cu    Cu3+1 0.709920 0.285290 0.495070 1.032410
Cu6   Cu    Cu3+1 0.290080 0.714710 0.504930 1.027759
Cu7   Cu    Cu3+1 0.290080 0.285290 0.504930 1.045885
Cu8   Cu    Cu3+1 0.709920 0.714710 0.495070 1.049076
C1    C     C_R   0.295979 0.730124 0.328904 0.807863
C2    C     C_R   0.703697 0.269135 0.670983 0.794512
C3    C     C_R   0.706536 0.725222 0.669383 0.780575
C4    C     C_R   0.296220 0.269299 0.329061 0.797680
C5    C     C_R   0.796237 0.230683 0.328784 0.790800
C6    C     C_R   0.203954 0.769723 0.670898 0.789331
C7    C     C_R   0.203843 0.230521 0.671119 0.785274
C8    C     C_R   0.795367 0.770747 0.329296 0.796115
O17   O     O_R   0.250530 0.763330 0.367210 -0.556035
O18   O     O_R   0.749470 0.236670 0.632790 -0.559806
O19   O     O_R   0.749470 0.763330 0.632790 -0.559890
O20   O     O_R   0.250530 0.236670 0.367210 -0.561227
O21   O     O_R   0.750530 0.263330 0.367210 -0.560930
O22   O     O_R   0.249470 0.736670 0.632790 -0.573936
O23   O     O_R   0.249470 0.263330 0.632790 -0.564223
O24   O     O_R   0.750530 0.736670 0.367210 -0.575361
O25   O     O_R   0.177260 0.690030 0.513710 -0.584408
O26   O     O_R   0.822740 0.309970 0.486290 -0.563251
O27   O     O_R   0.822740 0.690030 0.486290 -0.564314
O28   O     O_R   0.177260 0.309970 0.513710 -0.565547
O29   O     O_R   0.677260 0.190030 0.513710 -0.566826
O30   O     O_R   0.322740 0.809970 0.486290 -0.597798
O31   O     O_R   0.322740 0.190030 0.486290 -0.567577
O32   O     O_R   0.677260 0.809970 0.513710 -0.562691
C9    C     C_R   0.196910 0.631541 0.525747 0.799629
C10   C     C_R   0.803515 0.368150 0.471683 0.770776
C11   C     C_R   0.803691 0.631764 0.471093 0.756769
C12   C     C_R   0.196682 0.368413 0.526653 0.780897
C13   C     C_R   0.696718 0.131666 0.527322 0.792768
C14   C     C_R   0.299464 0.868967 0.486124 0.787931
C15   C     C_R   0.302987 0.131431 0.474634 0.783798
C16   C     C_R   0.696265 0.868147 0.528872 0.796238
C17   C     C_R   0.046754 0.629935 0.504506 -0.066647
C18   C     C_R   0.959194 0.369173 0.470294 -0.069116
C19   C     C_R   0.961600 0.628935 0.459187 -0.070797
C20   C     C_R   0.043385 0.369989 0.518058 -0.064900
C21   C     C_R   0.540042 0.130267 0.533748 -0.068474
C22   C     C_R   0.429722 0.874874 0.563583 -0.066786
C23   C     C_R   0.454960 0.128210 0.488398 -0.064015
C24   C     C_R   0.527445 0.872653 0.575749 -0.067773
C25   C     C_R   0.027193 0.695140 0.487378 0.272908
C26   C     C_R   0.980264 0.303792 0.483173 0.270361
C27   C     C_R   0.984389 0.694493 0.465102 0.277104
C28   C     C_R   0.021599 0.304222 0.508920 0.271798
C29   C     C_R   0.520857 0.195138 0.515546 0.275967
C30   C     C_R   0.447043 0.811224 0.588559 0.287120
C31   C     C_R   0.479220 0.193949 0.490390 0.277678
C32   C     C_R   0.496270 0.809778 0.592913 0.262733
C33   C     C_R   0.981701 0.564326 0.475012 -0.004033
C34   C     C_R   0.023803 0.434674 0.501587 0.003504
C35   C     C_R   0.025402 0.564706 0.495031 -0.000174
C36   C     C_R   0.980290 0.434322 0.481069 0.001639
C37   C     C_R   0.471609 0.064645 0.513301 0.000722
C38   C     C_R   0.508741 0.936491 0.554806 -0.001275
C39   C     C_R   0.516358 0.065142 0.530379 -0.001211
C40   C     C_R   0.460943 0.937062 0.545735 -0.001193
C41   C     C_R   0.443883 0.000440 0.520272 0.051997
C42   C     C_R   0.536816 0.000598 0.546188 0.049453
C43   C     C_R   0.958453 0.499202 0.469492 0.045554
C44   C     C_R   0.046615 0.499906 0.508555 0.047820
C45   C     C_R   0.368700 0.936674 0.516325 0.028016
C46   C     C_R   0.611045 0.065869 0.551147 0.036458
C47   C     C_R   0.609121 0.935128 0.558929 0.033560
C48   C     C_R   0.382175 0.063631 0.477015 0.040805
C49   C     C_R   0.888194 0.433822 0.452178 0.036422
C50   C     C_R   0.114657 0.565746 0.532478 0.041116
C51   C     C_R   0.113722 0.435028 0.536846 0.040710
C52   C     C_R   0.888753 0.564381 0.448948 0.033143
C53   C     C_R   0.326068 0.935645 0.491476 -0.104805
C54   C     C_R   0.663990 0.065536 0.543951 -0.110724
C55   C     C_R   0.663267 0.934667 0.546707 -0.111265
C56   C     C_R   0.333134 0.064425 0.469829 -0.112764
C57   C     C_R   0.836361 0.434144 0.454760 -0.121997
C58   C     C_R   0.164689 0.565521 0.537173 -0.110471
C59   C     C_R   0.164314 0.434866 0.539114 -0.110650
C60   C     C_R   0.836508 0.565012 0.453720 -0.109166
C61   C     C_R   0.308151 0.999758 0.471641 -0.257325
C62   C     C_R   0.688952 0.999952 0.541239 -0.244968
C63   C     C_R   0.812095 0.499730 0.454102 -0.267650
C64   C     C_R   0.188118 0.500116 0.540562 -0.256205
H1    H     H_    0.273071 0.999646 0.460183 0.191605
H2    H     H_    0.730063 0.999711 0.531130 0.193638
H3    H     H_    0.772164 0.499985 0.458895 0.193308
H4    H     H_    0.226848 0.499967 0.540495 0.192881
C65   C     C_R   0.398340 0.000124 0.504090 0.082906
C66   C     C_R   0.585903 0.000430 0.551720 0.084536
C67   C     C_R   0.911659 0.499111 0.456907 0.076217
C68   C     C_R   0.091988 0.500230 0.525451 0.078989
C69   C     C_R   0.576686 0.873247 0.579893 -0.140518
C70   C     C_R   0.414785 0.124681 0.460875 -0.136338
C71   C     C_R   0.382275 0.877145 0.554440 -0.120829
C72   C     C_R   0.581979 0.129270 0.556979 -0.143598
C73   C     C_R   0.084015 0.372239 0.544527 -0.153495
C74   C     C_R   0.919072 0.626881 0.437219 -0.144161
C75   C     C_R   0.917525 0.370633 0.446237 -0.156229
C76   C     C_R   0.086285 0.628921 0.533503 -0.136134
H5    H     H_    0.588160 0.826100 0.603850 0.200704
H6    H     H_    0.410792 0.169400 0.423907 0.185647
H7    H     H_    0.355359 0.832804 0.580709 0.216961
H8    H     H_    0.590036 0.178284 0.581686 0.188832
H9    H     H_    0.090132 0.324843 0.574762 0.199228
H10   H     H_    0.911006 0.674085 0.408591 0.185472
H11   H     H_    0.909958 0.322120 0.420150 0.202443
H12   H     H_    0.091377 0.677661 0.561994 0.179383
H13   H     H_    0.155435 0.716248 0.050515 0.190290
H14   H     H_    0.847527 0.275276 0.941314 0.189007
H15   H     H_    0.837394 0.753037 0.945415 0.189803
H16   H     H_    0.152035 0.273161 0.059694 0.188710
H17   H     H_    0.653167 0.226705 0.057000 0.190485
H18   H     H_    0.344921 0.786712 0.949273 0.200143
H19   H     H_    0.347291 0.228340 0.941750 0.189715
H20   H     H_    0.640860 0.791634 0.071489 0.186712
C77   C     C_R   0.222740 0.774197 0.951441 -0.078453
C78   C     C_R   0.777426 0.227568 0.047685 -0.073746
C79   C     C_R   0.766913 0.794833 0.057213 -0.070427
C80   C     C_R   0.222600 0.226747 0.952421 -0.072439
C81   C     C_R   0.723269 0.274364 0.950621 -0.073535
C82   C     C_R   0.277766 0.728331 0.047473 -0.082581
C83   C     C_R   0.276728 0.274769 0.048932 -0.072657
C84   C     C_R   0.711753 0.750592 0.959916 -0.066045
C85   C     C_R   0.276816 0.794913 0.922383 0.374189
C86   C     C_R   0.721871 0.213983 0.081087 0.357405
C87   C     C_R   0.710615 0.805741 0.093363 0.358689
C88   C     C_R   0.278438 0.214243 0.918459 0.360225
C89   C     C_R   0.778830 0.287947 0.917153 0.362186
C90   C     C_R   0.223475 0.708817 0.077320 0.362915
C91   C     C_R   0.220875 0.287102 0.082994 0.360046
C92   C     C_R   0.767984 0.740134 0.924216 0.367648
C93   C     C_R   0.303746 0.770494 0.970249 -0.265051
C94   C     C_R   0.695496 0.238326 0.032482 -0.283310
C95   C     C_R   0.683756 0.782821 0.044446 -0.286560
C96   C     C_R   0.304761 0.239211 0.966745 -0.282342
C97   C     C_R   0.805199 0.263646 0.965819 -0.282601
C98   C     C_R   0.196678 0.732440 0.029041 -0.283293
C99   C     C_R   0.194568 0.262266 0.034645 -0.280200
C100  C     C_R   0.794640 0.763283 0.972470 -0.285308
C101  C     C_R   0.145526 0.832812 0.941876 -0.200877
C102  C     C_R   0.854080 0.167448 0.057785 -0.196139
C103  C     C_R   0.846215 0.848409 0.066076 -0.205690
C104  C     C_R   0.146040 0.166720 0.942097 -0.192941
C105  C     C_R   0.646939 0.334880 0.940167 -0.208150
C106  C     C_R   0.355087 0.669228 0.056654 -0.175923
C107  C     C_R   0.352902 0.335484 0.059660 -0.202543
C108  C     C_R   0.638740 0.680122 0.947736 -0.211118
H21   H     H_    0.133794 0.854194 0.008131 0.172218
H22   H     H_    0.865040 0.144435 0.992583 0.174944
H23   H     H_    0.856459 0.874245 0.002572 0.175265
H24   H     H_    0.135090 0.143588 0.007299 0.175565
H25   H     H_    0.635906 0.357605 0.005545 0.173097
H26   H     H_    0.366458 0.647084 0.990888 0.182756
H27   H     H_    0.363971 0.358271 0.994240 0.172719
H28   H     H_    0.620173 0.670180 0.019109 0.164779
C109  C     C_R   0.114647 0.847186 0.897117 -0.102610
C110  C     C_R   0.885780 0.154731 0.101429 -0.102271
C111  C     C_R   0.880954 0.853267 0.105580 -0.097846
C112  C     C_R   0.114361 0.154304 0.898336 -0.104205
C113  C     C_R   0.615338 0.347884 0.896423 -0.106817
C114  C     C_R   0.386420 0.655747 0.100874 -0.107102
C115  C     C_R   0.384433 0.348286 0.103611 -0.101519
C116  C     C_R   0.621835 0.642034 0.892667 -0.087673
C117  C     C_R   0.128388 0.815347 0.813288 0.056918
C118  C     C_R   0.873232 0.190357 0.182735 0.048107
C119  C     C_R   0.869069 0.815287 0.184971 0.064768
C120  C     C_R   0.126887 0.190136 0.817040 0.047054
C121  C     C_R   0.628161 0.314166 0.813851 0.044459
C122  C     C_R   0.373406 0.690693 0.182843 0.050448
C123  C     C_R   0.371647 0.314199 0.186020 0.063946
C124  C     C_R   0.652761 0.645968 0.799337 0.080708
C125  C     C_R   0.179923 0.783771 0.767398 -0.109196
C126  C     C_R   0.820631 0.218366 0.231361 -0.092891
C127  C     C_R   0.816680 0.788150 0.233863 -0.108749
C128  C     C_R   0.179414 0.218047 0.768574 -0.091014
C129  C     C_R   0.679672 0.282793 0.767527 -0.125256
C130  C     C_R   0.320543 0.718034 0.231425 -0.098692
C131  C     C_R   0.320158 0.283206 0.232421 -0.111310
C132  C     C_R   0.685404 0.706563 0.764156 -0.076189
C133  C     C_R   0.210762 0.770543 0.812726 -0.147064
C134  C     C_R   0.789411 0.230949 0.186633 -0.144388
C135  C     C_R   0.782520 0.782787 0.193049 -0.143915
C136  C     C_R   0.210537 0.230329 0.813421 -0.145229
C137  C     C_R   0.710756 0.269867 0.812412 -0.142153
C138  C     C_R   0.289349 0.730466 0.186608 -0.144657
C139  C     C_R   0.289177 0.270508 0.187407 -0.142023
C140  C     C_R   0.701513 0.745614 0.819240 -0.157046
H29   H     H_    0.249162 0.743277 0.779436 0.193297
H30   H     H_    0.750981 0.258056 0.220376 0.181496
H31   H     H_    0.743842 0.756767 0.227608 0.178628
H32   H     H_    0.248830 0.257433 0.779755 0.180594
H33   H     H_    0.748725 0.241581 0.779307 0.181688
H34   H     H_    0.250468 0.756439 0.220641 0.183222
H35   H     H_    0.251350 0.242235 0.220489 0.180938
H36   H     H_    0.731569 0.787134 0.790957 0.169263
C141  C     C_R   0.192551 0.792471 0.901192 0.140598
C142  C     C_R   0.807368 0.208659 0.098205 0.132357
C143  C     C_R   0.798221 0.809998 0.107136 0.140952
C144  C     C_R   0.192683 0.207829 0.901825 0.132820
C145  C     C_R   0.693325 0.293230 0.900137 0.138898
C146  C     C_R   0.307912 0.709496 0.097630 0.129159
C147  C     C_R   0.306595 0.293853 0.099546 0.136929
C148  C     C_R   0.682486 0.727001 0.909442 0.127626
O33   O     O_R   0.051640 0.926880 0.885090 -0.594521
O34   O     O_R   0.948360 0.073120 0.114910 -0.584711
O35   O     O_R   0.948360 0.926880 0.114910 -0.578392
O36   O     O_R   0.051640 0.073120 0.885090 -0.587962
O37   O     O_R   0.551640 0.426880 0.885090 -0.592609
O38   O     O_R   0.448360 0.573120 0.114910 -0.590203
O39   O     O_R   0.448360 0.426880 0.114910 -0.580198
O40   O     O_R   0.551640 0.573120 0.885090 -0.577726
Cu9   Cu    Cu3+1 0.495240 0.500000 0.924150 0.975468
Cu10  Cu    Cu3+1 0.504760 0.500000 0.075850 0.944836
Cu11  Cu    Cu3+1 0.995240 0.000000 0.924150 0.959567
Cu12  Cu    Cu3+1 0.004760 0.000000 0.075850 0.966303
C149  C     C_R   0.926880 0.902403 0.066318 0.809519
C150  C     C_R   0.071869 0.099385 0.934750 0.795042
C151  C     C_R   0.071800 0.900856 0.934735 0.813136
C152  C     C_R   0.928214 0.099546 0.065089 0.791225
C153  C     C_R   0.427818 0.401261 0.065671 0.813003
C154  C     C_R   0.575233 0.594269 0.932148 0.793284
C155  C     C_R   0.572080 0.401115 0.934451 0.791997
C156  C     C_R   0.428491 0.599930 0.064859 0.811241
O41   O     O_R   0.940620 0.926560 0.986760 -0.592124
O42   O     O_R   0.059380 0.073440 0.013240 -0.579904
O43   O     O_R   0.059380 0.926560 0.013240 -0.599670
O44   O     O_R   0.940620 0.073440 0.986760 -0.583503
O45   O     O_R   0.440620 0.426560 0.986760 -0.600694
O46   O     O_R   0.559380 0.573440 0.013240 -0.586576
O47   O     O_R   0.559380 0.426560 0.013240 -0.602759
O48   O     O_R   0.440620 0.573440 0.986760 -0.564473
N1    N     N_R   0.514222 0.743980 0.614671 0.136526
O49   O     O_R   0.483359 0.709887 0.687792 -0.293903
O50   O     O_R   0.558862 0.714373 0.557135 -0.336727
N2    N     N_R   0.460670 0.259893 0.469919 0.127113
O51   O     O_R   0.494964 0.305518 0.415173 -0.320427
O52   O     O_R   0.410229 0.277957 0.513442 -0.342428
N3    N     N_R   0.417293 0.746113 0.602151 0.139303
O53   O     O_R   0.439257 0.691451 0.550272 -0.307602
O54   O     O_R   0.370457 0.739026 0.671282 -0.325685
N4    N     N_R   0.544661 0.262118 0.519421 0.129311
O55   O     O_R   0.514525 0.314574 0.566897 -0.321279
O56   O     O_R   0.595699 0.272992 0.468923 -0.328853
N5    N     N_R   0.041966 0.237571 0.523763 0.126984
O57   O     O_R   0.009389 0.191157 0.580021 -0.304018
O58   O     O_R   0.092427 0.220960 0.476255 -0.323881
N6    N     N_R   0.963113 0.760726 0.451311 0.126529
O59   O     O_R   0.994988 0.807467 0.394867 -0.324166
O60   O     O_R   0.913257 0.778036 0.502947 -0.333582
N7    N     N_R   0.959040 0.236736 0.472484 0.128032
O61   O     O_R   0.908652 0.221414 0.522419 -0.323338
O62   O     O_R   0.990901 0.188693 0.417907 -0.301445
N8    N     N_R   0.051950 0.761910 0.488843 0.117223
O63   O     O_R   0.022363 0.817600 0.527065 -0.309654
O64   O     O_R   0.103601 0.769789 0.441114 -0.338066
N9    N     N_R   0.304153 0.842788 0.847776 0.139185
O65   O     O_R   0.356413 0.845890 0.807761 -0.328902
O66   O     O_R   0.277464 0.890402 0.827525 -0.332088
N10   N     N_R   0.692187 0.173394 0.161679 0.124903
O67   O     O_R   0.714320 0.119053 0.180679 -0.317585
O68   O     O_R   0.641043 0.185117 0.210740 -0.336432
N11   N     N_R   0.680503 0.841731 0.177466 0.122358
O69   O     O_R   0.629606 0.828255 0.225879 -0.351638
O70   O     O_R   0.701968 0.893728 0.201257 -0.317832
N12   N     N_R   0.308511 0.174055 0.837622 0.123240
O71   O     O_R   0.286999 0.119404 0.818566 -0.318260
O72   O     O_R   0.359472 0.186475 0.788339 -0.346424
N13   N     N_R   0.808535 0.328364 0.836373 0.123714
O73   O     O_R   0.859795 0.317117 0.787858 -0.341150
O74   O     O_R   0.786231 0.382052 0.816519 -0.345498
N14   N     N_R   0.195541 0.663527 0.154164 0.129111
O75   O     O_R   0.220603 0.611645 0.171224 -0.319486
O76   O     O_R   0.143641 0.668843 0.201681 -0.338581
N15   N     N_R   0.190733 0.326867 0.164147 0.123492
O77   O     O_R   0.139920 0.313631 0.213883 -0.339511
O78   O     O_R   0.212020 0.381708 0.183342 -0.316744
N16   N     N_R   0.798307 0.702311 0.841684 0.124004
O79   O     O_R   0.780470 0.642330 0.826710 -0.356507
O80   O     O_R   0.847310 0.721556 0.788021 -0.337297
C157  C     C_3   0.085504 0.802816 0.781742 -0.360111
C158  C     C_3   0.081395 0.862449 0.720879 -0.305981
C159  C     C_3   0.070209 0.832731 0.647197 -0.693828
H37   H     H_    0.031333 0.803657 0.676948 0.252398
H38   H     H_    0.068008 0.878036 0.606240 0.274269
H39   H     H_    0.102360 0.795981 0.602957 0.279500
H40   H     H_    0.046791 0.898232 0.758827 0.238469
H41   H     H_    0.118159 0.895990 0.691417 0.239888
H42   H     H_    0.093330 0.750085 0.747498 0.182615
H43   H     H_    0.045508 0.795977 0.840711 0.169924
C160  C     C_3   0.917224 0.206058 0.210210 -0.351625
C161  C     C_3   0.922633 0.286634 0.222472 -0.410829
C162  C     C_3   0.974778 0.303216 0.226937 -0.771641
H44   H     H_    0.977543 0.271147 0.280323 0.280810
H45   H     H_    0.010054 0.290841 0.161917 0.253740
H46   H     H_    0.975869 0.360855 0.241642 0.246029
H47   H     H_    0.922642 0.316661 0.165305 0.227213
H48   H     H_    0.888313 0.305959 0.284897 0.212884
H49   H     H_    0.910302 0.176047 0.271501 0.239443
H50   H     H_    0.956988 0.188963 0.157035 0.211006
C163  C     C_3   0.914705 0.786294 0.202011 -0.414819
C164  C     C_3   0.930139 0.833751 0.261581 -0.255216
C165  C     C_3   0.991170 0.838482 0.224720 -0.698108
H51   H     H_    0.001221 0.879640 0.262012 0.272569
H52   H     H_    0.007641 0.785878 0.231129 0.256663
H53   H     H_    0.010884 0.853634 0.153256 0.251400
H54   H     H_    0.912713 0.888246 0.269336 0.240962
H55   H     H_    0.913876 0.810420 0.329715 0.249777
H56   H     H_    0.904030 0.732271 0.232850 0.165313
H57   H     H_    0.950099 0.776500 0.136030 0.184105
C166  C     C_3   0.082972 0.205823 0.789136 -0.351057
C167  C     C_3   0.077421 0.286324 0.775860 -0.409353
C168  C     C_3   0.026033 0.302610 0.768526 -0.771918
H58   H     H_    0.990123 0.290174 0.832613 0.255041
H59   H     H_    0.024837 0.360204 0.753362 0.243247
H60   H     H_    0.024612 0.270431 0.714272 0.282032
H61   H     H_    0.076219 0.316584 0.833601 0.226381
H62   H     H_    0.112206 0.305617 0.714179 0.213143
H63   H     H_    0.090030 0.175366 0.728189 0.238836
H64   H     H_    0.043180 0.189196 0.842410 0.209879
C169  C     C_3   0.583376 0.295237 0.788948 -0.370801
C170  C     C_3   0.574930 0.348647 0.725942 -0.275813
C171  C     C_3   0.515410 0.358281 0.751089 -0.719675
H65   H     H_    0.497924 0.306444 0.745574 0.258794
H66   H     H_    0.492483 0.378458 0.820342 0.262577
H67   H     H_    0.511066 0.397410 0.705059 0.268850
H68   H     H_    0.593314 0.401360 0.724924 0.230419
H69   H     H_    0.594089 0.328036 0.656431 0.249569
H70   H     H_    0.591216 0.241325 0.757647 0.164538
H71   H     H_    0.545361 0.288569 0.851978 0.187658
C172  C     C_3   0.416498 0.704135 0.213177 -0.360880
C173  C     C_3   0.422043 0.784024 0.229292 -0.394836
C174  C     C_3   0.464075 0.795702 0.262078 -0.739645
H72   H     H_    0.504008 0.775817 0.211834 0.254381
H73   H     H_    0.467301 0.853681 0.272756 0.245729
H74   H     H_    0.452175 0.767404 0.326552 0.269662
H75   H     H_    0.434221 0.813960 0.165761 0.222684
H76   H     H_    0.383499 0.806956 0.279819 0.221530
H77   H     H_    0.408495 0.671786 0.273324 0.234865
H78   H     H_    0.456747 0.687960 0.160645 0.205255
C175  C     C_3   0.416679 0.293398 0.209681 -0.392455
C176  C     C_3   0.426033 0.345658 0.272350 -0.262583
C177  C     C_3   0.485836 0.354622 0.245087 -0.719186
H79   H     H_    0.503750 0.302336 0.248555 0.265056
H80   H     H_    0.507926 0.375571 0.176099 0.260916
H81   H     H_    0.490891 0.392897 0.291002 0.266768
H82   H     H_    0.407457 0.398691 0.274744 0.237068
H83   H     H_    0.407512 0.324298 0.341558 0.253120
H84   H     H_    0.408570 0.239355 0.240742 0.165793
H85   H     H_    0.454377 0.286274 0.146175 0.186899
C178  C     C_3   0.661160 0.579118 0.741747 -0.409551
C179  C     C_3   0.718890 0.550519 0.706309 -0.330486
C180  C     C_3   0.723743 0.473946 0.672277 -0.768552
H86   H     H_    0.698471 0.437718 0.727992 0.253645
H87   H     H_    0.710633 0.470827 0.619292 0.250216
H88   H     H_    0.766115 0.455743 0.644907 0.266077
H89   H     H_    0.747192 0.585116 0.651444 0.223317
H90   H     H_    0.730841 0.550744 0.760906 0.280692
H91   H     H_    0.634992 0.534697 0.780799 0.217312
H92   H     H_    0.651008 0.588906 0.686262 0.232486

loop_
_geom_bond_atom_site_label_1
_geom_bond_atom_site_label_2
_geom_bond_distance
_ccdc_geom_bond_type
C101  C141  1.392493 A    
C130  C138  1.408573 A    
Cu2   Cu5   2.668003 S    
C32   N1    1.436177 S    
Cu10  O46   1.967061 S    
C102  C142  1.394823 A    
C105  C145  1.392504 A    
C159  H38   1.110029 S    
C176  H83   1.108938 S    
C168  H58   1.110967 S    
C44   C68   1.422515 A    
C77   C98   1.404693 A    
C117  C157  1.537043 S    
O39   C153  1.298373 A    
C108  C148  1.402441 A    
C170  H68   1.110672 S    
C80   C99   1.405396 A    
C81   C94   1.404831 A    
C127  C135  1.413116 A    
N7    O61   1.301316 A    
Cu6   O22   1.960907 S    
C158  H41   1.111215 S    
C163  H56   1.112567 S    
C179  C180  1.526141 S    
C6    O22   1.289640 A    
N8    O63   1.301020 A    
C2    C129  1.467511 S    
C80   C144  1.485356 S    
C172  H77   1.109113 S    
O3    Cu3   1.955066 S    
C128  C136  1.408575 A    
C87   C95   1.412808 A    
C19   C33   1.406457 A    
C55   C62   1.401112 A    
C138  H34   1.083578 S    
C83   C91   1.414937 A    
C132  C140  1.408252 A    
C88   N12   1.439795 S    
C33   C35   1.409322 A    
C36   C43   1.409362 A    
O25   C9    1.279296 A    
C174  H73   1.110623 S    
C37   C39   1.407235 A    
C106  H26   1.083763 S    
C71   H7    1.072099 S    
C165  H51   1.109437 S    
C4    C131  1.469541 S    
Cu12  O42   1.967061 S    
C175  H85   1.112999 S    
Cu7   O31   1.958646 S    
C180  H88   1.109671 S    
C53   C61   1.395557 A    
C170  C171  1.529216 S    
C3    O19   1.287813 A    
C157  C158  1.551323 S    
O36   C150  1.302449 A    
C38   C42   1.406923 A    
C159  H37   1.111262 S    
C86   C94   1.402929 A    
C160  H50   1.107768 S    
C136  H32   1.083297 S    
O13   Cu5   1.957487 S    
C20   C73   1.398802 A    
C124  C178  1.533580 S    
C167  C168  1.527983 S    
C28   N5    1.436977 S    
C57   C63   1.402389 A    
C48   C65   1.416014 A    
C30   N3    1.435981 S    
C23   C31   1.415114 A    
O33   C151  1.295912 A    
C91   N15   1.439578 S    
N16   O79   1.301106 A    
C101  C109  1.406531 A    
C8    O24   1.288182 A    
C168  H60   1.110073 S    
C121  C129  1.412784 A    
C46   C66   1.412395 A    
C85   N9    1.443162 S    
N3    O54   1.300791 A    
O2    C13   1.308353 A    
C52   C67   1.411078 A    
N14   O76   1.301594 A    
Cu3   O19   1.960784 S    
N12   O72   1.301554 A    
C166  H63   1.109215 S    
O10   Cu2   1.957487 S    
C18   C75   1.398555 A    
O38   Cu10  1.957193 S    
O39   Cu10  1.964219 S    
C124  C132  1.407160 A    
C47   C69   1.414986 A    
O38   C156  1.301298 A    
C110  C118  1.413965 A    
O5    Cu5   1.962482 S    
C54   C62   1.399798 A    
C163  C164  1.543296 S    
C77   C141  1.481420 S    
C116  C154  1.467685 S    
C63   H3    1.082919 S    
C114  C122  1.415023 A    
C33   C43   1.406668 A    
Cu9   O48   1.961602 S    
C50   C76   1.416808 A    
C126  C134  1.408433 A    
C16   C55   1.493286 S    
C139  C147  1.396498 A    
C173  H76   1.108107 S    
C90   N14   1.440094 S    
C172  C173  1.540654 S    
C106  C114  1.407059 A    
C162  H44   1.110178 S    
C18   C36   1.404246 A    
N15   O78   1.301706 A    
C47   C66   1.412168 A    
C22   C30   1.417242 A    
C34   C36   1.409515 A    
H14   C97   1.083946 S    
C22   C40   1.404863 A    
O7    C12   1.314055 A    
Cu2   O26   1.964228 S    
N1    O49   1.301095 A    
C38   C40   1.413991 A    
C35   C44   1.410713 A    
C162  H45   1.110972 S    
C6    C125  1.468130 S    
C176  C177  1.529215 S    
O34   Cu12  1.957193 S    
C161  C162  1.528248 S    
C52   C74   1.407085 A    
C19   C27   1.409256 A    
C45   C53   1.433583 A    
C90   C98   1.403519 A    
C82   C93   1.404374 A    
C164  H54   1.110140 S    
O36   Cu11  1.964220 S    
N2    O52   1.301318 A    
C26   N7    1.436611 S    
Cu9   Cu10  2.683325 S    
C109  C151  1.464334 S    
C101  H21   1.083961 S    
O28   C12   1.285545 A    
O16   C3    1.297937 A    
O29   C13   1.284192 A    
N9    O65   1.301618 A    
C135  H31   1.083154 S    
C86   N10   1.439625 S    
C133  H29   1.083599 S    
H13   C98   1.083970 S    
Cu4   O28   1.958646 S    
Cu5   O29   1.964228 S    
H16   C99   1.083967 S    
C178  H91   1.104629 S    
C179  H89   1.108870 S    
H17   C94   1.083921 S    
Cu8   O32   1.958646 S    
N10   O67   1.301433 A    
H20   C95   1.083397 S    
C103  C143  1.397652 A    
H19   C96   1.083875 S    
C118  C160  1.529688 S    
C165  H52   1.110775 S    
C91   C99   1.404134 A    
C51   C68   1.412111 A    
C169  H71   1.112857 S    
Cu4   Cu7   2.677612 S    
C112  C150  1.478169 S    
C177  H79   1.110843 S    
C17   C25   1.416980 A    
C116  C124  1.404760 A    
N13   O73   1.301561 A    
N5    O58   1.301252 A    
C20   C28   1.414943 A    
O9    C6    1.293102 A    
O26   C10   1.284287 A    
C17   C76   1.398492 A    
O11   C8    1.300839 A    
C19   C74   1.399101 A    
C171  H66   1.107219 S    
O12   C7    1.299001 A    
C103  C111  1.409644 A    
O14   Cu6   1.957487 S    
C177  H81   1.110082 S    
C161  H48   1.109293 S    
O13   C2    1.293185 A    
C104  H24   1.083691 S    
N7    O62   1.301074 A    
Cu11  O44   1.961602 S    
C92   N16   1.437966 S    
C172  H78   1.108026 S    
C107  H27   1.083797 S    
C11   C60   1.494876 S    
C108  H28   1.083301 S    
C13   C54   1.490278 S    
C24   C38   1.409255 A    
C118  C126  1.415348 A    
C34   C44   1.409346 A    
C15   C56   1.489613 S    
Cu10  O47   1.961605 S    
C157  H43   1.111972 S    
C39   C42   1.410192 A    
N4    O55   1.300669 A    
C140  C148  1.401690 A    
O1    Cu1   1.962482 S    
C17   C35   1.402056 A    
C22   C71   1.405326 A    
C84   C92   1.416934 A    
C170  H69   1.108487 S    
C27   N6    1.436196 S    
C138  C146  1.396957 A    
O7    Cu7   1.955066 S    
O8    Cu8   1.955069 S    
C59   C64   1.398657 A    
N8    O64   1.301496 A    
O37   Cu9   1.957196 S    
C102  C110  1.405662 A    
C79   C143  1.493192 S    
C69   H5    1.076025 S    
C81   C145  1.481566 S    
N11   O69   1.301948 A    
C115  C153  1.470026 S    
C51   C59   1.433675 A    
C73   H9    1.072533 S    
C113  C155  1.466308 S    
C1    O17   1.289761 A    
C75   H11   1.072148 S    
C48   C56   1.431775 A    
C120  C166  1.530060 S    
C129  C137  1.408354 A    
C160  C161  1.539385 S    
C106  C146  1.395060 A    
C110  C152  1.475662 S    
C174  H72   1.111000 S    
Cu9   O45   1.967061 S    
C119  C163  1.528397 S    
O35   Cu12  1.964219 S    
O11   Cu3   1.957091 S    
Cu1   O17   1.960906 S    
C136  C144  1.398270 A    
O40   C154  1.304111 A    
C77   C85   1.416266 A    
C45   C65   1.410722 A    
C180  H87   1.109777 S    
C111  C119  1.410136 A    
C178  C179  1.537531 S    
O6    Cu6   1.962480 S    
C109  C117  1.412520 A    
C151  O43   1.294594 A    
C49   C57   1.431164 A    
C14   C53   1.479208 S    
C1    C130  1.476095 S    
C112  C120  1.414128 A    
C113  C121  1.414354 A    
C49   C75   1.413695 A    
H18   C93   1.083705 S    
C25   C27   1.409387 A    
C160  H49   1.109176 S    
Cu11  Cu12  2.683325 S    
C51   C73   1.413083 A    
C178  H92   1.107355 S    
C103  H23   1.083712 S    
C104  C112  1.407602 A    
C164  C165  1.529875 S    
C137  H33   1.083469 S    
C56   C61   1.393098 A    
N16   O80   1.301410 A    
C8    C127  1.469498 S    
Cu3   O27   1.958646 S    
C159  H39   1.104467 S    
C176  H82   1.110385 S    
C168  H59   1.110538 S    
O34   C152  1.300915 A    
C154  O46   1.285652 A    
C45   C71   1.418263 A    
C117  C125  1.414267 A    
N15   O77   1.302141 A    
C158  H40   1.106222 S    
C60   C63   1.400453 A    
C163  H57   1.112911 S    
C167  H61   1.112108 S    
C166  C167  1.539590 S    
Cu11  O41   1.967061 S    
C87   N11   1.439332 S    
C102  H22   1.083787 S    
C37   C41   1.407957 A    
C123  C131  1.412928 A    
O30   C14   1.279918 A    
C21   C72   1.396420 A    
C139  H35   1.083411 S    
C153  O45   1.294650 A    
C107  C147  1.394877 A    
Cu6   O30   1.964228 S    
C41   C65   1.419936 A    
C79   C100  1.403007 A    
O4    C15   1.313662 A    
C43   C67   1.418965 A    
O5    C10   1.308343 A    
C64   H4    1.083340 S    
C174  H74   1.111141 S    
C122  C130  1.416441 A    
C72   H8    1.074021 S    
N10   O68   1.301546 A    
C114  C156  1.477498 S    
C76   H12   1.070941 S    
C29   N4    1.437092 S    
Cu1   Cu6   2.668003 S    
C82   C90   1.413849 A    
C155  O47   1.295533 A    
Cu3   Cu8   2.677612 S    
C111  C149  1.470562 S    
O10   C5    1.296427 A    
O27   C11   1.291738 A    
O15   C4    1.296520 A    
N12   O71   1.301451 A    
C125  C133  1.409561 A    
O40   Cu9   1.964220 S    
O14   C1    1.296129 A    
C48   C70   1.411150 A    
Cu4   O20   1.960782 S    
Cu5   O21   1.960906 S    
N6    O59   1.299369 A    
C4    O20   1.293249 A    
C5    O21   1.290361 A    
C152  O44   1.294852 A    
C88   C96   1.404465 A    
C89   C97   1.403377 A    
C26   C28   1.408663 A    
C171  H65   1.111073 S    
C92   C100  1.400387 A    
O2    Cu2   1.962480 S    
C50   C68   1.412274 A    
C80   C88   1.415243 A    
C81   C89   1.414245 A    
C169  C170  1.548921 S    
C79   C87   1.419194 A    
C179  H90   1.111713 S    
C42   C66   1.418669 A    
N14   O75   1.301384 A    
C21   C39   1.402978 A    
C83   C147  1.485196 S    
C7    C128  1.476722 S    
O37   C155  1.295818 A    
C58   C64   1.399131 A    
C166  H64   1.107790 S    
C175  H84   1.112380 S    
C105  H25   1.083903 S    
C5    C126  1.476131 S    
O35   C149  1.300981 A    
C46   C72   1.413350 A    
C20   C34   1.404764 A    
C29   C31   1.410262 A    
C46   C54   1.430300 A    
Cu8   O24   1.960782 S    
C9    C58   1.491637 S    
C23   C70   1.399953 A    
C169  H70   1.112330 S    
C18   C26   1.414353 A    
C107  C115  1.407840 A    
C7    O23   1.293628 A    
C108  C116  1.412823 A    
C134  C142  1.397912 A    
N5    O57   1.301097 A    
C85   C93   1.405515 A    
C104  C144  1.396484 A    
O15   Cu7   1.957091 S    
C157  H42   1.112687 S    
C140  H36   1.083680 S    
C173  H75   1.111919 S    
C173  C174  1.527056 S    
C177  H80   1.106593 S    
Cu12  O43   1.961605 S    
O12   Cu4   1.957091 S    
C134  H30   1.083357 S    
C2    O18   1.289983 A    
C61   H1    1.083599 S    
C164  H55   1.109960 S    
C89   N13   1.440158 S    
C149  O41   1.291992 A    
O33   Cu11  1.957196 S    
C167  H62   1.109094 S    
N1    O50   1.301235 A    
C162  H46   1.110516 S    
N4    O56   1.301250 A    
C47   C55   1.432854 A    
O1    C14   1.307068 A    
C123  C175  1.533719 S    
O3    C16   1.311118 A    
C150  O42   1.294453 A    
N2    O51   1.300382 A    
C131  C139  1.408784 A    
C122  C172  1.531068 S    
Cu2   O18   1.960907 S    
O8    C11   1.309638 A    
C78   C142  1.482225 S    
O9    Cu1   1.957487 S    
N9    O66   1.301262 A    
N3    O53   1.300933 A    
C52   C60   1.427125 A    
O31   C15   1.284941 A    
C23   C37   1.406542 A    
C21   C29   1.413547 A    
O32   C16   1.289477 A    
C158  C159  1.517250 S    
C10   C57   1.489444 S    
C24   C69   1.411351 A    
C156  O48   1.295687 A    
C119  C127  1.408331 A    
C25   N8    1.436656 S    
C3    C132  1.465322 S    
N6    O60   1.301315 A    
C40   C41   1.413230 A    
C115  C123  1.413699 A    
O4    Cu4   1.955069 S    
C175  C176  1.547383 S    
C49   C67   1.408692 A    
C12   C59   1.492630 S    
C135  C143  1.398657 A    
C78   C86   1.414217 A    
C165  H53   1.105104 S    
C105  C113  1.405502 A    
C84   C95   1.406357 A    
C133  C141  1.395567 A    
C180  H86   1.109693 S    
C78   C97   1.405260 A    
C83   C96   1.405291 A    
C121  C169  1.535106 S    
Cu7   O23   1.960784 S    
C137  C145  1.395407 A    
N13   O74   1.301515 A    
C50   C58   1.437977 A    
C62   H2    1.083214 S    
C24   C32   1.415767 A    
O6    C9    1.313726 A    
H15   C100  1.084074 S    
Cu1   O25   1.964228 S    
C31   N2    1.437469 S    
C84   C148  1.492438 S    
C70   H6    1.076670 S    
C120  C128  1.415936 A    
O16   Cu8   1.957091 S    
C171  H67   1.110185 S    
C161  H47   1.112149 S    
C30   C32   1.412782 A    
C74   H10   1.076301 S    
C82   C146  1.481544 S    
N11   O70   1.301514 A    
