data_mof_unit_8830.cif
_audit_creation_date              2012-12-11T17:36:15-0500
_audit_creation_method            fapswitch 2.2
_symmetry_space_group_name_H-M    P1
_symmetry_Int_Tables_number       1
_space_group_crystal_system       triclinic
_cell_length_a                    25.716353
_cell_length_b                    6.881307
_cell_length_c                    21.693778
_cell_angle_alpha                 89.17286
_cell_angle_beta                  96.810324
_cell_angle_gamma                 89.057531
_cell_volume                      3810.85486182

loop_
_atom_site_label
_atom_site_type_symbol
_atom_type_description
_atom_site_fract_x
_atom_site_fract_y
_atom_site_fract_z
_atom_type_partial_charge
O1    O     O_R   0.208650 0.594520 0.175450 -0.542424
O2    O     O_R   0.791350 0.405480 0.824550 -0.541805
O3    O     O_R   0.291350 0.094520 0.324550 -0.531635
O4    O     O_R   0.708650 0.905480 0.675450 -0.535044
O5    O     O_R   0.192980 0.260780 0.300160 -0.535643
O6    O     O_R   0.807020 0.739220 0.699840 -0.537771
O7    O     O_R   0.307020 0.760780 0.199840 -0.542743
O8    O     O_R   0.692980 0.239220 0.800160 -0.536715
C1    C     C_R   0.180249 0.433584 0.320392 0.745449
C2    C     C_R   0.819734 0.566434 0.679623 0.738460
C3    C     C_R   0.319642 0.933136 0.179498 0.741055
C4    C     C_R   0.680292 0.066772 0.820532 0.750358
O9    O     O_R   0.202550 0.264660 0.174420 -0.525292
O10   O     O_R   0.797450 0.735340 0.825580 -0.527356
O11   O     O_R   0.297450 0.764660 0.325580 -0.536900
O12   O     O_R   0.702550 0.235340 0.674420 -0.533925
O13   O     O_R   0.300990 0.096480 0.197920 -0.509519
O14   O     O_R   0.699010 0.903520 0.802080 -0.508032
O15   O     O_R   0.199010 0.596480 0.302080 -0.507023
O16   O     O_R   0.800990 0.403520 0.697920 -0.510767
C5    C     C_R   0.190534 0.436186 0.150975 0.770090
C6    C     C_R   0.809518 0.563349 0.848928 0.762240
C7    C     C_R   0.309722 0.930453 0.349128 0.761169
C8    C     C_R   0.690402 0.069259 0.650680 0.775004
O17   O     O_3   0.282290 0.427760 0.257860 -0.365901
O18   O     O_3   0.717710 0.572240 0.742140 -0.359117
O19   O     O_3   0.217710 0.927760 0.242140 -0.357566
O20   O     O_3   0.782290 0.072240 0.757860 -0.364208
V1    V     V_3+5 0.244010 0.152080 0.248540 1.568258
V2    V     V_3+5 0.755990 0.847920 0.751460 1.560292
V3    V     V_3+5 0.255990 0.652080 0.251460 1.544640
V4    V     V_3+5 0.744010 0.347920 0.748540 1.558656
C9    C     C_R   0.657325 0.074532 0.589447 -0.120426
C10   C     C_R   0.346429 0.919894 0.407529 -0.126322
C11   C     C_R   0.844175 0.537550 0.908135 -0.120615
C12   C     C_R   0.157982 0.453607 0.089998 -0.122302
C13   C     C_R   0.638510 0.230753 0.487809 0.421979
C14   C     C_R   0.370080 0.734045 0.503009 0.454058
C15   C     C_R   0.854181 0.390430 0.011133 0.458271
C16   C     C_R   0.149972 0.561091 0.982252 0.445481
C17   C     C_R   0.669835 0.206578 0.544401 -0.155924
C18   C     C_R   0.332664 0.803389 0.455826 -0.159305
C19   C     C_R   0.822575 0.467434 0.959686 -0.158635
C20   C     C_R   0.179373 0.537318 0.040219 -0.142968
C21   C     C_R   0.610374 0.972377 0.578264 -0.176818
C22   C     C_R   0.398509 0.981074 0.409985 -0.200316
C23   C     C_R   0.898863 0.540848 0.909987 -0.219636
C24   C     C_R   0.104956 0.404431 0.082453 -0.214668
C25   C     C_R   0.578329 0.985687 0.519684 0.035632
C26   C     C_R   0.439012 0.898213 0.454123 0.027247
C27   C     C_R   0.932342 0.444108 0.958591 0.016172
C28   C     C_R   0.074144 0.416615 0.023291 0.011496
C29   C     C_R   0.593894 0.113057 0.473102 -0.065576
C30   C     C_R   0.424232 0.765614 0.499801 -0.063795
C31   C     C_R   0.908990 0.362156 0.009238 -0.070700
C32   C     C_R   0.097821 0.491084 0.971882 -0.080215
C33   C     C_R   0.529556 0.885831 0.507436 -0.023241
C34   C     C_R   0.493572 0.944049 0.454920 -0.040931
C35   C     C_R   0.988298 0.429194 0.958976 -0.059406
C36   C     C_R   0.019659 0.367606 0.014614 -0.046712
C37   C     C_R   0.514841 0.032125 0.403952 -0.122119
C38   C     C_R   0.516508 0.721511 0.542610 -0.095971
C39   C     C_R   0.995753 0.248855 0.057065 -0.108489
C40   C     C_R   0.014328 0.458648 0.905301 -0.124249
C41   C     C_R   0.565309 0.113395 0.413081 0.429796
C42   C     C_R   0.464010 0.659683 0.537630 0.423175
C43   C     C_R   0.940499 0.244355 0.053600 0.419744
C44   C     C_R   0.069145 0.486272 0.911957 0.426787
H1    H     H_    0.406414 0.089031 0.376032 0.131081
H2    H     H_    0.597916 0.894009 0.617217 0.135420
H3    H     H_    0.087936 0.367329 0.124106 0.135516
H4    H     H_    0.914088 0.616280 0.872299 0.128630
H5    H     H_    0.292272 0.761812 0.456110 0.198910
H6    H     H_    0.703490 0.298550 0.554357 0.194173
H7    H     H_    0.219125 0.589883 0.047013 0.184739
H8    H     H_    0.780455 0.470761 0.959698 0.195937
C45   C     C_R   0.439555 0.826217 0.097001 -0.083470
C46   C     C_R   0.562867 0.185044 0.906470 -0.101595
C47   C     C_R   0.063709 0.318766 0.407303 -0.102691
C48   C     C_R   0.937319 0.677476 0.594190 -0.087426
H9    H     H_    0.469848 0.714210 0.098878 0.183412
H10   H     H_    0.534517 0.303152 0.906843 0.187411
H11   H     H_    0.036145 0.201788 0.408606 0.189550
H12   H     H_    0.965468 0.792745 0.593578 0.187969
C49   C     C_R   0.399759 0.807508 0.135464 -0.194284
C50   C     C_R   0.602531 0.200688 0.867694 -0.183603
C51   C     C_R   0.103403 0.302509 0.368607 -0.179458
C52   C     C_R   0.897442 0.694904 0.632590 -0.169258
H13   H     H_    0.400838 0.683097 0.166781 0.161044
H14   H     H_    0.603306 0.329628 0.838610 0.174328
H15   H     H_    0.105012 0.174061 0.340574 0.178191
H16   H     H_    0.896308 0.822244 0.661204 0.168754
C53   C     C_R   0.359723 0.949032 0.134700 -0.101647
C54   C     C_R   0.640063 0.051125 0.865359 -0.106682
C55   C     C_R   0.139864 0.450821 0.364986 -0.104047
C56   C     C_R   0.860164 0.549001 0.635162 -0.103252
C57   C     C_R   0.359412 0.108985 0.092092 0.307205
C58   C     C_R   0.637875 0.885300 0.905286 0.303820
C59   C     C_R   0.136389 0.616671 0.403386 0.299164
C60   C     C_R   0.862958 0.384656 0.596029 0.296586
C61   C     C_R   0.400575 0.131460 0.054349 -0.062245
C62   C     C_R   0.596908 0.866933 0.943540 -0.058098
C63   C     C_R   0.095629 0.634670 0.441967 -0.056079
C64   C     C_R   0.904011 0.364980 0.557949 -0.057427
C65   C     C_R   0.440886 0.987564 0.056965 0.028240
C66   C     C_R   0.559195 0.019235 0.943963 0.026268
C67   C     C_R   0.059076 0.483560 0.443647 0.025344
C68   C     C_R   0.941377 0.513651 0.557250 0.024692
C69   C     C_1   0.482819 0.999092 0.017319 0.132135
C70   C     C_1   0.517401 0.010310 0.983873 0.131441
C71   C     C_1   0.017488 0.492656 0.483721 0.133454
C72   C     C_1   0.983072 0.503659 0.517346 0.135231
Cl1   Cl    Cl    0.596533 0.176607 0.346994 -0.400397
Cl2   Cl    Cl    0.450918 0.424945 0.566712 -0.478857
Cl3   Cl    Cl    0.911648 0.058271 0.095107 -0.437189
Cl4   Cl    Cl    0.102602 0.472627 0.845024 -0.398511
Cl5   Cl    Cl    0.653227 0.434637 0.443060 -0.514040
Cl6   Cl    Cl    0.345124 0.623347 0.566989 -0.440211
Cl7   Cl    Cl    0.822299 0.350653 0.077787 -0.424380
Cl8   Cl    Cl    0.179050 0.706714 0.928591 -0.462377
C73   C     C_2   0.489346 0.004080 0.339539 0.486276
H17   H     H_    0.469234 0.869668 0.327819 0.034675
O21   O     O_2   0.488460 0.132585 0.299996 -0.484716
C74   C     C_2   0.558935 0.593368 0.574576 0.447795
H18   H     H_    0.595952 0.579591 0.555519 0.061720
O22   O     O_2   0.553987 0.509225 0.623416 -0.480906
C75   C     C_2   0.027952 0.101440 0.096260 0.474472
H19   H     H_    0.061589 0.033391 0.078866 0.038916
O23   O     O_2   0.018838 0.061187 0.148875 -0.472252
C76   C     C_2   0.986452 0.421329 0.842589 0.483916
H20   H     H_    0.956970 0.309760 0.837091 0.028170
O24   O     O_2   0.994241 0.519494 0.797358 -0.480341
Cl9   Cl    Cl    0.306689 0.280525 0.083955 -0.685340
Cl10  Cl    Cl    0.686908 0.699614 0.909388 -0.694809
Cl11  Cl    Cl    0.183045 0.804379 0.404855 -0.698635
Cl12  Cl    Cl    0.814906 0.201581 0.592877 -0.695605
C77   C     C_2   0.400561 0.305773 0.012501 0.442169
H21   H     H_    0.364273 0.381837 0.995808 0.140710
O25   O     O_2   0.441170 0.370215 0.997212 -0.512801
C78   C     C_2   0.594441 0.687943 0.982850 0.433477
H22   H     H_    0.629554 0.602597 0.997934 0.140723
O26   O     O_2   0.553020 0.630229 0.997830 -0.515295
C79   C     C_2   0.092231 0.811853 0.480453 0.433324
H23   H     H_    0.126841 0.895208 0.494793 0.137774
O27   O     O_2   0.050594 0.870118 0.495677 -0.511322
C80   C     C_2   0.906893 0.188638 0.518993 0.432269
H24   H     H_    0.871950 0.108030 0.503899 0.138754
O28   O     O_2   0.948466 0.127905 0.504263 -0.511324

loop_
_geom_bond_atom_site_label_1
_geom_bond_atom_site_label_2
_ccdc_geom_bond_type
O17   V3    S    
C59   C63   A    
C52   C56   A    
O1    C5    A    
C51   H15   S    
O19   V1    S    
C9    C21   A    
O3    C7    A    
C71   C72   T    
C10   C18   A    
C57   Cl9   S    
C48   H12   S    
C11   C23   A    
C38   C74   S    
C25   C33   A    
C33   C38   A    
C5    C12   S    
O7    C3    A    
C6    C11   S    
C77   O25   D    
C35   C40   A    
C26   C30   A    
C36   C39   A    
C40   C44   A    
O9    V1    S    
C78   O26   D    
C14   C18   A    
C66   C70   S    
O4    C8    A    
C55   C59   A    
C54   C58   A    
C79   H23   S    
O1    V3    S    
O13   V1    S    
O2    V4    S    
O3    V1    S    
C43   Cl3   S    
C22   H1    S    
C50   C54   A    
C17   H6    S    
C49   C53   A    
C1    O15   A    
C60   C64   A    
C15   C31   A    
C52   H16   S    
C2    O16   A    
C16   C32   A    
C51   C55   A    
O2    C6    A    
C12   C24   A    
C10   C22   A    
C2    C56   S    
C11   C19   A    
C1    C55   S    
C16   C20   A    
O5    V1    S    
C13   C29   A    
C46   C50   A    
C34   C37   A    
O11   C7    A    
O15   V3    S    
C35   C36   A    
O12   C8    A    
O17   V1    S    
C4    C54   S    
C41   Cl1   S    
O10   V2    S    
C47   C51   A    
C80   O28   D    
C61   C65   A    
C47   C67   A    
C39   C43   A    
O7    V3    S    
C38   C42   A    
O9    C5    A    
C26   C34   A    
C64   C80   S    
O20   V4    S    
C78   H22   S    
C50   H14   S    
C49   H13   S    
O18   V4    S    
C15   C19   A    
C58   C62   A    
O19   V3    S    
C68   C72   S    
O8    V4    S    
C20   H7    S    
C76   O24   D    
C75   O23   D    
O5    C1    A    
C46   H10   S    
C31   C43   A    
C14   C30   A    
C45   H9    S    
O8    C4    A    
C7    C10   S    
C57   C61   A    
C21   C25   A    
C59   Cl11  S    
C62   C78   S    
C73   H17   S    
C48   C68   A    
C44   Cl4   S    
O14   V2    S    
C16   Cl8   S    
C40   C76   S    
O18   V2    S    
C12   C20   A    
C27   C35   A    
C24   H3    S    
C75   H19   S    
C53   C57   A    
C64   C68   A    
C29   C41   A    
C74   O22   D    
C80   H24   S    
O16   V4    S    
C19   H8    S    
C79   O27   D    
C65   C69   S    
C3    O13   A    
C18   H5    S    
C61   C77   S    
C42   Cl2   S    
O6    V2    S    
C21   H2    S    
C67   C71   S    
C37   C73   S    
C63   C79   S    
C58   Cl10  S    
O6    C2    A    
C23   C27   A    
O11   V3    S    
C30   C42   A    
O12   V4    S    
C77   H21   S    
C22   C26   A    
C8    C9    S    
C46   C66   A    
C9    C17   A    
O10   C6    A    
O20   V2    S    
C76   H20   S    
C48   C52   A    
C32   C44   A    
C69   C70   T    
C47   H11   S    
C3    C53   S    
C33   C34   A    
C15   Cl7   S    
C56   C60   A    
C45   C65   A    
C62   C66   A    
C27   C31   A    
C13   C17   A    
O4    V2    S    
C23   H4    S    
C73   O21   D    
C25   C29   A    
C45   C49   A    
C14   Cl6   S    
C37   C41   A    
C24   C28   A    
C13   Cl5   S    
C28   C36   A    
C4    O14   A    
C60   Cl12  S    
C63   C67   A    
C39   C75   S    
C28   C32   A    
C74   H18   S    
