data_mof_unit_65035.cif
_audit_creation_date              2013-03-05T16:46:34-0500
_audit_creation_method            fapswitch 2.2
_symmetry_space_group_name_H-M    P1
_symmetry_Int_Tables_number       1
_space_group_crystal_system       triclinic
_cell_length_a                    15.783931
_cell_length_b                    17.10814
_cell_length_c                    27.807146
_cell_angle_alpha                 90.360108
_cell_angle_beta                  91.908239
_cell_angle_gamma                 96.778441
_cell_volume                      7451.84971027

loop_
_atom_site_label
_atom_site_type_symbol
_atom_site_description
_atom_site_fract_x
_atom_site_fract_y
_atom_site_fract_z
_atom_type_partial_charge
O1    O     O_R   0.420530 0.382500 0.497820 -0.549604
O2    O     O_R   0.579470 0.617500 0.502180 -0.550743
O3    O     O_R   0.563720 0.388950 0.501760 -0.596281
O4    O     O_R   0.436280 0.611050 0.498240 -0.598960
C1    C     C_R   0.489113 0.348572 0.500976 0.847078
C2    C     C_R   0.510907 0.651461 0.499022 0.841663
O5    O     O_R   0.428410 0.496790 0.428290 -0.596531
O6    O     O_R   0.571590 0.503210 0.571710 -0.545506
O7    O     O_R   0.571600 0.503240 0.432230 -0.530533
O8    O     O_R   0.428400 0.496760 0.567770 -0.584713
C3    C     C_R   0.500534 0.498640 0.407341 0.845300
C4    C     C_R   0.499462 0.500808 0.592719 0.843635
Cu1   Cu    Cu3+1 0.415220 0.496180 0.497670 0.989069
Cu2   Cu    Cu3+1 0.584780 0.503820 0.502330 1.033570
C5    C     C_R   0.485654 0.427932 0.177145 0.590688
C6    C     C_R   0.476524 0.569006 0.821673 0.591402
O9    O     O_2   0.473691 0.360761 0.202337 -0.454072
O10   O     O_2   0.485284 0.636170 0.796355 -0.455615
N1    N     N_R   0.494582 0.498408 0.201447 -0.468414
N2    N     N_R   0.473928 0.498618 0.797646 -0.468628
C7    C     C_R   0.504289 0.568293 0.177643 0.581720
C8    C     C_R   0.462972 0.428657 0.821342 0.581208
C9    C     C_R   0.432750 0.529321 0.278338 -0.073652
C10   C     C_R   0.412675 0.467941 0.716423 -0.077439
C11   C     C_R   0.434825 0.528845 0.328477 -0.233490
C12   C     C_R   0.419899 0.468756 0.666667 -0.226059
C13   C     C_R   0.565791 0.466744 0.328712 0.244858
C14   C     C_R   0.566393 0.530885 0.676176 0.239102
C15   C     C_R   0.563253 0.467942 0.278492 -0.094367
C16   C     C_R   0.558425 0.529322 0.726083 -0.100950
C17   C     C_R   0.496961 0.498890 0.253148 0.271766
C18   C     C_R   0.481816 0.498256 0.746333 0.271441
C19   C     C_R   0.490768 0.497759 0.101233 -0.087911
C20   C     C_R   0.466803 0.499126 0.897485 -0.088914
C21   C     C_R   0.486982 0.425760 0.126354 -0.095186
C22   C     C_R   0.471001 0.571074 0.872317 -0.096112
C23   C     C_R   0.488465 0.355407 0.099656 0.314239
C24   C     C_R   0.466315 0.641117 0.898848 0.316052
C25   C     C_R   0.502548 0.569257 0.127231 -0.062510
C26   C     C_R   0.458235 0.427651 0.871535 -0.061152
C27   C     C_R   0.501247 0.498033 0.354323 -0.103741
C28   C     C_R   0.496415 0.500107 0.645761 -0.117491
H1    H     H_    0.612575 0.443894 0.258896 0.185950
H2    H     H_    0.611738 0.553135 0.749380 0.185130
C29   C     C_R   0.460921 0.425549 0.973325 0.006913
C30   C     C_R   0.493147 0.571344 0.025323 0.005930
C31   C     C_R   0.479710 0.570564 0.974502 0.016858
C32   C     C_R   0.473775 0.426195 0.024181 0.017223
C33   C     C_R   0.470048 0.498359 0.948619 0.048619
C34   C     C_R   0.484692 0.498493 0.050093 0.048349
C35   C     C_R   0.435381 0.355663 0.945725 0.223773
C36   C     C_R   0.519835 0.641308 0.052658 0.224280
C37   C     C_R   0.440218 0.356835 0.895861 -0.129266
C38   C     C_R   0.518668 0.640032 0.102645 -0.129315
O11   O     O_2   0.457918 0.360221 0.796397 -0.504671
O12   O     O_2   0.516413 0.636699 0.202775 -0.504466
C39   C     C_R   0.485275 0.357287 0.049637 -0.165933
C40   C     C_R   0.467503 0.639167 0.948899 -0.166387
H3    H     H_    0.365225 0.444573 0.644486 0.199653
H4    H     H_    0.384537 0.553119 0.347116 0.182176
H5    H     H_    0.424116 0.302231 0.875871 0.222192
H6    H     H_    0.536416 0.694623 0.122407 0.223795
C41   C     C_R   0.482479 0.262505 0.502637 -0.102347
C42   C     C_R   0.517562 0.737589 0.497366 -0.099293
C43   C     C_R   0.547867 0.224875 0.483085 -0.245720
C44   C     C_R   0.451219 0.775100 0.515946 -0.254101
C45   C     C_R   0.544531 0.143409 0.484136 -0.122662
C46   C     C_R   0.454462 0.856558 0.514881 -0.124783
C47   C     C_R   0.475352 0.097847 0.505137 0.328353
C48   C     C_R   0.524529 0.902284 0.494850 0.330484
C49   C     C_R   0.410245 0.135268 0.524614 -0.180983
C50   C     C_R   0.590553 0.865029 0.476301 -0.180449
C51   C     C_R   0.413109 0.217015 0.523843 0.242991
C52   C     C_R   0.587838 0.783293 0.477112 0.242638
N3    N     N_2   0.468702 0.014646 0.507840 -0.229408
N4    N     N_2   0.531166 0.985490 0.492169 -0.228580
H7    H     H_    0.396799 0.741322 0.531687 0.175858
H8    H     H_    0.601543 0.258572 0.466585 0.186329
H9    H     H_    0.402096 0.883312 0.529695 0.177522
H10   H     H_    0.596095 0.116510 0.468526 0.180060
H11   H     H_    0.357406 0.100415 0.541142 0.186546
H12   H     H_    0.644083 0.900023 0.460502 0.186965
N5    N     N_R   0.712130 0.509560 0.505840 -0.199330
N6    N     N_R   0.287870 0.490440 0.494160 -0.192356
C53   C     C_R   0.751281 0.453174 0.483377 0.075660
C54   C     C_R   0.248528 0.540672 0.521710 0.040733
C55   C     C_R   0.840688 0.456343 0.484373 -0.276070
C56   C     C_R   0.159139 0.537866 0.520555 -0.294486
C57   C     C_R   0.891588 0.518418 0.508977 0.314107
C58   C     C_R   0.108592 0.482277 0.490738 0.329708
C59   C     C_R   0.849386 0.575501 0.532041 0.168316
C60   C     C_R   0.151081 0.431010 0.462879 0.157996
C61   C     C_R   0.759732 0.570044 0.529887 0.093095
C62   C     C_R   0.240731 0.436232 0.465071 0.054116
N7    N     N_2   0.983439 0.525443 0.511732 -0.177191
N8    N     N_2   0.016749 0.475367 0.487960 -0.173877
H13   H     H_    0.130293 0.578623 0.543003 0.201670
H14   H     H_    0.869242 0.410452 0.466098 0.208625
Br1   Br    Br    0.655812 0.416612 0.359122 -0.465448
Br2   Br    Br    0.672697 0.580082 0.652909 -0.432724
Br3   Br    Br    0.323240 0.261991 0.555261 -0.444298
Br4   Br    Br    0.679446 0.738816 0.447087 -0.417601
H15   H     H_    0.286580 0.583147 0.544906 0.147574
H16   H     H_    0.713202 0.405310 0.464404 0.174771
Br5   Br    Br    0.912462 0.661944 0.566499 -0.371840
Br6   Br    Br    0.088364 0.353235 0.421507 -0.397985
H17   H     H_    0.728096 0.614545 0.547445 0.194175
H18   H     H_    0.272826 0.396622 0.443545 0.170072
Br7   Br    Br    0.502738 0.254551 0.127219 -0.298683
Br8   Br    Br    0.452116 0.741733 0.870969 -0.299281
H19   H     H_    0.353051 0.444112 0.731784 0.171140
H20   H     H_    0.381001 0.553046 0.259010 0.168160
Br9   Br    Br    0.371669 0.261645 0.969928 -0.399522
Br10  Br    Br    0.581009 0.735927 0.027563 -0.398052
H21   H     H_    0.496690 0.304382 0.030968 0.212403
H22   H     H_    0.454662 0.691742 0.967467 0.211982

loop_
_geom_bond_atom_site_label_1
_geom_bond_atom_site_label_2
_geom_bond_distance
_ccdc_geom_bond_type
C44   C46   1.389022 A    
C41   C43   1.401799 A    
C13   C15   1.396039 A    
C59   Br5   1.915064 S    
N7    N8    1.252862 D    
O7    Cu2   1.953288 S    
N1    C17   1.436829 S    
C32   C39   1.405791 A    
C39   H21   1.077012 S    
C5    N1    1.368780 A    
C9    H20   1.082846 S    
Cu1   N6    1.999956 S    
C62   H18   1.081796 S    
C19   C25   1.407011 A    
O1    C1    1.288053 A    
N1    C7    1.365484 A    
N6    C54   1.363968 A    
C54   C56   1.405331 A    
C25   C38   1.395531 A    
C29   C35   1.426571 A    
N5    C61   1.362610 A    
C30   C36   1.426908 A    
C1    C41   1.464910 S    
C2    C42   1.465946 S    
O4    Cu1   1.953933 S    
C47   C49   1.395431 A    
C4    C28   1.477425 S    
C24   C40   1.391946 A    
C37   H5    1.083633 S    
C43   C45   1.389043 A    
C47   N3    1.417536 S    
C11   H4    1.083340 S    
C57   C59   1.408143 A    
C12   H3    1.083225 S    
C23   Br7   1.926725 S    
C56   H13   1.082369 S    
C6    N2    1.369144 A    
C52   Br4   1.923262 S    
C55   H14   1.082381 S    
C14   Br2   1.920448 S    
C46   H9    1.082583 S    
C51   Br3   1.923318 S    
Cu1   Cu2   2.662836 S    
C15   H1    1.083185 S    
C40   H22   1.077439 S    
C16   H2    1.083145 S    
O2    C2    1.288081 A    
C10   H19   1.082916 S    
Cu2   N5    1.999956 S    
O2    Cu2   1.956543 S    
C54   H15   1.081726 S    
C5    C21   1.413527 A    
C36   C38   1.391022 A    
C53   C55   1.405166 A    
C50   C52   1.394292 A    
C11   C27   1.406610 A    
C49   C51   1.394256 A    
C38   H6    1.083623 S    
C19   C34   1.422329 A    
C35   C37   1.391363 A    
C9    C17   1.398624 A    
C57   N7    1.439974 S    
O5    C3    1.293132 A    
N3    N4    1.246082 D    
C10   C18   1.397214 A    
C59   C61   1.406383 A    
C13   C27   1.415592 A    
C58   C60   1.408557 A    
C7    C25   1.401393 A    
C29   C33   1.421039 A    
O6    C4    1.293293 A    
C8    C26   1.400340 A    
C60   C62   1.406550 A    
N6    C62   1.362185 A    
O7    C3    1.292356 A    
C53   H16   1.080448 S    
O8    C4    1.293605 A    
C60   Br6   1.915176 S    
N5    C53   1.364356 A    
C56   C58   1.412567 A    
C36   Br10  1.931252 S    
C55   C57   1.412164 A    
C48   N4    1.417571 S    
C20   C26   1.406272 A    
O4    C2    1.292969 A    
C24   Br8   1.926268 S    
C12   C28   1.407829 A    
N2    C18   1.436459 S    
C29   C32   1.421713 A    
C5    O9    1.347095 S    
C44   H7    1.083691 S    
C30   C31   1.421759 A    
C20   C33   1.421312 A    
O6    Cu2   1.947299 S    
C43   H8    1.083771 S    
C14   C28   1.416829 A    
C21   C23   1.413134 A    
C35   Br9   1.930872 S    
C45   H10   1.082597 S    
C10   C12   1.392084 A    
N2    C8    1.365760 A    
O3    C1    1.292470 A    
O8    Cu1   1.953286 S    
C7    O12   1.350020 S    
C58   N8    1.439935 S    
C8    O11   1.349950 S    
O3    Cu2   1.953932 S    
C31   C33   1.415718 A    
C41   C51   1.414164 A    
C30   C34   1.422414 A    
C22   C24   1.413922 A    
C14   C16   1.397761 A    
C15   C17   1.399375 A    
C6    C22   1.414336 A    
C31   C40   1.405785 A    
C16   C18   1.399668 A    
C32   C34   1.417392 A    
C19   C21   1.415979 A    
C3    C27   1.474669 S    
C20   C22   1.415618 A    
C9    C11   1.393611 A    
C13   Br1   1.919982 S    
C23   C39   1.390845 A    
C61   H17   1.081041 S    
O5    Cu1   1.947302 S    
O1    Cu1   1.956543 S    
C6    O10   1.346933 S    
C26   C37   1.395701 A    
C46   C48   1.409829 A    
C42   C52   1.414701 A    
C48   C50   1.395253 A    
C45   C47   1.410022 A    
C50   H12   1.083479 S    
C42   C44   1.402069 A    
C49   H11   1.083476 S    
