data_mof_unit_20065.cif
_audit_creation_date              2012-12-10T18:24:02-0500
_audit_creation_method            fapswitch 2.2
_symmetry_space_group_name_H-M    P1
_symmetry_Int_Tables_number       1
_space_group_crystal_system       triclinic
_cell_length_a                    15.653909
_cell_length_b                    14.989259
_cell_length_c                    14.295064
_cell_angle_alpha                 88.664443
_cell_angle_beta                  90.388594
_cell_angle_gamma                 87.912409
_cell_volume                      3350.96638508

loop_
_atom_site_label
_atom_site_type_symbol
_atom_type_description
_atom_site_fract_x
_atom_site_fract_y
_atom_site_fract_z
_atom_type_partial_charge
C1    C     C_R   0.503016 0.327050 0.501536 0.954619
C2    C     C_R   0.516039 0.045737 0.537703 0.042481
C3    C     C_R   0.631891 0.330251 0.708883 -0.096443
C4    C     C_R   0.403600 0.632869 0.250272 0.163524
C5    C     C_R   0.439815 0.717144 0.250360 -0.143532
C6    C     C_R   0.397183 0.789098 0.292739 -0.179726
C7    C     C_R   0.317426 0.777682 0.333614 -0.050784
C8    C     C_R   0.279865 0.694629 0.331216 -0.045567
C9    C     C_R   0.322451 0.622683 0.289298 -0.126231
C10   C     C_R   0.436093 0.909153 0.563523 -0.032559
C11   C     C_R   0.589500 0.088748 0.503482 -0.032738
C12   C     C_R   0.660300 0.942497 0.484622 -0.032174
C13   C     C_R   0.381442 0.052287 0.622268 -0.046910
C14   C     C_R   0.665765 0.035866 0.489738 -0.077666
C15   C     C_R   0.370534 0.960844 0.609157 -0.090718
C16   C     C_R   0.437279 0.544989 0.798025 -0.015949
C17   C     C_R   0.551258 0.440697 0.203292 0.012930
C18   C     C_R   0.561940 0.451237 0.800712 0.041495
C19   C     C_R   0.499542 0.673342 0.499002 0.915893
C20   C     C_R   0.446920 0.559586 0.199608 0.055172
C21   C     C_R   0.559533 0.443700 0.901761 -0.077359
C22   C     C_R   0.441516 0.557790 0.098578 -0.077794
C23   C     C_R   0.338166 0.502576 0.499699 0.941422
C24   C     C_R   0.661807 0.499119 0.500271 0.961948
C25   C     C_R   0.501293 0.500355 0.950039 0.051997
C26   C     C_R   0.500572 0.501284 0.050608 0.054578
C27   C     C_R   0.442974 0.555499 0.897257 -0.070197
C28   C     C_R   0.558814 0.445357 0.103279 -0.079511
C29   C     C_R   0.615706 0.385064 0.956426 -0.076951
C30   C     C_R   0.497110 0.770710 0.499127 -0.103245
C31   C     C_R   0.382614 0.613232 0.043197 -0.082543
C32   C     C_R   0.621149 0.393329 0.054739 -0.017329
C33   C     C_R   0.389835 0.617955 0.944547 0.001439
C34   C     C_3   0.976539 0.444477 0.501472 -0.038149
C35   C     C_3   0.021567 0.614243 0.493655 0.000633
C36   C     C_3   0.029811 0.486780 0.423827 0.012898
C37   C     C_3   0.967624 0.571891 0.571443 -0.010477
C38   C     C_1   0.249257 0.515138 0.499173 -0.107731
C39   C     C_1   0.750282 0.507478 0.499995 -0.130190
C40   C     C_3   0.029543 0.489133 0.577669 -0.280603
C41   C     C_R   0.508069 0.230398 0.509423 -0.118280
C42   C     C_3   0.967646 0.569453 0.417627 -0.267388
C43   C     C_3   0.082583 0.531761 0.498924 0.121041
C44   C     C_3   0.915243 0.526403 0.496618 0.071914
C45   C     C_1   0.173951 0.525601 0.499267 0.056121
C46   C     C_1   0.824858 0.517170 0.498298 -0.039310
C47   C     C_R   0.432157 0.815836 0.549803 -0.084496
C48   C     C_R   0.584175 0.182372 0.487168 -0.088450
C49   C     C_2   0.066361 0.439141 0.341427 0.385708
C50   C     C_2   0.930470 0.621277 0.652336 0.379239
C51   C     C_R   0.659292 0.304845 0.916723 0.164035
C52   C     C_R   0.566630 0.816604 0.463108 -0.132521
C53   C     C_R   0.611730 0.229194 0.899237 -0.118451
C54   C     C_R   0.652493 0.150853 0.868210 -0.150560
C55   C     C_R   0.741095 0.146862 0.856299 -0.123155
C56   C     C_R   0.789128 0.221203 0.875305 -0.101308
C57   C     C_R   0.748570 0.299974 0.905485 -0.067609
C58   C     C_R   0.305225 0.658223 0.082515 0.146145
C59   C     C_R   0.231800 0.608856 0.097881 -0.078189
C60   C     C_R   0.155705 0.651668 0.126083 -0.086514
C61   C     C_R   0.151904 0.744091 0.137389 -0.132195
C62   C     C_R   0.224048 0.794003 0.120028 -0.114465
C63   C     C_R   0.439572 0.188341 0.552400 -0.109985
C64   C     C_R   0.300397 0.751464 0.092270 -0.085445
C65   C     C_2   0.697958 0.354701 0.105340 0.401304
C66   C     C_2   0.348661 0.694905 0.891044 0.405068
C67   C     C_2   0.950259 0.349621 0.503533 0.335942
C68   C     C_2   0.045975 0.709732 0.490577 0.358025
C69   C     C_2   0.362534 0.763084 0.589544 0.401097
C70   C     C_2   0.652262 0.228176 0.435341 0.409620
C71   C     C_R   0.619082 0.780093 0.385095 0.132548
C72   C     C_R   0.619068 0.826319 0.298313 -0.126294
C73   C     C_R   0.670074 0.795252 0.225212 -0.140471
C74   C     C_R   0.579593 0.903662 0.492810 -0.034552
C75   C     C_R   0.722661 0.718728 0.238553 -0.117894
C76   C     C_R   0.725374 0.674212 0.325461 -0.109372
C77   C     C_R   0.674424 0.705317 0.398788 -0.096731
C78   C     C_R   0.354600 0.236313 0.555292 0.086919
C79   C     C_R   0.292098 0.216693 0.488643 -0.100063
C80   C     C_R   0.208778 0.251914 0.496657 -0.129447
C81   C     C_R   0.187440 0.306523 0.571300 -0.119933
C82   C     C_R   0.249640 0.328526 0.636506 -0.094833
C83   C     C_R   0.333265 0.293956 0.628457 -0.121462
C84   C     C_2   0.739095 0.883280 0.486185 0.413612
C85   C     C_R   0.446155 0.096077 0.572923 -0.026389
C86   C     C_2   0.331651 0.100742 0.695094 0.410081
C87   C     C_R   0.752051 0.072847 0.501190 0.133741
C88   C     C_R   0.786140 0.080442 0.591614 -0.176242
C89   C     C_R   0.870708 0.104826 0.604201 -0.158570
C90   C     C_R   0.922430 0.119905 0.526583 -0.091684
C91   C     C_R   0.889359 0.111656 0.436266 -0.029813
C92   C     C_R   0.804654 0.087732 0.423423 -0.045860
C93   C     C_R   0.286162 0.926172 0.635600 0.142583
C94   C     C_R   0.269099 0.901162 0.728901 -0.139135
C95   C     C_R   0.187051 0.876308 0.754342 -0.048605
C96   C     C_R   0.511102 0.952456 0.533351 0.041131
C97   C     C_R   0.121334 0.878046 0.687560 -0.087541
C98   C     C_R   0.137498 0.904759 0.595244 -0.054565
C99   C     C_R   0.219712 0.928200 0.569041 -0.042633
C100  C     C_2   0.358486 0.572381 0.747459 0.473589
C101  C     C_2   0.590924 0.366251 0.258074 0.474159
C102  C     C_R   0.635998 0.413586 0.750567 0.168333
C103  C     C_R   0.713954 0.457360 0.751983 -0.154558
C104  C     C_R   0.786620 0.417834 0.711424 -0.182464
C105  C     C_R   0.781735 0.334701 0.669894 -0.073391
C106  C     C_R   0.704442 0.291224 0.668779 -0.055630
H1    H     H_    0.941126 0.601951 0.352597 0.154201
H2    H     H_    0.233618 0.537426 0.087783 0.151391
H3    H     H_    0.099494 0.613305 0.138545 0.173304
H4    H     H_    0.092930 0.777085 0.159125 0.135259
H5    H     H_    0.220821 0.865660 0.127998 0.126893
H6    H     H_    0.355488 0.790937 0.077381 0.106860
H7    H     H_    0.735582 0.397503 0.148387 0.029318
H8    H     H_    0.386718 0.733442 0.842708 -0.010640
H9    H     H_    0.972986 0.304398 0.559216 0.039000
H10   H     H_    0.996776 0.762338 0.483516 0.063115
H11   H     H_    0.351205 0.763531 0.664028 0.047571
H12   H     H_    0.054904 0.457976 0.643881 0.178331
H13   H     H_    0.676567 0.200230 0.371185 0.112526
H14   H     H_    0.579217 0.886249 0.287214 0.128854
H15   H     H_    0.668866 0.830588 0.158302 0.134326
H16   H     H_    0.762204 0.694649 0.181989 0.127206
H17   H     H_    0.767788 0.616299 0.335935 0.130380
H18   H     H_    0.679583 0.673605 0.467189 0.076844
H19   H     H_    0.307447 0.171975 0.432233 0.131853
H20   H     H_    0.160324 0.235443 0.446167 0.120118
H21   H     H_    0.122559 0.331196 0.578859 0.106119
H22   H     H_    0.232711 0.371196 0.694056 0.172334
H23   H     H_    0.056118 0.368601 0.333111 0.085514
H24   H     H_    0.379959 0.308271 0.681751 0.143844
H25   H     H_    0.741607 0.823735 0.530933 0.038333
H26   H     H_    0.365023 0.142768 0.742976 0.044049
H27   H     H_    0.747471 0.066000 0.652274 0.116983
H28   H     H_    0.896447 0.110851 0.674143 0.130272
H29   H     H_    0.988275 0.137554 0.536389 0.122206
H30   H     H_    0.929696 0.122742 0.376228 0.129840
H31   H     H_    0.780615 0.078519 0.353220 0.134345
H32   H     H_    0.319206 0.901456 0.781499 0.116599
H33   H     H_    0.174080 0.856901 0.826082 0.172755
H34   H     H_    0.885383 0.676970 0.639616 0.037668
H35   H     H_    0.057690 0.859495 0.707508 0.131632
H36   H     H_    0.086200 0.907575 0.543996 0.133475
H37   H     H_    0.231318 0.949725 0.497542 0.104362
H38   H     H_    0.361487 0.615179 0.686650 0.106912
H39   H     H_    0.639124 0.378621 0.310022 0.112457
H40   H     H_    0.718537 0.521055 0.785552 0.134181
H41   H     H_    0.846831 0.450913 0.713212 0.176870
H42   H     H_    0.838027 0.302824 0.640669 0.144481
H43   H     H_    0.700746 0.226188 0.639059 0.149167
H44   H     H_    0.573918 0.293126 0.712395 0.124588
H45   H     H_    0.543197 0.231131 0.909457 0.128617
H46   H     H_    0.500133 0.726908 0.216002 0.134169
H47   H     H_    0.425286 0.853941 0.292878 0.136100
H48   H     H_    0.284139 0.833459 0.365757 0.140366
H49   H     H_    0.216933 0.686243 0.359820 0.193889
H50   H     H_    0.290858 0.559870 0.284209 0.164699
H51   H     H_    0.615433 0.093115 0.853792 0.126356
H52   H     H_    0.772568 0.086125 0.832526 0.120743
H53   H     H_    0.857746 0.217933 0.866291 0.126059
H54   H     H_    0.786479 0.356930 0.920788 0.117881
N1    N     N_R   0.500040 0.500070 0.750030 -0.158502
N2    N     N_R   0.499960 0.499930 0.249970 -0.152307
O1    O     O_R   0.500020 0.367860 0.580280 -0.646403
O2    O     O_2   0.950699 0.599345 0.732397 -0.556034
O3    O     O_2   0.716632 0.274926 0.103875 -0.524688
O4    O     O_2   0.272011 0.712110 0.895960 -0.540550
O5    O     O_2   0.903719 0.322868 0.442241 -0.548014
O6    O     O_2   0.120800 0.728795 0.496647 -0.554856
O7    O     O_2   0.318427 0.718120 0.539737 -0.559575
O8    O     O_2   0.681910 0.296702 0.463710 -0.596386
O9    O     O_2   0.799560 0.897887 0.435368 -0.580952
O10   O     O_2   0.253930 0.097826 0.699581 -0.560004
O11   O     O_2   0.289391 0.546461 0.773766 -0.543441
O12   O     O_R   0.499980 0.632140 0.419720 -0.598793
O13   O     O_2   0.570244 0.289897 0.244114 -0.564136
O14   O     O_R   0.500020 0.367840 0.419730 -0.603967
O15   O     O_R   0.499980 0.632160 0.580270 -0.659476
O16   O     O_R   0.376770 0.500000 0.580260 -0.631321
O17   O     O_R   0.623230 0.500000 0.419740 -0.646629
O18   O     O_R   0.376780 0.499980 0.419710 -0.625350
O19   O     O_R   0.623220 0.500020 0.580290 -0.611283
O20   O     O_2   0.108339 0.479387 0.283775 -0.607662
Zn1   Zn    Zn3+2 0.499990 0.500020 0.607200 0.939502
Zn2   Zn    Zn3+2 0.500010 0.499980 0.392800 0.972792

loop_
_geom_bond_atom_site_label_1
_geom_bond_atom_site_label_2
_ccdc_geom_bond_type
C40   H12   S    
C55   C56   A    
C1    O14   A    
C21   C29   A    
C93   C94   A    
C37   C50   S    
C12   C74   A    
C75   H16   S    
C36   C42   S    
C87   C88   A    
C84   O9    D    
C81   C82   A    
C7    C8    A    
C53   C54   A    
C27   C33   A    
C101  H39   S    
C5    H46   S    
C21   C25   A    
C86   O10   D    
C31   C58   S    
C99   H37   S    
C35   C37   S    
C14   C87   S    
C29   C32   A    
C52   C74   A    
C10   C15   A    
C5    C6    A    
C18   N1    A    
C50   H34   S    
C64   H6    S    
C2    C11   A    
C18   C21   A    
C65   O3    D    
C24   C39   S    
C56   C57   A    
C12   C84   S    
C2    C85   A    
C18   C102  S    
C8    H49   S    
C35   C42   S    
C67   H9    S    
C47   C69   S    
C23   O16   A    
C62   C64   A    
C60   H3    S    
C103  C104  A    
C97   H35   S    
C78   C83   A    
C40   C43   S    
C62   H5    S    
C9    H50   S    
C8    C9    A    
C38   C45   T    
C13   C86   S    
C31   C33   A    
C48   C70   S    
C51   C57   A    
C35   C43   S    
C42   H1    S    
C93   C99   A    
O16   Zn1   S    
C16   C27   A    
C79   H19   S    
C59   C60   A    
C106  H43   S    
C87   C92   A    
C98   H36   S    
C73   C75   A    
C104  H41   S    
C11   C48   A    
C94   C95   A    
C42   C44   S    
C92   H31   S    
C104  C105  A    
C44   C46   S    
C33   C66   S    
C97   C98   A    
C100  O11   D    
O19   Zn1   S    
C3    C106  A    
C58   C64   A    
C22   C31   A    
C91   H30   S    
O1    Zn1   S    
C102  C103  A    
C74   C96   A    
C30   C47   A    
C28   C32   A    
C34   C44   S    
C76   C77   A    
C83   H24   S    
C100  H38   S    
O12   Zn2   S    
C91   C92   A    
C66   O4    D    
C78   C79   A    
C80   C81   A    
C25   C26   A    
O15   Zn1   S    
C105  H42   S    
C50   O2    D    
C49   O20   D    
C60   C61   A    
C51   C53   A    
N1    Zn1   S    
C75   C76   A    
N2    Zn2   S    
C10   C96   A    
C55   H52   S    
C20   N2    A    
C72   H14   S    
C24   O17   A    
C69   O7    D    
C61   H4    S    
C43   C45   S    
C82   H22   S    
C23   O18   A    
C68   H10   S    
C39   C46   T    
C68   O6    D    
C3    C102  A    
C1    C41   S    
C57   H54   S    
C20   C22   A    
C82   C83   A    
C73   H15   S    
C13   C15   A    
C94   H32   S    
C34   C40   S    
C95   H33   S    
C101  O13   D    
C70   H13   S    
C25   C27   A    
C41   C63   A    
C37   C40   S    
C89   C90   A    
C71   C77   A    
C53   H45   S    
O17   Zn2   S    
C29   C51   S    
C67   O5    D    
O14   Zn2   S    
C19   O15   A    
C54   C55   A    
C3    H44   S    
C89   H28   S    
C66   H8    S    
C24   O19   A    
C17   C28   A    
C65   H7    S    
C16   C100  S    
C76   H17   S    
C12   C14   A    
C72   C73   A    
C17   C101  S    
C34   C67   S    
C15   C93   S    
C95   C97   A    
C6    C7    A    
C16   N1    A    
C56   H53   S    
C23   C38   S    
C105  C106  A    
C84   H25   S    
C26   C28   A    
C59   H2    S    
C37   C44   S    
C2    C96   A    
C58   C59   A    
C19   O12   A    
C71   C72   A    
C52   C71   S    
C54   H51   S    
C90   H29   S    
C86   H26   S    
C90   C91   A    
C7    H48   S    
C80   H20   S    
C35   C68   S    
C49   H23   S    
C69   H11   S    
C11   C14   A    
C41   C48   A    
C34   C36   S    
C70   O8    D    
C61   C62   A    
C6    H47   S    
C17   N2    A    
C79   C80   A    
C4    C20   S    
O18   Zn2   S    
C4    C5    A    
C88   C89   A    
C1    O1    A    
C98   C99   A    
C22   C26   A    
C13   C85   A    
C10   C47   A    
C77   H18   S    
C32   C65   S    
C36   C43   S    
C88   H27   S    
C4    C9    A    
C19   C30   S    
C63   C85   A    
C36   C49   S    
C81   H21   S    
C103  H40   S    
C30   C52   A    
C63   C78   S    
