data_mof_unit_11473.cif
_audit_creation_date              2012-12-11T16:53:35-0500
_audit_creation_method            fapswitch 2.2
_symmetry_space_group_name_H-M    P1
_symmetry_Int_Tables_number       1
_space_group_crystal_system       triclinic
_cell_length_a                    14.870107
_cell_length_b                    14.765247
_cell_length_c                    16.967646
_cell_angle_alpha                 108.948008
_cell_angle_beta                  106.034121
_cell_angle_gamma                 108.517064
_cell_volume                      3027.56795752

loop_
_atom_site_label
_atom_site_type_symbol
_atom_type_description
_atom_site_fract_x
_atom_site_fract_y
_atom_site_fract_z
_atom_type_partial_charge
C1    C     C_R   0.086487 0.283609 0.073609 -0.128119
C2    C     C_R   0.029386 0.465695 0.725710 0.056883
C3    C     C_R   0.661436 0.217539 0.746589 -0.103715
C4    C     C_R   0.360755 0.561641 0.053725 0.075796
C5    C     C_R   0.219509 0.703131 0.265187 -0.148303
C6    C     C_R   0.753239 0.568180 0.977523 -0.141414
C7    C     C_R   0.891487 0.389435 0.172190 0.481047
C8    C     C_R   0.084840 0.801226 0.004364 -0.135158
C9    C     C_R   0.913988 0.717098 0.927224 -0.136485
C10   C     C_R   0.063860 0.478481 0.252382 -0.201444
C11   C     C_R   0.222230 0.798860 0.187170 -0.118297
C12   C     C_R   0.936409 0.451608 0.735154 -0.118164
C13   C     C_R   0.744475 0.470957 0.054313 -0.095202
C14   C     C_R   0.239164 0.805404 0.274029 0.103948
C15   C     C_R   0.718009 0.548500 0.040326 0.035829
C16   C     C_R   0.972449 0.414073 0.252427 -0.091885
C17   C     C_R   0.000214 0.813048 0.957832 0.065097
C18   C     C_R   0.525198 0.655792 0.044588 0.163509
C19   C     C_R   0.473533 0.600259 0.084233 0.030314
C20   C     C_R   0.529613 0.568284 0.142060 -0.194882
C21   C     C_R   0.622300 0.566483 0.139417 -0.196095
C22   C     C_R   0.657348 0.595338 0.078093 0.038859
C23   C     C_R   0.718303 0.216886 0.826663 0.518141
C24   C     C_R   0.615719 0.652824 0.040955 0.164344
C25   C     C_3   0.584357 0.646404 0.946556 -0.520759
C26   C     C_3   0.486165 0.650691 0.951187 -0.517444
C27   C     C_R   0.964048 0.376829 0.321917 0.149654
C28   C     C_R   0.038339 0.420377 0.638870 0.128397
C29   C     C_R   0.141916 0.432906 0.551173 -0.217910
C30   C     C_R   0.136259 0.450740 0.635196 -0.164455
C31   C     C_R   0.946980 0.358714 0.556825 -0.273259
C32   C     C_R   0.951849 0.349604 0.474407 0.192983
C33   C     C_R   0.050051 0.389790 0.471710 0.173711
C34   C     C_R   0.301355 0.595414 0.003568 -0.159900
C35   C     C_R   0.054959 0.397911 0.393284 -0.251017
C36   C     C_R   0.866577 0.333548 0.324708 -0.204799
C37   C     C_R   0.860184 0.315247 0.398424 -0.219051
C38   C     C_R   0.553048 0.142063 0.677494 0.148715
C39   C     C_R   0.277779 0.903165 0.359617 -0.098647
C40   C     C_R   0.390196 0.095293 0.445368 0.291704
C41   C     C_R   0.323880 0.003547 0.362052 -0.265303
C42   C     C_R   0.286218 0.897692 0.442638 0.415450
C43   C     C_R   0.367539 0.983060 0.524408 0.050473
C44   C     C_R   0.419904 0.082921 0.526379 0.038108
C45   C     C_R   0.725599 0.310187 0.747571 -0.224695
C46   C     C_R   0.507078 0.164168 0.606519 -0.202455
C47   C     C_R   0.499974 0.042710 0.674588 -0.248116
C48   C     C_R   0.404619 0.966552 0.601333 -0.117923
C49   C     C_R   0.060498 0.133315 0.167597 0.141569
C50   C     C_R   0.988853 0.109294 0.080945 -0.006219
C51   C     C_R   0.899136 0.008683 0.033251 -0.193502
C52   C     C_R   0.890469 0.930750 0.065250 -0.183801
C53   C     C_R   0.972034 0.950582 0.143781 0.048676
C54   C     C_R   0.052671 0.054233 0.196396 0.116243
C55   C     C_3   0.167457 0.091889 0.239162 -0.544466
C56   C     C_R   0.295737 0.497094 0.078456 -0.116623
C57   C     C_3   0.177856 0.181951 0.211414 0.073430
C58   C     C_R   0.110826 0.536171 0.812415 -0.129662
C59   C     C_R   0.913652 0.199209 0.995649 -0.084520
C60   C     C_R   0.998396 0.189006 0.044575 0.025485
H1    H     H_    0.164656 0.309546 0.122129 0.102657
H2    H     H_    0.750200 0.626530 0.953590 0.107430
H3    H     H_    0.165778 0.855255 0.027039 0.091467
H4    H     H_    0.836266 0.693063 0.878339 0.091871
H5    H     H_    0.142985 0.500831 0.296988 0.123680
H6    H     H_    0.230450 0.862824 0.168194 0.088816
H7    H     H_    0.730286 0.436956 0.099722 0.141961
H8    H     H_    0.496466 0.532382 0.179999 0.128237
H9    H     H_    0.657256 0.529330 0.175522 0.130128
H10   H     H_    0.636901 0.718560 0.945622 0.187859
H11   H     H_    0.857422 0.402689 0.682760 0.097494
H12   H     H_    0.567364 0.568406 0.892209 0.203069
H13   H     H_    0.482942 0.725826 0.953984 0.194048
H14   H     H_    0.414470 0.575545 0.899426 0.199784
H15   H     H_    0.130783 0.431085 0.392789 0.124615
H16   H     H_    0.795292 0.321000 0.274113 0.158691
H17   H     H_    0.217991 0.462633 0.550057 0.130914
H18   H     H_    0.784487 0.285747 0.400343 0.130955
H19   H     H_    0.208437 0.494399 0.697105 0.116210
H20   H     H_    0.870772 0.329255 0.557262 0.117724
H21   H     H_    0.544884 0.241288 0.609417 0.133082
H22   H     H_    0.533632 0.019725 0.725202 0.160875
H23   H     H_    0.366904 0.890086 0.600592 0.175680
H24   H     H_    0.315202 0.010295 0.299285 0.148211
H25   H     H_    0.838038 0.987836 0.968790 0.134494
H26   H     H_    0.824191 0.852291 0.025309 0.122824
H27   H     H_    0.198082 0.117803 0.314453 0.223670
H28   H     H_    0.191143 0.034135 0.200635 0.165649
H29   H     H_    0.329711 0.661169 0.987692 0.105442
H30   H     H_    0.212910 0.179341 0.161159 0.129689
H31   H     H_    0.703961 0.346515 0.704370 0.120266
H32   H     H_    0.318875 0.468829 0.128319 0.087532
H33   H     H_    0.193673 0.564651 0.831035 0.095199
H34   H     H_    0.832493 0.149359 0.976455 0.166434
H35   H     H_    0.228060 0.677366 0.318230 0.151362
N1    N     N_R   0.055640 0.348550 0.045600 -0.047027
N2    N     N_R   0.798340 0.505430 0.954400 -0.046507
N3    N     N_R   0.931580 0.439470 0.128350 -0.067972
N4    N     N_R   0.051950 0.704140 0.002340 -0.040144
N5    N     N_R   0.944360 0.651450 0.954400 -0.039685
N6    N     N_R   0.039170 0.492150 0.176290 -0.067589
N7    N     N_R   0.188710 0.696600 0.128350 -0.042417
N8    N     N_R   0.794820 0.447010 0.002340 -0.033087
N9    N     N_R   0.960830 0.507850 0.823710 -0.039558
N10   N     N_R   0.811290 0.303400 0.871650 -0.068469
N11   N     N_R   0.205180 0.552990 0.997660 -0.039593
N12   N     N_R   0.814810 0.361830 0.823710 -0.065285
N13   N     N_R   0.201660 0.494570 0.045600 -0.039759
N14   N     N_R   0.068420 0.560530 0.871650 -0.040194
N15   N     N_R   0.948050 0.295860 0.997660 -0.041050
N16   N     N_R   0.185190 0.638170 0.176290 -0.044499
Ni1   Ni    Ni4+2 0.119330 0.493420 0.109950 0.198228
Ni2   Ni    Ni4+2 0.880670 0.506580 0.890050 0.202845
Ni3   Ni    Ni4+2 0.872590 0.372590 0.000000 0.287445
Ni4   Ni    Ni4+2 0.127410 0.627410 0.000000 0.207389
O1    O     O_3   0.795876 0.300233 0.125181 -0.776371
H36   H     H_    0.803962 0.244196 0.142228 0.309644
O2    O     O_3   0.677685 0.165484 0.872295 -0.779460
H37   H     H_    0.606663 0.160587 0.859285 0.311982
C61   C     C_3   0.437852 0.201293 0.443961 -1.039454
H38   H     H_    0.402421 0.195384 0.374541 0.259638
H39   H     H_    0.424578 0.261797 0.492170 0.252446
H40   H     H_    0.523114 0.228808 0.464071 0.249032
O3    O     O_3   0.222169 0.808619 0.445271 -0.780622
H41   H     H_    0.153626 0.773671 0.391517 0.319482
C62   C     C_3   0.227959 0.292149 0.294684 -0.973201
H42   H     H_    0.313125 0.318419 0.330228 0.256628
H43   H     H_    0.217153 0.352504 0.272990 0.234095
H44   H     H_    0.192801 0.289245 0.344284 0.260399

loop_
_geom_bond_atom_site_label_1
_geom_bond_atom_site_label_2
_ccdc_geom_bond_type
C62   H42   S    
C7    N3    A    
C9    H4    S    
C3    C23   A    
C19   C20   A    
C18   C26   S    
C2    C12   A    
C51   H25   S    
C23   O2    S    
C42   O3    S    
C31   H20   S    
C39   C41   A    
C53   C54   A    
C52   C53   A    
N6    Ni1   S    
N1    Ni1   S    
C35   H15   S    
C18   C24   A    
C36   C37   A    
C8    N4    A    
C12   N9    A    
N4    Ni4   S    
N9    N14   A    
C11   C14   A    
N3    Ni3   S    
C49   C54   A    
C58   N14   A    
C29   C33   A    
C26   H13   S    
C49   C57   S    
O1    H36   S    
C18   C19   A    
C47   H22   S    
C55   H28   S    
O2    H37   S    
N12   Ni2   S    
N7    Ni4   S    
C36   H16   S    
C33   C35   A    
C14   C39   S    
C4    C19   S    
C15   C22   S    
C56   N13   A    
C31   C32   A    
C3    C38   S    
C44   C46   A    
C59   H34   S    
C13   N8    A    
C43   C48   A    
N15   Ni3   S    
C61   H40   S    
C16   C27   S    
C6    C15   A    
C59   C60   A    
C21   C22   A    
C4    C56   A    
N7    N16   A    
C52   H26   S    
C48   H23   S    
C5    H35   S    
C61   H39   S    
C39   C42   A    
C28   C31   A    
C4    C34   A    
C57   H30   S    
C51   C52   A    
C34   N11   A    
C6    N2    A    
N10   Ni3   S    
N8    Ni3   S    
C24   C25   S    
C1    C60   A    
C57   C62   S    
C5    N16   A    
C62   H44   S    
C27   C35   A    
C25   C26   S    
C41   H24   S    
N1    N15   A    
C3    C45   A    
N13   Ni1   S    
C21   H9    S    
C7    O1    S    
C43   C44   A    
C29   C30   A    
C46   H21   S    
N10   N12   A    
C47   C48   A    
C56   H32   S    
C50   C51   A    
C5    C14   A    
C25   H12   S    
C32   C37   A    
C38   C47   A    
N2    N8    A    
C30   H19   S    
C9    C17   A    
C7    C16   A    
C40   C61   S    
C12   H11   S    
C9    N5    A    
C55   C57   S    
C22   C24   A    
C42   C43   A    
N2    Ni2   S    
C61   H38   S    
C13   H7    S    
C10   H5    S    
C54   C55   S    
C40   C41   A    
C62   H43   S    
N16   Ni1   S    
C20   H8    S    
C10   N6    A    
N5    Ni2   S    
C1    H1    S    
C2    C28   S    
C59   N15   A    
C2    C58   A    
C27   C36   A    
N3    N6    A    
C37   H18   S    
C8    C17   A    
N4    N5    A    
N11   Ni4   S    
C50   C60   S    
C32   C33   A    
C6    H2    S    
C13   C15   A    
C34   H29   S    
C10   C16   A    
N11   N13   A    
C1    N1    A    
C28   C30   A    
C26   H14   S    
C11   N7    A    
C55   H27   S    
C45   H31   S    
C38   C46   A    
N14   Ni4   S    
C8    H3    S    
N9    Ni2   S    
C40   C44   A    
C29   H17   S    
C20   C21   A    
C49   C50   A    
C58   H33   S    
C25   H10   S    
C45   N12   A    
O3    H41   S    
C11   H6    S    
C23   N10   A    
