data_mof_unit_46538.cif
_audit_creation_date              2012-10-26T19:10:47-0400
_audit_creation_method            fapswitch 2.2
_symmetry_space_group_name_H-M    P1
_symmetry_Int_Tables_number       1
_space_group_crystal_system       triclinic
_cell_length_a                    11.162381
_cell_length_b                    9.922296
_cell_length_c                    23.54064
_cell_angle_alpha                 91.18739
_cell_angle_beta                  89.560374
_cell_angle_gamma                 89.027994
_cell_volume                      2606.2587404

loop_
_atom_site_label
_atom_site_type_symbol
_atom_type_description
_atom_site_fract_x
_atom_site_fract_y
_atom_site_fract_z
_atom_type_partial_charge
C1    C     C_R   0.261099 0.501835 0.502087 0.571914
C2    C     C_R   0.547496 0.477633 0.117247 0.474044
C3    C     C_R   0.518285 0.369543 0.237616 0.281925
C4    C     C_R   0.497581 0.498965 0.391346 0.559310
C5    C     C_R   0.544812 0.390532 0.295223 -0.032115
C6    C     C_R   0.486844 0.494724 0.327634 -0.033307
C7    C     C_R   0.414627 0.589376 0.297978 -0.042062
C8    C     C_R   0.399189 0.575893 0.238580 -0.020421
C9    C     C_R   0.449236 0.464593 0.208605 0.197699
C10   C     C_R   0.379466 0.401665 0.752241 -0.030361
C11   C     C_R   0.396354 0.413905 0.693751 -0.138149
C12   C     C_R   0.220042 0.423772 0.970645 0.267644
C13   C     C_R   0.484355 0.497583 0.671556 0.023016
C14   C     C_R   0.557939 0.566582 0.710409 0.228243
C15   C     C_R   0.527293 0.573317 0.768307 0.038798
C16   C     C_R   0.738892 0.498607 0.500116 0.593948
C17   C     C_R   0.444584 0.481448 0.790401 0.161330
C18   C     C_3   0.066141 0.637745 0.530284 -0.146752
C19   C     C_3   0.070240 0.385538 0.538391 -0.176194
C20   C     C_3   0.926725 0.635027 0.524412 0.116793
C21   C     C_3   0.929605 0.384843 0.540022 0.099603
C22   C     C_3   0.073491 0.501807 0.438569 0.350104
C23   C     C_R   0.222737 0.413057 0.030383 0.271444
C24   C     C_3   0.122023 0.505937 0.502431 -0.068839
C25   C     C_3   0.878455 0.495847 0.500664 -0.082912
C26   C     C_3   0.934914 0.465359 0.438787 -0.137328
C27   C     C_3   0.571916 0.082039 0.549951 0.227239
C28   C     C_3   0.592398 0.920909 0.540984 0.219140
C29   C     C_3   0.375401 0.085483 0.506571 0.176588
C30   C     C_3   0.378960 0.921251 0.514875 0.153004
C31   C     C_3   0.546945 0.078534 0.446932 0.240924
C32   C     C_3   0.529123 0.917753 0.443673 0.252709
C33   C     C_R   0.500215 0.500388 0.608583 0.580056
C34   C     C_R   0.331769 0.429554 0.060472 -0.006217
C35   C     C_R   0.543706 0.432927 0.879116 0.419783
C36   C     C_R   0.331539 0.460197 0.879641 0.447085
C37   C     C_R   0.327709 0.441116 0.939434 0.004212
C38   C     C_R   0.437332 0.441206 0.969029 -0.081754
C39   C     C_R   0.545896 0.438794 0.938336 0.000078
C40   C     C_1   0.586436 0.669331 0.805302 0.333018
C41   C     C_1   0.106617 0.666888 0.588956 0.316030
C42   C     C_1   0.112063 0.389004 0.597697 0.311003
C43   C     C_1   0.866618 0.537215 0.394678 0.295703
C44   C     C_1   0.928382 0.321266 0.421809 0.270371
C45   C     C_R   0.439371 0.443951 0.029173 -0.105743
C46   C     C_1   0.520559 0.114691 0.607403 0.254401
C47   C     C_1   0.595956 0.860091 0.597222 0.359133
C48   C     C_1   0.306478 0.141855 0.554859 0.283071
C49   C     C_1   0.343595 0.879396 0.572695 0.237952
C50   C     C_1   0.650282 0.322845 0.315556 0.317544
C51   C     C_1   0.358128 0.704477 0.326133 0.330822
C52   C     C_1   0.334093 0.678221 0.207540 0.294829
C53   C     C_R   0.549732 0.461862 0.057721 0.045810
C54   C     C_R   0.657724 0.463142 0.025595 0.261925
C55   C     C_R   0.654813 0.446337 0.966915 -0.044385
C56   C     C_R   0.338576 0.431111 0.120726 0.458532
Cl1   Cl    Cl    0.080267 0.404706 0.936215 -0.338261
Cl2   Cl    Cl    0.694806 0.126718 0.431984 -0.412457
Cl3   Cl    Cl    0.643652 0.833292 0.400865 -0.401835
Cl4   Cl    Cl    0.286512 0.137926 0.445907 -0.438900
Cl5   Cl    Cl    0.263048 0.860156 0.470074 -0.468835
Cl6   Cl    Cl    0.801179 0.481411 0.055152 -0.308167
Cl7   Cl    Cl    0.578244 0.226702 0.200099 -0.414049
Cl8   Cl    Cl    0.707807 0.597436 0.693617 -0.339083
Cl9   Cl    Cl    0.854964 0.690736 0.589876 -0.355393
Cl10  Cl    Cl    0.861653 0.389537 0.610362 -0.331526
Cl11  Cl    Cl    0.095648 0.659535 0.403377 -0.430121
Cl12  Cl    Cl    0.164263 0.392744 0.392476 -0.413296
Cl13  Cl    Cl    0.086610 0.376985 0.065576 -0.274514
Cl14  Cl    Cl    0.710974 0.160162 0.562204 -0.378397
Cl15  Cl    Cl    0.742305 0.891772 0.514976 -0.364531
Cu1   Cu    Cu3+1 0.499860 0.642410 0.500030 1.137050
Cu2   Cu    Cu3+1 0.499860 0.357590 0.500030 1.131066
H1    H     H_    0.346283 0.350372 0.665525 0.183380
H2    H     H_    0.094262 0.726925 0.507883 0.224436
H3    H     H_    0.102109 0.289031 0.518384 0.182166
H4    H     H_    0.903662 0.710091 0.491959 0.222941
H5    H     H_    0.903269 0.284363 0.523848 0.210371
H6    H     H_    0.500437 0.122042 0.409972 0.184026
H7    H     H_    0.453428 0.902715 0.414652 0.179308
H8    H     H_    0.738719 0.445744 0.943405 0.228297
H9    H     H_    0.317498 0.327845 0.767710 0.197831
N1    N     N_R   0.439007 0.456871 0.850863 -0.406478
N2    N     N_1   0.484493 0.136106 0.653006 -0.230250
N3    N     N_1   0.597153 0.823329 0.643368 -0.157114
N4    N     N_1   0.253888 0.172163 0.595490 -0.276626
N5    N     N_1   0.319894 0.851037 0.618752 -0.233443
N6    N     N_1   0.738238 0.269753 0.328689 -0.130406
N7    N     N_1   0.311511 0.798918 0.346201 -0.096434
N8    N     N_1   0.282200 0.759777 0.182756 -0.149427
N9    N     N_R   0.444414 0.457399 0.147275 -0.403524
N10   N     N_3   0.500250 0.143650 0.501250 -0.321330
N11   N     N_3   0.500250 0.856350 0.501250 -0.330798
N12   N     N_1   0.633617 0.746148 0.834853 -0.168661
N13   N     N_1   0.133710 0.688234 0.635596 -0.133000
N14   N     N_1   0.138114 0.393196 0.645178 -0.183388
N15   N     N_1   0.813694 0.592421 0.359784 -0.128920
N16   N     N_1   0.932366 0.208652 0.408051 -0.030085
O1    O     O_R   0.317570 0.620260 0.500030 -0.458556
O2    O     O_2   0.230332 0.486135 0.850767 -0.376885
O3    O     O_2   0.241264 0.408305 0.153076 -0.350969
O4    O     O_2   0.646886 0.513464 0.145601 -0.351469
O5    O     O_R   0.317570 0.379740 0.500030 -0.468233
O6    O     O_R   0.499840 0.620290 0.417900 -0.458463
O7    O     O_R   0.499840 0.379710 0.417900 -0.479514
O8    O     O_R   0.682190 0.620260 0.500010 -0.424432
O9    O     O_R   0.682190 0.379740 0.500010 -0.425093
O10   O     O_R   0.499920 0.620230 0.582140 -0.507596
O11   O     O_R   0.499920 0.379770 0.582140 -0.495169
O12   O     O_2   0.646252 0.406602 0.849809 -0.415482

loop_
_geom_bond_atom_site_label_1
_geom_bond_atom_site_label_2
_ccdc_geom_bond_type
C28   C47   S    
C34   C56   A    
C18   H2    S    
C21   Cl10  S    
C49   N5    T    
C52   N8    T    
C9    N9    S    
C26   C44   S    
C7    C8    A    
C41   N13   T    
C53   C54   A    
C12   C23   A    
C37   C38   A    
C20   H4    S    
C18   C24   S    
C47   N3    T    
C22   C24   S    
C19   H3    S    
C19   C21   S    
C56   O3    S    
C30   N11   S    
C38   C39   A    
Cu2   O9    S    
C20   C25   S    
C2    O4    S    
C10   C17   A    
C1    O5    A    
C12   C37   A    
C23   Cl13  S    
C38   C45   A    
C16   O9    A    
C44   N16   T    
C56   N9    A    
C39   C55   A    
Cu1   O10   S    
C8    C9    A    
C21   H5    S    
C55   H8    S    
C8    C52   S    
C18   C20   S    
C19   C42   S    
C16   O8    A    
C32   N11   S    
C45   C53   A    
C13   C14   A    
C1    O1    A    
C33   O10   A    
C26   C43   S    
C22   Cl11  S    
C29   C48   S    
C2    C53   A    
C20   Cl9   S    
C4    C6    S    
C18   C41   S    
C35   N1    A    
Cu1   O6    S    
C25   C26   S    
C10   H9    S    
C28   N11   S    
C17   N1    S    
C35   C39   A    
C13   C33   S    
C29   C30   S    
C3    C9    A    
C32   H7    S    
Cu2   O7    S    
C31   C32   S    
C29   Cl4   S    
C23   C34   A    
C14   Cl8   S    
C27   N10   S    
C36   O2    S    
C34   C45   A    
Cu2   O11   S    
C35   O12   S    
C22   Cl12  S    
C27   Cl14  S    
C46   N2    T    
Cu1   N11   S    
C27   C46   S    
C30   C49   S    
Cu1   O8    S    
C42   N14   T    
C5    C50   S    
C28   Cl15  S    
C33   O11   A    
C12   Cl1   S    
C31   Cl2   S    
C16   C25   S    
C15   C17   A    
C21   C25   S    
C54   C55   A    
C36   C37   A    
C43   N15   T    
Cu2   N10   S    
C40   N12   T    
Cu1   Cu2   S    
C3    C5    A    
C11   H1    S    
C31   H6    S    
C6    C7    A    
C3    Cl7   S    
C54   Cl6   S    
C4    O7    A    
C19   C24   S    
C7    C51   S    
C51   N7    T    
C11   C13   A    
C5    C6    A    
C4    O6    A    
C48   N4    T    
C2    N9    A    
C15   C40   S    
C10   C11   A    
Cu2   O5    S    
C1    C24   S    
C31   N10   S    
C22   C26   S    
C30   Cl5   S    
C27   C28   S    
C14   C15   A    
C50   N6    T    
C36   N1    A    
C32   Cl3   S    
C29   N10   S    
Cu1   O1    S    
