data_mof_unit_57125.cif
_audit_creation_date              2012-12-10T16:43:00-0500
_audit_creation_method            fapswitch 2.2
_symmetry_space_group_name_H-M    P1
_symmetry_Int_Tables_number       1
_space_group_crystal_system       triclinic
_cell_length_a                    7.462392
_cell_length_b                    8.679792
_cell_length_c                    12.954757
_cell_angle_alpha                 88.088625
_cell_angle_beta                  79.352218
_cell_angle_gamma                 102.782538
_cell_volume                      801.803996914

loop_
_atom_site_label
_atom_site_type_symbol
_atom_type_description
_atom_site_fract_x
_atom_site_fract_y
_atom_site_fract_z
_atom_type_partial_charge
C1    C     C_R   0.452817 0.199722 0.503210 0.888212
C2    C     C_R   0.547183 0.800278 0.496790 0.888212
C3    C     C_R   0.466519 0.494174 0.701263 0.822702
C4    C     C_R   0.533481 0.505825 0.298737 0.822702
C5    C     C_R   0.552617 0.515617 0.185249 -0.090973
C6    C     C_R   0.447383 0.484383 0.814751 -0.090973
C7    C     C_R   0.258822 0.392756 0.987509 0.172523
C8    C     C_R   0.741178 0.607244 0.012491 0.172523
C9    C     C_R   0.277004 0.406513 0.878871 -0.164937
C10   C     C_R   0.722996 0.593487 0.121129 -0.164937
C11   C     C_R   0.601037 0.550236 0.858659 -0.216497
C12   C     C_R   0.398963 0.449764 0.141341 -0.216497
C13   C     C_R   0.586635 0.539927 0.967348 0.093062
C14   C     C_R   0.413365 0.460072 0.032652 0.093061
C15   C     C_2   0.426231 0.031857 0.504790 -0.347559
C16   C     C_2   0.573769 0.968143 0.495210 -0.347559
Cu1   Cu    Cu3+1 0.686350 0.517570 0.488220 0.974516
Cu2   Cu    Cu3+1 0.313650 0.482430 0.511780 0.974516
H1    H     H_    0.269221 0.389875 0.192865 0.190044
H2    H     H_    0.730779 0.610125 0.807135 0.190044
H3    H     H_    0.841723 0.646089 0.155604 0.183651
H4    H     H_    0.158277 0.353911 0.844396 0.183651
H5    H     H_    0.934114 0.376562 0.583134 0.228991
H6    H     H_    0.065886 0.623437 0.416866 0.228991
H7    H     H_    0.283986 0.960342 0.513850 0.182501
H8    H     H_    0.716014 0.039657 0.486150 0.182501
N1    N     N_2   0.033570 0.455950 0.529530 -0.212949
N2    N     N_2   0.966430 0.544050 0.470470 -0.212949
O1    O     O_R   0.621060 0.286250 0.492350 -0.581881
O2    O     O_R   0.378940 0.713750 0.507650 -0.581881
O3    O     O_R   0.306310 0.256580 0.512240 -0.585617
O4    O     O_R   0.693690 0.743420 0.487760 -0.585617
O5    O     O_R   0.631800 0.512400 0.642670 -0.593623
O6    O     O_R   0.368200 0.487600 0.357330 -0.593623
O7    O     O_R   0.317060 0.482730 0.662570 -0.577021
O8    O     O_R   0.682940 0.517270 0.337430 -0.577021
I1    I     I_    0.993972 0.265928 0.075477 -0.365144
I2    I     I_    0.006028 0.734072 0.924523 -0.365144

loop_
_geom_bond_atom_site_label_1
_geom_bond_atom_site_label_2
_ccdc_geom_bond_type
C4    O8    A    
C8    C13   A    
C1    C15   S    
Cu1   O8    S    
H5    N1    S    
Cu1   O1    S    
Cu2   O7    S    
C3    O7    A    
C2    O2    A    
C3    C6    S    
C6    C9    A    
C1    O1    A    
Cu1   Cu2   S    
C7    I1    S    
C5    C10   A    
C13   C14   A    
C11   C13   A    
C6    C11   A    
Cu1   O5    S    
Cu2   O6    S    
Cu2   O2    S    
C12   H1    S    
C2    O4    A    
C12   C14   A    
C8    I2    S    
C10   H3    S    
C16   H8    S    
C11   H2    S    
C4    O6    A    
C9    H4    S    
C15   H7    S    
C3    O5    A    
C15   C16   D    
C1    O3    A    
C2    C16   S    
C5    C12   A    
C8    C10   A    
N1    N2    D    
C7    C9    A    
Cu1   O4    S    
Cu2   O3    S    
Cu1   N2    S    
C7    C14   A    
Cu2   N1    S    
H6    N2    S    
C4    C5    S    
