data_mof_unit_7181.cif
_audit_creation_date              2012-12-11T16:48:26-0500
_audit_creation_method            fapswitch 2.2
_symmetry_space_group_name_H-M    P1
_symmetry_Int_Tables_number       1
_space_group_crystal_system       triclinic
_cell_length_a                    17.339361
_cell_length_b                    24.314434
_cell_length_c                    14.970156
_cell_angle_alpha                 89.65273
_cell_angle_beta                  125.331501
_cell_angle_gamma                 90.191326
_cell_volume                      5148.844958

loop_
_atom_site_label
_atom_site_type_symbol
_atom_type_description
_atom_site_fract_x
_atom_site_fract_y
_atom_site_fract_z
_atom_type_partial_charge
C1    C     C_R   0.353265 0.347781 0.909416 -0.145500
C2    C     C_R   0.436546 0.497648 0.634732 0.076419
C3    C     C_R   0.056477 0.847554 0.908722 -0.110612
C4    C     C_R   0.381057 0.315590 0.999349 0.070524
C5    C     C_R   0.615115 0.315282 0.000648 0.066823
C6    C     C_R   0.881056 0.815590 0.999348 0.070521
C7    C     C_R   0.115115 0.815282 0.000648 0.066823
C8    C     C_3   0.830322 0.264903 0.387546 -0.237670
C9    C     C_3   0.128573 0.282419 0.616787 -0.228471
C10   C     C_3   0.330323 0.764904 0.387545 -0.237677
C11   C     C_3   0.628541 0.782431 0.616793 -0.228497
C12   C     C_3   0.966231 0.397439 0.436720 -0.325220
C13   C     C_R   0.961901 0.996894 0.288345 0.107382
C14   C     C_3   0.999810 0.391309 0.728984 -0.234945
C15   C     C_3   0.466230 0.897442 0.436714 -0.325237
C16   C     C_3   0.499810 0.891306 0.728979 -0.234967
C17   C     C_R   0.936546 0.997647 0.634732 0.076418
C18   C     C_R   0.174760 0.498367 0.699480 0.241549
C19   C     C_R   0.798416 0.496064 0.366339 0.220719
C20   C     C_R   0.674760 0.998367 0.699479 0.241547
C21   C     C_R   0.298416 0.996064 0.366338 0.220717
C22   C     C_2   0.928348 0.449904 0.532298 0.504699
C23   C     C_2   0.022031 0.458629 0.635157 0.533954
C24   C     C_2   0.428349 0.949904 0.532297 0.504699
C25   C     C_R   0.643947 0.347138 0.090754 -0.162108
C26   C     C_2   0.522031 0.958628 0.635156 0.533958
C27   C     C_2   0.871125 0.493822 0.483551 -0.428642
C28   C     C_2   0.073257 0.498433 0.630223 -0.447786
C29   C     C_2   0.371125 0.993822 0.483550 -0.428640
C30   C     C_2   0.573257 0.998433 0.630222 -0.447782
C31   C     C_R   0.262004 0.691508 0.099151 0.099657
C32   C     C_R   0.738600 0.687905 0.897011 0.110565
C33   C     C_R   0.762004 0.191508 0.099151 0.099660
C34   C     C_R   0.238607 0.187902 0.897015 0.110567
C35   C     C_R   0.249360 0.677497 0.000971 0.057748
C36   C     C_R   0.853264 0.847781 0.909416 -0.145503
C37   C     C_R   0.760231 0.665845 0.995740 0.052750
C38   C     C_R   0.749360 0.177497 0.000971 0.057747
C39   C     C_R   0.260233 0.165845 0.995743 0.052748
C40   C     C_R   0.162335 0.690924 0.902625 -0.203661
C41   C     C_R   0.846850 0.680864 0.092929 -0.202537
C42   C     C_R   0.662335 0.190924 0.902625 -0.203661
C43   C     C_R   0.346849 0.180866 0.092933 -0.202537
C44   C     C_R   0.605043 0.230809 0.903302 -0.155869
C45   C     C_R   0.395933 0.226816 0.093158 -0.146357
C46   C     C_R   0.105042 0.730809 0.903301 -0.155873
C47   C     C_R   0.143947 0.847138 0.090753 -0.162108
C48   C     C_R   0.895933 0.726814 0.093154 -0.146358
C49   C     C_R   0.636197 0.257257 0.002205 -0.023174
C50   C     C_R   0.358466 0.257303 0.995989 -0.031037
C51   C     C_R   0.136197 0.757257 0.002205 -0.023173
C52   C     C_R   0.858463 0.757304 0.995986 -0.031038
C53   C     C_R   0.410234 0.634199 0.090552 -0.136960
C54   C     C_R   0.599446 0.622238 0.908716 -0.139571
C55   C     C_R   0.910234 0.134199 0.090552 -0.136960
C56   C     C_R   0.099446 0.122239 0.908716 -0.139573
C57   C     C_R   0.705251 0.230578 0.100037 0.105188
C58   C     C_R   0.324017 0.651294 0.999792 0.077096
C59   C     C_R   0.287479 0.232793 0.896981 0.096278
C60   C     C_R   0.205251 0.730578 0.100037 0.105186
C61   C     C_R   0.787470 0.732796 0.896978 0.096274
C62   C     C_3   0.784356 0.250632 0.211063 0.490332
C63   C     C_3   0.200697 0.256798 0.796414 0.469302
C64   C     C_3   0.284356 0.750632 0.211062 0.490333
C65   C     C_3   0.700685 0.756805 0.796421 0.469306
C66   C     C_3   0.346770 0.708304 0.208703 -0.681222
C67   C     C_3   0.647082 0.707890 0.797012 -0.680459
C68   C     C_3   0.846770 0.208304 0.208703 -0.681225
C69   C     C_R   0.687704 0.637345 0.999433 0.076004
C70   C     C_3   0.147092 0.207884 0.797006 -0.680454
C71   C     C_R   0.405553 0.444510 0.476903 0.112067
C72   C     C_R   0.415890 0.444660 0.392478 0.006342
C73   C     C_R   0.905553 0.944510 0.476903 0.112071
C74   C     C_R   0.915890 0.944660 0.392479 0.006342
C75   C     C_R   0.401635 0.494539 0.520270 0.002557
C76   C     C_R   0.418216 0.494291 0.346540 0.071656
C77   C     C_R   0.901636 0.994539 0.520270 0.002556
C78   C     C_R   0.918216 0.994291 0.346540 0.071656
C79   C     C_R   0.380082 0.542605 0.457217 -0.163800
C80   C     C_R   0.824018 0.151294 0.999792 0.077097
C81   C     C_R   0.387888 0.542350 0.369418 -0.188542
C82   C     C_R   0.880082 0.042605 0.457217 -0.163799
C83   C     C_R   0.887888 0.042350 0.369418 -0.188543
C84   C     C_3   0.482006 0.396381 0.438396 0.193821
C85   C     C_3   0.469712 0.395641 0.530422 0.182557
C86   C     C_3   0.982007 0.896382 0.438396 0.193820
C87   C     C_3   0.969713 0.895641 0.530423 0.182550
C88   C     C_R   0.483902 0.452072 0.251432 -0.039417
C89   C     C_R   0.451642 0.452838 0.698945 -0.165824
C90   C     C_R   0.983902 0.952073 0.251432 -0.039414
C91   C     C_R   0.187704 0.137345 0.999434 0.076005
C92   C     C_R   0.951642 0.952838 0.698945 -0.165823
C93   C     C_R   0.230491 0.544593 0.729323 -0.172539
C94   C     C_R   0.753388 0.543165 0.305436 -0.186898
C95   C     C_R   0.730491 0.044593 0.729323 -0.172537
C96   C     C_R   0.253388 0.043165 0.305436 -0.186899
C97   C     C_R   0.492707 0.543633 0.264010 -0.139804
C98   C     C_R   0.451691 0.544223 0.696171 -0.129893
C99   C     C_R   0.992707 0.043633 0.264010 -0.139804
C100  C     C_R   0.951691 0.044223 0.696171 -0.129892
C101  C     C_R   0.232478 0.452529 0.737790 -0.069377
C102  C     C_R   0.461901 0.496894 0.288345 0.107383
C103  C     C_R   0.750747 0.451792 0.300460 -0.076620
C104  C     C_R   0.732478 0.952529 0.737790 -0.069376
C105  C     C_R   0.250747 0.951792 0.300460 -0.076619
C106  C     C_R   0.318558 0.634331 0.908107 -0.127335
C107  C     C_R   0.690114 0.624669 0.091995 -0.129208
C108  C     C_R   0.818558 0.134331 0.908107 -0.127335
C109  C     C_R   0.190113 0.124669 0.091996 -0.129208
C110  C     C_R   0.442649 0.347034 0.091064 -0.130844
C111  C     C_R   0.556477 0.347554 0.908722 -0.110611
C112  C     C_R   0.942649 0.847034 0.091063 -0.130845
H1    H     H_    0.320193 0.333960 0.826539 0.135506
H2    H     H_    0.870472 0.662154 0.170576 0.126451
H3    H     H_    0.643299 0.176050 0.824393 0.125449
H4    H     H_    0.370469 0.162157 0.170580 0.126450
H5    H     H_    0.545373 0.245894 0.825324 0.131258
H6    H     H_    0.455566 0.241737 0.171064 0.129344
H7    H     H_    0.045373 0.745894 0.825324 0.131257
H8    H     H_    0.955568 0.741734 0.171059 0.129346
H9    H     H_    0.807429 0.293655 0.212155 0.003464
H10   H     H_    0.179502 0.296978 0.811884 0.041616
H11   H     H_    0.307429 0.793655 0.212154 0.003466
H12   H     H_    0.674340 0.333036 0.173184 0.116217
H13   H     H_    0.679496 0.796984 0.811903 0.041620
H14   H     H_    0.402681 0.728006 0.204688 0.167650
H15   H     H_    0.594552 0.720251 0.813205 0.168609
H16   H     H_    0.902681 0.228007 0.204688 0.167649
H17   H     H_    0.094557 0.220246 0.813189 0.168606
H18   H     H_    0.371595 0.675365 0.271427 0.218327
H19   H     H_    0.619684 0.679888 0.726189 0.225874
H20   H     H_    0.871595 0.175364 0.271427 0.218326
H21   H     H_    0.119701 0.179878 0.726189 0.225877
H22   H     H_    0.369013 0.581511 0.482853 0.130168
H23   H     H_    0.820192 0.833960 0.826539 0.135520
H24   H     H_    0.381308 0.580847 0.329049 0.127129
H25   H     H_    0.869013 0.081511 0.482853 0.130168
H26   H     H_    0.881308 0.080846 0.329049 0.127129
H27   H     H_    0.453890 0.359658 0.384180 0.084378
H28   H     H_    0.535594 0.403813 0.613116 0.100006
H29   H     H_    0.953891 0.859658 0.384180 0.084381
H30   H     H_    0.035595 0.903814 0.613117 0.100005
H31   H     H_    0.442491 0.645135 0.173921 0.108361
H32   H     H_    0.574383 0.623296 0.824124 0.120606
H33   H     H_    0.942491 0.145136 0.173921 0.108361
H34   H     H_    0.174340 0.833036 0.173184 0.116218
H35   H     H_    0.074383 0.123297 0.824124 0.120605
H36   H     H_    0.469335 0.409377 0.255198 0.096837
H37   H     H_    0.430266 0.410935 0.672752 0.150498
H38   H     H_    0.969335 0.909377 0.255198 0.096837
H39   H     H_    0.930266 0.910935 0.672752 0.150499
H40   H     H_    0.206195 0.585938 0.701059 0.098397
H41   H     H_    0.763921 0.584350 0.337563 0.110003
H42   H     H_    0.706195 0.085938 0.701059 0.098397
H43   H     H_    0.263921 0.084350 0.337563 0.110003
H44   H     H_    0.495721 0.584477 0.292837 0.093946
H45   H     H_    0.888381 0.532272 0.528112 0.119907
H46   H     H_    0.433268 0.586055 0.666277 0.085633
H47   H     H_    0.995721 0.084477 0.292837 0.093945
H48   H     H_    0.933268 0.086055 0.666278 0.085633
H49   H     H_    0.212210 0.409761 0.722929 0.124569
H50   H     H_    0.753837 0.409664 0.325416 0.148451
H51   H     H_    0.712210 0.909761 0.722928 0.124572
H52   H     H_    0.253837 0.909664 0.325416 0.148451
H53   H     H_    0.265820 0.645919 0.824642 0.085808
H54   H     H_    0.748125 0.630203 0.176820 0.098763
H55   H     H_    0.765820 0.145919 0.824642 0.085808
H56   H     H_    0.040792 0.529121 0.565113 0.117509
H57   H     H_    0.248124 0.130203 0.176820 0.098762
H58   H     H_    0.488740 0.332353 0.174466 0.091490
H59   H     H_    0.511334 0.334186 0.824618 0.098362
H60   H     H_    0.988739 0.832353 0.174465 0.091491
H61   H     H_    0.011334 0.834186 0.824618 0.098362
H62   H     H_    0.814357 0.309584 0.378031 0.173844
H63   H     H_    0.904661 0.257641 0.416110 0.131341
H64   H     H_    0.822671 0.248867 0.451562 0.164888
H65   H     H_    0.125893 0.326241 0.635228 0.145512
H66   H     H_    0.061916 0.261245 0.591483 0.138861
H67   H     H_    0.388381 0.032272 0.528113 0.119908
H68   H     H_    0.134252 0.281226 0.546734 0.167048
H69   H     H_    0.314358 0.809586 0.378030 0.173846
H70   H     H_    0.404661 0.757642 0.416108 0.131343
H71   H     H_    0.322673 0.748868 0.451562 0.164887
H72   H     H_    0.625852 0.826250 0.635242 0.145552
H73   H     H_    0.561891 0.761250 0.591490 0.138867
H74   H     H_    0.634216 0.781247 0.546736 0.167046
H75   H     H_    0.611587 0.376432 0.502750 0.310540
H76   H     H_    0.466765 0.319408 0.563810 0.309830
H77   H     H_    0.111589 0.876433 0.502757 0.310540
H78   H     H_    0.540792 0.029121 0.565112 0.117508
H79   H     H_    0.966767 0.819408 0.563811 0.309830
H80   H     H_    0.043006 0.396251 0.503500 0.151024
H81   H     H_    0.950717 0.432377 0.380229 0.158776
H82   H     H_    0.948503 0.358964 0.389193 0.160571
H83   H     H_    0.962313 0.359653 0.664119 0.170994
H84   H     H_    0.948686 0.419691 0.727301 0.130656
H85   H     H_    0.038707 0.369425 0.808894 0.159872
H86   H     H_    0.543006 0.896257 0.503491 0.151021
H87   H     H_    0.450711 0.932380 0.380221 0.158783
H88   H     H_    0.448505 0.858966 0.389189 0.160576
H89   H     H_    0.143299 0.676050 0.824392 0.125448
H90   H     H_    0.462319 0.859650 0.664115 0.170994
H91   H     H_    0.448683 0.919686 0.727293 0.130666
H92   H     H_    0.538706 0.869422 0.808889 0.159873
N1    N     N_R   0.395410 0.396350 0.944340 -0.039066
N2    N     N_R   0.474920 0.471030 0.794350 -0.041247
N3    N     N_R   0.025080 0.971030 0.205650 -0.052953
N4    N     N_R   0.974920 0.971030 0.794350 -0.041247
N5    N     N_R   0.320260 0.527820 0.794570 -0.044896
N6    N     N_R   0.679740 0.527820 0.205430 -0.044156
N7    N     N_R   0.820260 0.027820 0.794570 -0.044896
N8    N     N_R   0.179740 0.027820 0.205430 -0.044156
N9    N     N_R   0.524590 0.527840 0.205200 -0.042716
N10   N     N_R   0.475410 0.527840 0.794800 -0.040105
N11   N     N_R   0.024590 0.027840 0.205200 -0.042716
N12   N     N_R   0.604590 0.396350 0.055660 -0.041175
N13   N     N_R   0.975410 0.027840 0.794800 -0.040105
N14   N     N_R   0.320750 0.471000 0.795020 -0.060173
N15   N     N_R   0.679250 0.471000 0.204980 -0.062656
N16   N     N_R   0.820750 0.971000 0.795020 -0.060173
N17   N     N_R   0.179250 0.971000 0.204980 -0.062656
N18   N     N_R   0.393620 0.602490 0.942710 -0.039259
N19   N     N_R   0.606380 0.602490 0.057290 -0.040864
N20   N     N_R   0.893620 0.102490 0.942710 -0.039259
N21   N     N_R   0.106380 0.102490 0.057290 -0.040864
N22   N     N_R   0.451720 0.396350 0.057510 -0.043474
N23   N     N_R   0.895410 0.896350 0.944340 -0.039067
N24   N     N_R   0.548280 0.396350 0.942490 -0.040634
N25   N     N_R   0.951720 0.896350 0.057510 -0.043474
N26   N     N_R   0.048280 0.896350 0.942490 -0.040634
N27   N     N_R   0.104590 0.896350 0.055660 -0.041175
N28   N     N_R   0.449930 0.602500 0.055880 -0.041301
N29   N     N_R   0.550070 0.602500 0.944120 -0.045268
N30   N     N_R   0.949930 0.102500 0.055880 -0.041301
N31   N     N_R   0.050070 0.102500 0.944120 -0.045267
N32   N     N_R   0.525080 0.471030 0.205650 -0.052952
Ni1   Ni    Ni4+2 0.435420 0.434270 0.870230 0.217848
Ni2   Ni    Ni4+2 0.564580 0.434270 0.129770 0.214839
Ni3   Ni    Ni4+2 0.935420 0.934270 0.870230 0.217850
Ni4   Ni    Ni4+2 0.064580 0.934270 0.129770 0.214840
Ni5   Ni    Ni4+2 0.563430 0.564580 0.128740 0.217785
Ni6   Ni    Ni4+2 0.436570 0.564580 0.871260 0.210461
Ni7   Ni    Ni4+2 0.063430 0.064580 0.128740 0.217785
Ni8   Ni    Ni4+2 0.936570 0.064580 0.871260 0.210461
O1    O     O_3   0.765480 0.237428 0.288761 -0.599908
O2    O     O_3   0.065891 0.419922 0.719901 -0.621896
O3    O     O_3   0.411068 0.900324 0.478335 -0.640368
O4    O     O_3   0.565891 0.919922 0.719901 -0.621902
O5    O     O_3   0.207997 0.255852 0.707206 -0.595727
O6    O     O_3   0.265481 0.737429 0.288761 -0.599908
O7    O     O_3   0.707973 0.755866 0.707204 -0.595731
O8    O     O_3   0.574468 0.411040 0.476167 -0.754710
O9    O     O_3   0.419372 0.349275 0.525907 -0.766824
O10   O     O_3   0.074469 0.911040 0.476167 -0.754709
O11   O     O_3   0.919373 0.849275 0.525908 -0.766822
O12   O     O_3   0.911066 0.400324 0.478338 -0.640365

loop_
_geom_bond_atom_site_label_1
_geom_bond_atom_site_label_2
_ccdc_geom_bond_type
C44   C49   A    
C45   H6    S    
C31   C66   S    
C54   H32   S    
C14   H83   S    
N22   Ni2   S    
C99   H47   S    
C13   C90   A    
C84   O8    S    
C11   H74   S    
C73   C74   A    
C34   C39   A    
N9    Ni5   S    
C41   H2    S    
C72   C76   A    
C104  H51   S    
C69   C107  A    
C8    H63   S    
C57   C62   S    
C48   H8    S    
C20   C30   S    
C40   C46   A    
N7    N16   A    
N19   Ni5   S    
N12   N24   A    
C1    H1    S    
C35   C58   S    
C12   O12   S    
N5    N14   A    
C77   C82   A    
N15   Ni2   S    
H76   O9    S    
C24   C26   S    
C32   C61   A    
C38   C42   A    
C82   H25   S    
C37   C69   S    
C52   C61   A    
C108  N20   A    
C8    H62   S    
C55   H33   S    
C96   H43   S    
C47   N27   A    
N32   Ni2   S    
C49   C57   A    
N4    Ni3   S    
C12   H81   S    
C97   H44   S    
H75   O8    S    
C68   H20   S    
N20   N30   A    
C24   C29   D    
C73   C87   S    
C4    C110  A    
N19   N29   A    
C71   C85   S    
C19   C103  A    
C101  N14   A    
C3    H61   S    
C56   C91   A    
C104  N16   A    
C98   H46   S    
C84   H27   S    
C26   O4    S    
C65   C67   S    
C70   H21   S    
C9    H66   S    
N16   Ni3   S    
H77   O10   S    
C16   H91   S    
C1    N1    A    
C68   H16   S    
C22   O12   S    
C97   C102  A    
C90   H38   S    
N30   Ni7   S    
N2    N10   A    
C89   H37   S    
C98   N10   A    
C47   H34   S    
N18   N28   A    
N8    Ni7   S    
N29   Ni6   S    
C97   N9    A    
C10   H71   S    
C53   H31   S    
C5    C49   S    
N26   Ni3   S    
C112  H60   S    
C17   C92   A    
C42   C44   A    
C16   H90   S    
C78   C83   A    
C3    N26   A    
C39   C91   S    
C19   C27   S    
C99   N11   A    
C109  H57   S    
C60   C64   S    
C107  N19   A    
N8    N17   A    
C16   O4    S    
C76   C102  S    
C12   H80   S    
C14   H85   S    
C67   H19   S    
C11   H72   S    
N17   Ni4   S    
N28   Ni5   S    
N21   N31   A    
C106  H53   S    
C18   C28   S    
C84   C85   S    
C110  N22   A    
C79   C81   A    
C15   H86   S    
C109  N21   A    
C34   C70   S    
N20   Ni8   S    
C62   O1    S    
C39   C43   A    
C5    C111  A    
C21   C96   A    
C23   C28   D    
C21   C29   S    
C46   C51   A    
C70   H17   S    
H79   O11   S    
N6    N15   A    
C66   H14   S    
C4    C50   S    
N27   Ni4   S    
C10   O6    S    
C18   C101  A    
C65   H13   S    
C31   C60   A    
C13   C99   A    
C2    C89   A    
C9    O5    S    
C92   N4    A    
C67   H15   S    
C43   H4    S    
C15   H87   S    
C17   C77   S    
C100  H48   S    
C89   N2    A    
C63   C70   S    
C48   C52   A    
N23   Ni3   S    
C92   H39   S    
N3    N11   A    
C88   H36   S    
C105  H52   S    
N1    N22   A    
C56   N31   A    
C32   C37   A    
C74   C86   S    
N25   Ni4   S    
N1    Ni1   S    
C43   C45   A    
C85   H28   S    
C64   C66   S    
C25   H12   S    
C72   C84   S    
C9    H68   S    
N3    Ni4   S    
C32   C67   S    
C64   O6    S    
C15   H88   S    
C110  H58   S    
N23   N25   A    
C20   C95   A    
C15   O3    S    
C8    O1    S    
C26   C30   D    
C36   N23   A    
C22   C27   D    
C65   O7    S    
C93   N5    A    
C34   C59   A    
C10   H70   S    
C88   N32   A    
C5    C25   A    
C59   C63   S    
C51   C60   A    
C27   H45   S    
C50   C59   A    
C55   N30   A    
N9    N32   A    
C36   H23   S    
C63   H10   S    
C9    H65   S    
C86   C87   S    
C81   H24   S    
C86   H29   S    
N4    N13   A    
C18   C93   A    
C79   H22   S    
C14   H84   S    
C13   C78   S    
C14   O2    S    
C103  H50   S    
C33   C57   A    
C63   O5    S    
C11   H73   S    
N11   Ni7   S    
N7    Ni8   S    
C108  H55   S    
C25   N12   A    
C111  N24   A    
N21   Ni7   S    
N6    Ni5   S    
C93   H40   S    
C76   C81   A    
C100  N13   A    
N5    Ni6   S    
C88   C102  A    
C53   C58   A    
C8    H64   S    
C94   N6    A    
C20   C104  A    
C96   N8    A    
C86   O10   S    
C64   H11   S    
C7    C47   A    
C80   C108  A    
C28   H56   S    
C3    C7    A    
C33   C38   A    
N14   Ni1   S    
C62   C68   S    
N10   Ni6   S    
C1    C4    A    
N12   Ni2   S    
C95   H42   S    
C56   H35   S    
C101  H49   S    
C35   C40   A    
N13   Ni8   S    
C95   N7    A    
C71   C72   A    
N18   Ni6   S    
C29   H67   S    
C71   C75   A    
C55   C80   A    
C91   C109  A    
C106  N18   A    
C54   C69   A    
C38   C80   S    
C44   H5    S    
C23   O2    S    
C94   H41   S    
C105  N17   A    
C87   O11   S    
C41   C48   A    
C6    C36   A    
C46   H7    S    
N2    Ni1   S    
C31   C35   A    
C30   H78   S    
C87   H30   S    
C37   C41   A    
N26   N27   A    
C17   C100  A    
C11   O7    S    
N31   Ni8   S    
C107  H54   S    
C83   H26   S    
C112  N25   A    
C53   N28   A    
C7    C51   S    
C90   N3    A    
C61   C65   S    
C42   H3    S    
N24   Ni1   S    
C40   H89   S    
C2    C98   A    
C103  N15   A    
C82   C83   A    
C74   C78   A    
C58   C106  A    
C10   H69   S    
C73   C77   A    
C22   C23   S    
C24   O3    S    
C6    C112  A    
C45   C50   A    
C54   N29   A    
C6    C52   S    
C16   H92   S    
C75   C79   A    
C19   C94   A    
C62   H9    S    
C21   C105  A    
C2    C75   S    
C33   C68   S    
C12   H82   S    
C85   O9    S    
C66   H18   S    
C111  H59   S    
