data_mof_unit_32452.cif
_audit_creation_date              2012-12-10T17:02:56-0500
_audit_creation_method            fapswitch 2.2
_symmetry_space_group_name_H-M    P1
_symmetry_Int_Tables_number       1
_space_group_crystal_system       triclinic
_cell_length_a                    9.78386
_cell_length_b                    11.043038
_cell_length_c                    13.562227
_cell_angle_alpha                 94.107506
_cell_angle_beta                  82.180515
_cell_angle_gamma                 111.167196
_cell_volume                      1353.34016803

loop_
_atom_site_label
_atom_site_type_symbol
_atom_type_description
_atom_site_fract_x
_atom_site_fract_y
_atom_site_fract_z
_atom_type_partial_charge
C1    C     C_R   0.556488 0.745517 0.507306 0.872299
C2    C     C_R   0.436512 0.457469 0.968928 0.022605
C3    C     C_R   0.479645 0.455624 0.864751 0.015990
C4    C     C_R   0.544959 0.478302 0.035310 -0.071967
C5    C     C_R   0.696595 0.518813 0.996994 -0.010473
C6    C     C_R   0.735918 0.507921 0.894905 0.413587
C7    C     C_R   0.625840 0.461313 0.832439 -0.279158
C8    C     C_R   0.508778 0.457299 0.138391 0.399946
C9    C     C_R   0.767118 0.562937 0.163789 -0.312852
C10   C     C_R   0.376425 0.450876 0.797327 -0.161232
C11   C     C_2   0.588404 0.884552 0.511320 -0.358789
C12   C     C_R   0.421718 0.477494 0.689704 0.819620
C13   C     C_2   0.483997 0.930539 0.498014 -0.155947
C14   C     C_2   0.411644 0.115473 0.488188 -0.361418
C15   C     C_2   0.515858 0.069419 0.501794 -0.155980
C16   C     C_2   0.921129 0.488370 0.492784 -0.067395
C17   C     C_2   0.078480 0.511178 0.507330 -0.071848
C18   C     C_R   0.443565 0.254489 0.492494 0.855349
C19   C     C_R   0.576269 0.508535 0.310116 0.834206
C20   C     C_R   0.806153 0.562342 0.061705 -0.132671
C21   C     C_R   0.618860 0.509831 0.202659 -0.148718
C22   C     C_R   0.228738 0.427999 0.834712 -0.269241
C23   C     C_R   0.184135 0.421226 0.936594 0.456963
C24   C     C_R   0.288907 0.445274 0.002832 -0.239023
Cu1   Cu    Cu3+1 0.362000 0.479240 0.482530 0.954183
Cu2   Cu    Cu3+1 0.638000 0.520760 0.517470 0.927686
H1    H     H_    0.853104 0.601089 0.212315 0.183838
H2    H     H_    0.374120 0.865555 0.484201 0.180078
H3    H     H_    0.302124 0.050303 0.473943 0.148748
H4    H     H_    0.698084 0.949816 0.525131 0.148459
H5    H     H_    0.130191 0.582899 0.562575 0.156296
H6    H     H_    0.869122 0.416136 0.437745 0.158560
H7    H     H_    0.103248 0.380748 0.403837 0.200273
H8    H     H_    0.898937 0.622555 0.593272 0.189080
H9    H     H_    0.922381 0.596447 0.033815 0.211005
H10   H     H_    0.147369 0.418088 0.784989 0.196308
H11   H     H_    0.251868 0.457717 0.080112 0.207014
H12   H     H_    0.660083 0.429963 0.759453 0.204987
H13   H     H_    0.625579 0.134368 0.515968 0.180691
N1    N     N_2   0.845330 0.551960 0.543750 -0.290264
N2    N     N_2   0.154690 0.448120 0.456210 -0.282511
O1    O     O_R   0.426290 0.668220 0.490680 -0.580481
O2    O     O_R   0.659360 0.703290 0.520190 -0.576340
O3    O     O_R   0.326580 0.473880 0.629020 -0.584181
O4    O     O_R   0.559660 0.508940 0.658530 -0.588568
O5    O     O_R   0.340640 0.296710 0.479810 -0.581555
O6    O     O_R   0.573710 0.331780 0.509320 -0.585510
O7    O     O_R   0.440340 0.491060 0.341470 -0.520706
O8    O     O_R   0.673420 0.526120 0.370980 -0.592872
O9    O     O_3   0.881003 0.530213 0.856497 -0.551668
C25   C     C_3   0.946102 0.660858 0.827127 0.060260
H14   H     H_    0.932955 0.729326 0.889074 0.128073
H15   H     H_    0.895730 0.676748 0.762801 0.136167
C26   C     C_3   0.110497 0.692874 0.796717 -0.791404
H16   H     H_    0.128559 0.625790 0.735868 0.243373
H17   H     H_    0.161896 0.794126 0.770374 0.195040
H18   H     H_    0.164022 0.683119 0.861361 0.256328
O10   O     O_3   0.369573 0.376219 0.176378 -0.587521
C27   C     C_3   0.366774 0.247162 0.170674 0.072429
H19   H     H_    0.378887 0.213882 0.091554 0.142883
H20   H     H_    0.456061 0.237763 0.209187 0.130309
C28   C     C_3   0.219609 0.158877 0.221528 -0.795585
H21   H     H_    0.127818 0.163749 0.183974 0.231592
H22   H     H_    0.216239 0.057069 0.217724 0.197602
H23   H     H_    0.205090 0.189431 0.300898 0.258602
O11   O     O_3   0.038717 0.401878 0.971673 -0.554976
C29   C     C_3   0.967729 0.270264 0.997497 0.091141
H24   H     H_    0.018845 0.246159 0.058293 0.132825
H25   H     H_    0.973060 0.204866 0.931672 0.135761
C30   C     C_3   0.805993 0.244566 0.034218 -0.784890
H26   H     H_    0.751068 0.267440 0.975404 0.259350
H27   H     H_    0.749385 0.140650 0.052990 0.186997
H28   H     H_    0.796328 0.304940 0.101973 0.249244

loop_
_geom_bond_atom_site_label_1
_geom_bond_atom_site_label_2
_ccdc_geom_bond_type
Cu1   O1    S    
C2    C4    A    
C23   C24   A    
C13   H2    S    
C6    C7    A    
C12   O4    A    
C16   H6    S    
C22   H10   S    
C14   C18   S    
C9    C20   A    
C28   H22   S    
C28   H23   S    
C4    C8    A    
C25   C26   S    
H7    N2    S    
C18   O6    A    
C29   C30   S    
C30   H28   S    
C8    C21   A    
Cu1   Cu2   S    
C27   H19   S    
C12   O3    A    
C3    C10   A    
C10   C22   A    
C29   H25   S    
C11   C13   D    
C15   H13   S    
Cu2   N1    S    
C28   H21   S    
C8    O10   S    
C10   C12   S    
Cu2   O6    S    
C16   N1    D    
H8    N1    S    
C18   O5    A    
Cu1   O3    S    
C19   C21   S    
C7    H12   S    
Cu2   O2    S    
C24   H11   S    
C3    C7    A    
C13   C15   S    
C2    C24   A    
C5    C6    A    
C17   H5    S    
C26   H17   S    
C27   H20   S    
C17   N2    D    
C30   H27   S    
C14   H3    S    
C23   O11   S    
C29   H24   S    
C9    C21   A    
C1    O1    A    
C30   H26   S    
O11   C29   S    
C9    H1    S    
Cu2   O8    S    
Cu1   N2    S    
C5    C20   A    
C19   O8    A    
C26   H16   S    
C16   C17   S    
C27   C28   S    
C2    C3    A    
C19   O7    A    
Cu2   O4    S    
O9    C25   S    
O10   C27   S    
C14   C15   D    
C20   H9    S    
Cu1   O7    S    
Cu1   O5    S    
C1    O2    A    
C22   C23   A    
C6    O9    S    
C25   H14   S    
C11   H4    S    
C4    C5    A    
C25   H15   S    
C26   H18   S    
C1    C11   S    
