data_mof_unit_26776.cif
_audit_creation_date              2012-12-10T19:48:44-0500
_audit_creation_method            fapswitch 2.2
_symmetry_space_group_name_H-M    P1
_symmetry_Int_Tables_number       1
_space_group_crystal_system       triclinic
_cell_length_a                    13.136924
_cell_length_b                    14.210586
_cell_length_c                    14.939054
_cell_angle_alpha                 90.478675
_cell_angle_beta                  90.643084
_cell_angle_gamma                 70.997295
_cell_volume                      2636.68989461

loop_
_atom_site_label
_atom_site_type_symbol
_atom_type_description
_atom_site_fract_x
_atom_site_fract_y
_atom_site_fract_z
_atom_type_partial_charge
C1    C     C_R   0.500092 0.500237 0.671732 0.841405
C2    C     C_R   0.820797 0.411725 0.481325 -0.194582
C3    C     C_R   0.595183 0.487926 0.905172 -0.164609
C4    C     C_R   0.703822 0.445470 0.494190 0.990487
C5    C     C_R   0.594243 0.484222 0.812892 -0.235512
C6    C     C_R   0.496801 0.501756 0.766979 -0.104819
C7    C     C_R   0.398715 0.520180 0.812866 0.431397
C8    C     C_R   0.401180 0.522182 0.905518 -0.143995
C9    C     C_R   0.498545 0.507957 0.951139 0.013845
C10   C     C_R   0.432695 0.595082 0.094794 0.448748
C11   C     C_R   0.424424 0.589204 0.186991 0.422929
C12   C     C_R   0.981582 0.458118 0.462262 -0.057820
C13   C     C_R   0.490396 0.503377 0.231945 -0.220722
C14   C     C_R   0.557752 0.422296 0.184764 -0.264969
C15   C     C_R   0.561157 0.425785 0.092773 -0.207586
C16   C     C_R   0.496754 0.500793 0.327907 0.913658
C17   C     C_R   0.499189 0.511312 0.047649 -0.084667
C18   C     C_R   0.538398 0.883497 0.574414 -0.300182
C19   C     C_R   0.541555 0.783301 0.571891 0.605296
C20   C     C_R   0.467537 0.804922 0.425766 -0.081710
C21   C     C_R   0.474316 0.901610 0.422429 -0.281184
C22   C     C_R   0.508864 0.944040 0.498066 0.167604
C23   C     C_R   0.870853 0.479150 0.447774 -0.078978
C24   C     C_R   0.443064 0.120646 0.439605 -0.497557
C25   C     C_R   0.442908 0.219718 0.437495 0.668177
C26   C     C_R   0.570584 0.186688 0.555385 -0.228281
C27   C     C_R   0.581160 0.083399 0.554620 0.416035
C28   C     C_R   0.295832 0.554594 0.495503 0.903669
C29   C     C_R   0.511420 0.050438 0.498018 0.021398
C30   C     C_R   0.001037 0.711777 0.466614 0.528676
C31   C     C_R   0.179813 0.586362 0.477315 -0.148373
C32   C     C_R   0.883601 0.317859 0.515335 0.297122
C33   C     C_R   0.996348 0.293600 0.519955 0.437227
C34   C     C_R   0.025948 0.534842 0.449070 -0.137193
C35   C     C_R   0.043165 0.365191 0.498537 -0.257226
C36   C     C_3   0.699966 0.705000 0.643508 0.132346
C37   C     C_3   0.757017 0.614477 0.700068 -0.819823
C38   C     C_3   0.806469 0.767858 0.301519 0.117586
C39   C     C_3   0.709129 0.850296 0.265493 -0.825897
C40   C     C_3   0.410762 0.250895 0.285989 0.115228
C41   C     C_3   0.313700 0.238250 0.236995 -0.856579
C42   C     C_3   0.702087 0.047852 0.676581 0.069319
C43   C     C_3   0.766124 0.960171 0.733868 -0.807125
C44   C     C_3   0.973346 0.880718 0.447923 0.084288
C45   C     C_R   0.958382 0.634696 0.444074 -0.135734
C46   C     C_3   0.882336 0.978818 0.436773 -0.753859
C47   C     C_3   0.077345 0.127255 0.492508 0.085594
C48   C     C_3   0.189136 0.102624 0.453176 -0.853760
C49   C     C_R   0.852248 0.651995 0.412620 0.343960
C50   C     C_R   0.813052 0.570401 0.405028 0.365221
C51   C     C_R   0.136403 0.515056 0.445244 0.410945
C52   C     C_R   0.112008 0.684747 0.489704 -0.423060
H1    H     H_    0.146026 0.739304 0.515720 0.178481
H2    H     H_    0.621851 0.215124 0.596902 0.176253
H3    H     H_    0.127743 0.348069 0.514473 0.226282
H4    H     H_    0.670697 0.475600 0.940778 0.156219
H5    H     H_    0.308283 0.535337 0.705281 0.323570
H6    H     H_    0.403996 0.686399 0.993808 0.334211
H7    H     H_    0.329255 0.644912 0.286708 0.318055
H8    H     H_    0.716017 0.770529 0.673694 0.154155
H9    H     H_    0.735617 0.691320 0.575312 0.166770
H10   H     H_    0.844430 0.604296 0.703857 0.219153
H11   H     H_    0.723795 0.624680 0.768832 0.258622
H12   H     H_    0.669380 0.467406 0.777241 0.151123
H13   H     H_    0.746461 0.546936 0.669167 0.243204
H14   H     H_    0.821044 0.702319 0.255785 0.122451
H15   H     H_    0.877840 0.793412 0.299933 0.161704
H16   H     H_    0.689470 0.916574 0.310049 0.261372
H17   H     H_    0.726322 0.871801 0.197456 0.209659
H18   H     H_    0.638367 0.823905 0.261620 0.251119
H19   H     H_    0.480281 0.180439 0.280977 0.099878
H20   H     H_    0.434718 0.308050 0.249870 0.182446
H21   H     H_    0.284517 0.183432 0.271767 0.242145
H22   H     H_    0.247692 0.310632 0.233538 0.263371
H23   H     H_    0.326987 0.535688 0.942199 0.179450
H24   H     H_    0.336572 0.211377 0.167715 0.221816
H25   H     H_    0.634131 0.095613 0.717553 0.141977
H26   H     H_    0.756925 0.089710 0.657920 0.161190
H27   H     H_    0.801037 0.987330 0.792728 0.214013
H28   H     H_    0.712594 0.919480 0.757957 0.240014
H29   H     H_    0.832482 0.908684 0.694245 0.275958
H30   H     H_    0.013405 0.859465 0.381917 0.127367
H31   H     H_    0.031292 0.893137 0.497613 0.132766
H32   H     H_    0.846851 0.006549 0.502874 0.278235
H33   H     H_    0.913513 0.035017 0.406790 0.181147
H34   H     H_    0.608591 0.356731 0.219291 0.170862
H35   H     H_    0.818768 0.968707 0.392056 0.264056
H36   H     H_    0.157581 0.401947 0.364866 0.337400
H37   H     H_    0.885186 0.196475 0.577934 0.348425
H38   H     H_    0.016668 0.143442 0.436907 0.128966
H39   H     H_    0.072209 0.060166 0.527200 0.164650
H40   H     H_    0.250664 0.080900 0.507467 0.277276
H41   H     H_    0.203693 0.039923 0.404842 0.211795
H42   H     H_    0.196018 0.168698 0.417894 0.259552
H43   H     H_    0.687716 0.644859 0.332864 0.362474
H44   H     H_    0.611571 0.361393 0.056481 0.168546
H45   H     H_    0.559986 0.911983 0.636413 0.188424
H46   H     H_    0.439010 0.774878 0.367599 0.186201
H47   H     H_    0.453041 0.941693 0.360168 0.155758
H48   H     H_    0.390245 0.099407 0.394018 0.183597
N1    N     N_R   0.500000 0.747530 0.500020 -0.123287
N2    N     N_R   0.499940 0.252470 0.500020 -0.142332
O1    O     O_R   0.499990 0.420530 0.630930 -0.629110
O2    O     O_3   0.373509 0.682856 0.053470 -0.721461
O3    O     O_3   0.351671 0.668683 0.230522 -0.729875
O4    O     O_3   0.587974 0.720245 0.641693 -0.598304
O5    O     O_3   0.785952 0.746674 0.390535 -0.574331
O6    O     O_3   0.382310 0.285848 0.374526 -0.542547
O7    O     O_3   0.664933 0.011688 0.598713 -0.611414
O8    O     O_3   0.930353 0.807989 0.479093 -0.557259
O9    O     O_3   0.202039 0.429793 0.404315 -0.713282
O10   O     O_3   0.832588 0.254107 0.548023 -0.781860
O11   O     O_3   0.060626 0.204731 0.556544 -0.616276
O12   O     O_R   0.499990 0.579480 0.630940 -0.550858
O13   O     O_3   0.722389 0.576104 0.354392 -0.756456
O14   O     O_R   0.653620 0.381060 0.499970 -0.571266
O15   O     O_R   0.653620 0.540010 0.499980 -0.583782
O16   O     O_R   0.500010 0.420520 0.369060 -0.603243
O17   O     O_R   0.500010 0.579470 0.369070 -0.601597
O18   O     O_R   0.346380 0.459990 0.500020 -0.527301
O19   O     O_R   0.346380 0.618940 0.500030 -0.645101
O20   O     O_3   0.299984 0.536984 0.771024 -0.763002
Zn1   Zn    Zn3+2 0.500000 0.393860 0.499990 1.015748
Zn2   Zn    Zn3+2 0.500000 0.606140 0.500010 0.999676

loop_
_geom_bond_atom_site_label_1
_geom_bond_atom_site_label_2
_ccdc_geom_bond_type
O14   Zn1   S    
C27   C29   A    
C11   C13   A    
C39   H16   S    
C30   C45   A    
C31   C52   A    
C44   H31   S    
O1    Zn1   S    
C37   H10   S    
C7    C8    A    
C49   O5    S    
O17   Zn2   S    
C12   C23   A    
C26   C27   A    
H7    O3    S    
C48   H42   S    
C30   O8    S    
C36   C37   S    
C22   C29   S    
C42   O7    S    
C18   C19   A    
C44   H30   S    
C38   C39   S    
C21   H47   S    
C25   N2    A    
C10   C17   A    
C43   H27   S    
C2    C32   A    
C50   O13   S    
C38   O5    S    
C24   C29   A    
O19   Zn2   S    
H5    O20   S    
H36   O9    S    
C38   H14   S    
H43   O13   S    
C8    C9    A    
C37   H13   S    
C11   O3    S    
C18   H45   S    
C32   O10   S    
C1    O1    A    
O18   Zn1   S    
C40   O6    S    
C46   H33   S    
O12   Zn2   S    
C41   H22   S    
C24   H48   S    
C21   C22   A    
C26   H2    S    
C37   H11   S    
C44   C46   S    
N1    Zn2   S    
C48   H41   S    
C36   O4    S    
C1    C6    S    
C24   C25   A    
C14   H34   S    
C28   O18   A    
C16   O17   A    
C15   H44   S    
C4    O14   A    
C28   O19   A    
C23   C50   A    
C20   N1    A    
C3    C5    A    
C43   H28   S    
C35   H3    S    
C8    H23   S    
C34   C51   A    
C5    H12   S    
C2    C4    S    
C3    C9    A    
C16   O16   A    
C3    H4    S    
C47   C48   S    
H37   O10   S    
C45   C49   A    
C39   H17   S    
C34   C45   A    
C38   H15   S    
C12   C35   A    
C40   H19   S    
C46   H32   S    
C9    C17   S    
C40   C41   S    
C42   H26   S    
C48   H40   S    
C43   H29   S    
C47   H38   S    
C4    O15   A    
H6    O2    S    
C42   C43   S    
C7    O20   S    
C12   C34   A    
C36   H9    S    
C52   H1    S    
C46   H35   S    
C47   O11   S    
C30   C52   A    
C51   O9    S    
C40   H20   S    
C18   C22   A    
C47   H39   S    
O15   Zn2   S    
C28   C31   S    
C31   C51   A    
C36   H8    S    
C15   C17   A    
C6    C7    A    
C33   O11   S    
C32   C33   A    
C10   O2    S    
C26   N2    A    
C41   H24   S    
C19   N1    A    
C5    C6    A    
C33   C35   A    
C39   H18   S    
O16   Zn1   S    
C10   C11   A    
C41   H21   S    
C19   O4    S    
C20   H46   S    
C20   C21   A    
C27   O7    S    
C42   H25   S    
C49   C50   A    
C1    O12   A    
C13   C16   S    
C2    C23   A    
C14   C15   A    
C13   C14   A    
N2    Zn1   S    
C25   O6    S    
C44   O8    S    
