data_mof_unit_7683.cif
_audit_creation_date              2013-03-05T15:49:04-0500
_audit_creation_method            fapswitch 2.2
_symmetry_space_group_name_H-M    P1
_symmetry_Int_Tables_number       1
_space_group_crystal_system       triclinic
_cell_length_a                    10.667615
_cell_length_b                    12.991979
_cell_length_c                    11.684172
_cell_angle_alpha                 99.727385
_cell_angle_beta                  93.497255
_cell_angle_gamma                 90.187091
_cell_volume                      1592.94387541

loop_
_atom_site_label
_atom_site_type_symbol
_atom_site_description
_atom_site_fract_x
_atom_site_fract_y
_atom_site_fract_z
_atom_type_partial_charge
O1    O     O_R   0.506670 0.354460 0.582000 -0.554894
O2    O     O_R   0.493330 0.645540 0.418000 -0.539774
O3    O     O_R   0.490800 0.341410 0.386200 -0.606890
O4    O     O_R   0.509200 0.658590 0.613800 -0.613929
C1    C     C_R   0.495261 0.299541 0.478854 0.816807
C2    C     C_R   0.502540 0.700539 0.521110 0.865343
O5    O     O_R   0.324790 0.506500 0.597880 -0.610538
O6    O     O_R   0.675210 0.493500 0.402120 -0.604493
O7    O     O_R   0.308910 0.493440 0.402080 -0.549817
O8    O     O_R   0.691090 0.506560 0.597920 -0.550345
C3    C     C_R   0.259782 0.501056 0.500772 0.877050
C4    C     C_R   0.740218 0.498848 0.499215 0.896519
Cu1   Cu    Cu3+1 0.509400 0.507730 0.615930 0.983630
Cu2   Cu    Cu3+1 0.490600 0.492270 0.384070 0.988128
C5    C     C_3   0.048319 0.503820 0.611938 -0.264715
C6    C     C_3   0.951687 0.495967 0.388017 -0.263229
C7    C     C_3   0.962945 0.416437 0.540812 0.331024
C8    C     C_3   0.037054 0.583355 0.459140 0.337657
H1    H     H_    0.087344 0.507536 0.702849 0.190276
H2    H     H_    0.912668 0.492256 0.297102 0.181529
C9    C     C_3   0.875918 0.497592 0.497730 -0.169156
C10   C     C_3   0.124088 0.502211 0.502229 -0.167032
C11   C     C_3   0.961175 0.584803 0.566078 0.066645
C12   C     C_3   0.038842 0.414988 0.433880 0.065833
C13   C     C_R   0.496870 0.813314 0.532418 -0.016825
C14   C     C_R   0.496624 0.186649 0.466832 -0.054996
C15   C     C_R   0.589922 0.026314 0.377788 -0.194258
C16   C     C_R   0.405879 0.973997 0.622828 -0.170630
C17   C     C_R   0.572096 0.132384 0.383931 -0.174921
C18   C     C_R   0.425933 0.868262 0.618574 -0.218154
C19   C     C_R   0.432288 0.133545 0.542086 0.094722
C20   C     C_R   0.554616 0.864901 0.452889 0.085275
C21   C     C_R   0.457136 0.027027 0.540969 0.134696
C22   C     C_R   0.534864 0.972494 0.456765 0.094048
H3    H     H_    0.381984 0.828384 0.680324 0.168102
H4    H     H_    0.620707 0.173009 0.325572 0.165002
H5    H     H_    0.649540 0.987951 0.312366 0.154887
H6    H     H_    0.349427 0.013471 0.690380 0.173855
N1    N     N_R   0.523540 0.519360 0.790140 -0.206773
N2    N     N_R   0.476460 0.480640 0.209860 -0.204982
C23   C     C_R   0.379535 0.402564 0.022624 0.047120
C24   C     C_R   0.621671 0.596392 0.977250 0.045511
C25   C     C_R   0.391660 0.412660 0.145231 0.062747
C26   C     C_R   0.608677 0.587048 0.854737 0.066797
C27   C     C_R   0.552012 0.540954 0.156722 0.040033
C28   C     C_R   0.448157 0.458897 0.843261 0.050846
C29   C     C_R   0.544380 0.534588 0.033878 0.003649
C30   C     C_R   0.456569 0.464592 0.966022 0.007577
H7    H     H_    0.381308 0.406196 0.789389 0.163891
H8    H     H_    0.618225 0.594197 0.210669 0.168938
H9    H     H_    0.667327 0.633911 0.810607 0.141402
H10   H     H_    0.333179 0.365654 0.189347 0.140313
N3    N     N_R   0.924962 0.322456 0.583121 0.126228
O9    O     O_R   0.010010 0.262334 0.620081 -0.371565
O10   O     O_R   0.806924 0.296884 0.582099 -0.361130
N4    N     N_R   0.074951 0.677342 0.416790 0.124703
O11   O     O_R   0.989838 0.737436 0.379876 -0.370736
O12   O     O_R   0.192973 0.702893 0.417621 -0.366420
N5    N     N_3   0.916154 0.678464 0.637783 -0.565225
H11   H     H_    0.994237 0.726703 0.666784 0.241769
H12   H     H_    0.859138 0.717782 0.583831 0.237848
N6    N     N_3   0.083885 0.321325 0.362192 -0.566020
H13   H     H_    0.005810 0.273086 0.333181 0.242187
H14   H     H_    0.140877 0.282004 0.416152 0.225303
N7    N     N_3   0.633674 0.806981 0.370252 -0.586868
H15   H     H_    0.597108 0.811236 0.286123 0.239609
H16   H     H_    0.724052 0.839919 0.382768 0.248278
N8    N     N_3   0.340016 0.184826 0.617042 -0.582568
H17   H     H_    0.317202 0.258175 0.597581 0.220691
H18   H     H_    0.255785 0.142394 0.596791 0.242848
N9    N     N_3   0.289429 0.330225 0.956193 -0.577682
H19   H     H_    0.234434 0.296586 0.011536 0.227436
H20   H     H_    0.339521 0.269424 0.910136 0.232170
N10   N     N_3   0.712280 0.668292 0.043627 -0.595639
H21   H     H_    0.754673 0.712843 0.989669 0.227231
H22   H     H_    0.783429 0.624127 0.076367 0.234055

loop_
_geom_bond_atom_site_label_1
_geom_bond_atom_site_label_2
_geom_bond_distance
_ccdc_geom_bond_type
C6    C9    1.553836 S    
C15   C17   1.382142 A    
N3    O9    1.300209 A    
C5    H1    1.110200 S    
C28   H7    1.081648 S    
N10   H22   1.045581 S    
C18   H3    1.083881 S    
O1    C1    1.291246 A    
C6    H2    1.110236 S    
C5    C10   1.553822 S    
C25   H10   1.082111 S    
C2    C13   1.450510 S    
N4    O11   1.300236 A    
C27   C29   1.420992 A    
O4    Cu1   1.964333 S    
N6    H14   1.045091 S    
N2    C25   1.361863 A    
N8    H17   1.042608 S    
N7    H16   1.045461 S    
O6    Cu2   1.967500 S    
C19   C21   1.407935 A    
C8    N4    1.457621 S    
C23   N9    1.437438 S    
C13   C20   1.403463 A    
C5    C11   1.547381 S    
N5    H11   1.044903 S    
C6    C12   1.547432 S    
Cu1   Cu2   2.677559 S    
C23   C25   1.414195 A    
O2    C2    1.290689 A    
C24   C26   1.414207 A    
O5    C3    1.284471 A    
N3    O10   1.300060 A    
C15   C22   1.402456 A    
C19   N8    1.446394 S    
C28   C30   1.421023 A    
C24   N10   1.437432 S    
C7    C12   1.527237 S    
N5    H12   1.045152 S    
N10   H21   1.045651 S    
C8    C11   1.527195 S    
O4    C2    1.290460 A    
N9    H20   1.045615 S    
C4    C9    1.448874 S    
C7    C9    1.534808 S    
C20   C22   1.407880 A    
C11   N5    1.456602 S    
O7    Cu2   1.962140 S    
N6    H13   1.044851 S    
C29   C30   1.411827 A    
C17   H4    1.084155 S    
C16   H6    1.082527 S    
O6    C4    1.284456 A    
C21   C22   1.423130 A    
O7    C3    1.284400 A    
O3    Cu2   1.964334 S    
O8    C4    1.284446 A    
N1    C28   1.367657 A    
C26   H9    1.082103 S    
C6    C8    1.546281 S    
C16   C21   1.404447 A    
C9    C11   1.532190 S    
C10   C12   1.532232 S    
O1    Cu1   1.963329 S    
C7    N3    1.457595 S    
C13   C18   1.396154 A    
C5    C7    1.546298 S    
C12   N6    1.456615 S    
C8    C10   1.534798 S    
C14   C19   1.412693 A    
O3    C1    1.289580 A    
O8    Cu1   1.962142 S    
N1    C26   1.361886 A    
C3    C10   1.448763 S    
C16   C18   1.383996 A    
N9    H19   1.045670 S    
C27   H8    1.081602 S    
C15   H5    1.081586 S    
C23   C30   1.415687 A    
N4    O12   1.300040 A    
C24   C29   1.415667 A    
O2    Cu2   1.963329 S    
Cu1   N1    2.011791 S    
Cu2   N2    2.011792 S    
C1    C14   1.449790 S    
O5    Cu1   1.967499 S    
N2    C27   1.367628 A    
C14   C17   1.396981 A    
N8    H18   1.045960 S    
N7    H15   1.045552 S    
C20   N7    1.437965 S    
