data_mof_unit_12210.cif
_audit_creation_date              2012-12-10T18:22:24-0500
_audit_creation_method            fapswitch 2.2
_symmetry_space_group_name_H-M    P1
_symmetry_Int_Tables_number       1
_space_group_crystal_system       triclinic
_cell_length_a                    15.013316
_cell_length_b                    14.004356
_cell_length_c                    15.733992
_cell_angle_alpha                 89.548506
_cell_angle_beta                  89.657914
_cell_angle_gamma                 90.01264
_cell_volume                      3307.93869845

loop_
_atom_site_label
_atom_site_type_symbol
_atom_type_description
_atom_site_fract_x
_atom_site_fract_y
_atom_site_fract_z
_atom_type_partial_charge
C1    C     C_R   0.326522 0.500077 0.499052 0.890913
C2    C     C_R   0.907069 0.588758 0.504455 0.092861
C3    C     C_R   0.953744 0.502648 0.489994 -0.027403
C4    C     C_R   0.500528 0.500368 0.338283 0.918654
C5    C     C_R   0.907537 0.415745 0.476797 0.133133
C6    C     C_R   0.953085 0.675176 0.516924 0.040930
C7    C     C_R   0.046717 0.675316 0.516891 0.039464
C8    C     C_R   0.092963 0.589078 0.504306 0.091945
C9    C     C_R   0.046487 0.503001 0.489881 0.015574
C10   C     C_R   0.093040 0.416697 0.476551 0.116671
C11   C     C_R   0.047295 0.331684 0.461686 -0.280828
C12   C     C_3   0.561287 0.420344 0.951489 -0.445441
C13   C     C_R   0.954565 0.330477 0.461714 0.089849
C14   C     C_R   0.185381 0.586739 0.506821 -0.229572
C15   C     C_R   0.230809 0.500805 0.495342 -0.094091
C16   C     C_R   0.673538 0.500065 0.499118 0.892095
C17   C     C_R   0.185085 0.416296 0.479287 -0.254166
C18   C     C_R   0.556537 0.798589 0.446757 -0.060955
C19   C     C_R   0.556354 0.202400 0.446566 -0.058472
C20   C     C_R   0.443301 0.797646 0.552984 -0.058131
C21   C     C_R   0.443420 0.201395 0.553096 -0.063762
C22   C     C_R   0.441830 0.898306 0.554140 0.016567
C23   C     C_3   0.577161 0.430797 0.049279 0.196484
C24   C     C_R   0.441882 0.100716 0.554188 0.015863
C25   C     C_R   0.499745 0.949395 0.499656 0.083772
C26   C     C_R   0.499727 0.050632 0.499635 0.085165
C27   C     C_R   0.557689 0.899293 0.445219 0.016251
C28   C     C_R   0.557565 0.101737 0.445089 0.016394
C29   C     C_R   0.384139 0.948847 0.608210 -0.208091
C30   C     C_R   0.384192 0.049181 0.608259 -0.211957
C31   C     C_R   0.614958 0.051200 0.390719 -0.210450
C32   C     C_R   0.615066 0.950846 0.390831 -0.205735
C33   C     C_R   0.499542 0.499623 0.661893 0.914260
C34   C     C_1   0.496801 0.498339 0.826110 -0.082040
C35   C     C_3   0.517872 0.605577 0.046842 -0.060272
C36   C     C_3   0.405203 0.466010 0.049156 -0.050810
C37   C     C_3   0.401794 0.478955 0.951352 -0.459588
C38   C     C_3   0.524351 0.600132 0.948146 -0.409973
C39   C     C_1   0.497949 0.498689 0.750789 -0.196762
C40   C     C_3   0.499234 0.501098 0.083167 0.238018
C41   C     C_3   0.496630 0.499237 0.917603 0.264775
C42   C     C_3   0.462474 0.691253 0.083459 -0.382354
C43   C     C_3   0.382025 0.727716 0.032067 -0.347730
C44   C     C_3   0.322204 0.791487 0.086162 -0.905834
C45   C     C_1   0.500428 0.501583 0.174591 -0.133180
C46   C     C_3   0.320393 0.503714 0.096119 -0.412803
C47   C     C_3   0.284289 0.432475 0.163009 -0.389946
C48   C     C_3   0.206730 0.474848 0.213345 -0.852308
C49   C     C_3   0.673122 0.477070 0.061950 -0.442546
C50   C     C_3   0.754871 0.411335 0.048805 -0.371665
C51   C     C_3   0.841483 0.468618 0.046995 -0.882882
C52   C     C_3   0.582932 0.329708 0.095866 -0.389580
C53   C     C_3   0.500293 0.267019 0.110875 -0.404681
C54   C     C_3   0.525711 0.171325 0.151415 -0.882158
C55   C     C_1   0.500906 0.501274 0.249730 -0.211187
C56   C     C_R   0.815140 0.415982 0.479851 -0.239876
C57   C     C_R   0.769368 0.500633 0.495667 -0.115034
C58   C     C_R   0.814692 0.586450 0.507028 -0.223547
H1    H     H_    0.482489 0.654568 0.916308 0.175577
H2    H     H_    0.339052 0.910805 0.650502 0.138809
H3    H     H_    0.339156 0.086447 0.650601 0.138371
H4    H     H_    0.659812 0.089258 0.348205 0.137927
H5    H     H_    0.660029 0.913579 0.348419 0.138179
H6    H     H_    0.400442 0.388904 0.056110 0.154466
H7    H     H_    0.584736 0.626434 0.069319 0.115825
H8    H     H_    0.374775 0.413005 0.921719 0.157850
H9    H     H_    0.593481 0.615982 0.926558 0.146217
H10   H     H_    0.625037 0.423587 0.915201 0.172712
H11   H     H_    0.532312 0.349082 0.937583 0.166281
H12   H     H_    0.356453 0.537652 0.931965 0.169588
H13   H     H_    0.778444 0.350383 0.470054 0.185832
H14   H     H_    0.777510 0.651320 0.518917 0.191437
H15   H     H_    0.078072 0.811473 0.482595 0.185221
H16   H     H_    0.077392 0.790212 0.589189 0.180765
H17   H     H_    0.928512 0.193144 0.493458 0.186600
H18   H     H_    0.928461 0.216561 0.387894 0.182274
H19   H     H_    0.293876 0.750309 0.140572 0.260886
H20   H     H_    0.360659 0.853125 0.110628 0.265752
H21   H     H_    0.266430 0.819021 0.046947 0.250088
H22   H     H_    0.405714 0.771018 0.976945 0.213077
H23   H     H_    0.222435 0.651581 0.518861 0.187912
H24   H     H_    0.341372 0.668564 0.007700 0.225247
H25   H     H_    0.442386 0.675400 0.150030 0.210233
H26   H     H_    0.507857 0.753848 0.089097 0.183328
H27   H     H_    0.228895 0.539151 0.248331 0.261456
H28   H     H_    0.151494 0.494680 0.170004 0.258222
H29   H     H_    0.181699 0.421391 0.260229 0.253849
H30   H     H_    0.261124 0.366613 0.130910 0.217468
H31   H     H_    0.337502 0.412264 0.208332 0.233006
H32   H     H_    0.333989 0.571352 0.128790 0.239979
H33   H     H_    0.266099 0.517494 0.049873 0.202937
H34   H     H_    0.221019 0.350100 0.469216 0.161794
H35   H     H_    0.841940 0.519461 0.992446 0.257703
H36   H     H_    0.849206 0.508866 0.107069 0.262522
H37   H     H_    0.898922 0.419300 0.039976 0.249396
H38   H     H_    0.759859 0.358855 0.101859 0.218416
H39   H     H_    0.749374 0.371843 0.988156 0.220932
H40   H     H_    0.683340 0.536745 0.016388 0.207798
H41   H     H_    0.677630 0.506668 0.127172 0.195947
H42   H     H_    0.571246 0.131051 0.108881 0.256059
H43   H     H_    0.558778 0.182710 0.213529 0.260885
H44   H     H_    0.464776 0.127882 0.162428 0.253994
H45   H     H_    0.083444 0.265796 0.450904 0.144218
H46   H     H_    0.454215 0.302434 0.156102 0.230899
H47   H     H_    0.467099 0.251670 0.049579 0.216514
H48   H     H_    0.629699 0.284439 0.058840 0.204326
H49   H     H_    0.613176 0.340503 0.159524 0.209486
H50   H     H_    0.921907 0.811207 0.482477 0.182997
H51   H     H_    0.921472 0.790146 0.589102 0.184427
H52   H     H_    0.600562 0.758653 0.405473 0.132283
H53   H     H_    0.600243 0.243082 0.405134 0.129991
H54   H     H_    0.399237 0.756991 0.594257 0.131491
H55   H     H_    0.399485 0.241306 0.594483 0.132802
N1    N     N_R   0.500070 0.750030 0.500040 -0.102986
N2    N     N_R   0.500070 0.249970 0.500040 -0.102351
N3    N     N_3   0.095233 0.762348 0.530072 -0.482929
N4    N     N_3   0.908470 0.242479 0.447158 -0.483176
N5    N     N_3   0.904305 0.762134 0.530057 -0.480748
O1    O     O_R   0.367860 0.580280 0.500020 -0.630110
O2    O     O_R   0.367860 0.419720 0.500020 -0.627580
O3    O     O_R   0.500020 0.580310 0.377140 -0.618081
O4    O     O_R   0.500020 0.419690 0.377140 -0.619622
O5    O     O_R   0.632160 0.580270 0.499980 -0.629178
O6    O     O_R   0.632160 0.419730 0.499980 -0.626497
O7    O     O_R   0.500010 0.580240 0.622850 -0.616904
O8    O     O_R   0.500010 0.419760 0.622850 -0.614710
Zn1   Zn    Zn3+2 0.500020 0.607200 0.499990 0.944374
Zn2   Zn    Zn3+2 0.500020 0.392800 0.499990 0.944421

loop_
_geom_bond_atom_site_label_1
_geom_bond_atom_site_label_2
_ccdc_geom_bond_type
C12   H11   S    
C22   C29   A    
C5    C56   A    
H17   N4    S    
C21   N2    A    
C58   H14   S    
C18   N1    A    
C57   C58   A    
C7    C8    A    
C53   C54   S    
C12   H10   S    
C12   C23   S    
C29   C30   A    
H15   N3    S    
C36   C37   S    
C16   O5    A    
C24   C26   A    
O3    Zn1   S    
C23   C49   S    
C35   H7    S    
C10   C17   A    
C23   C40   S    
C56   C57   A    
C1    O1    A    
C35   C42   S    
C54   H43   S    
C49   H40   S    
C20   H54   S    
C47   C48   S    
C52   H49   S    
C8    C9    A    
C22   C25   A    
C8    C14   A    
C36   C46   S    
C1    C15   S    
C9    C10   A    
C5    C13   A    
O6    Zn2   S    
C52   H48   S    
C37   H12   S    
O4    Zn2   S    
C47   H31   S    
C31   H4    S    
C54   H42   S    
C2    C6    A    
C34   C41   S    
H51   N5    S    
C44   H21   S    
C40   C45   S    
C42   H25   S    
C34   C39   T    
H50   N5    S    
C36   C40   S    
C35   C38   S    
C42   H26   S    
C38   C41   S    
C21   H55   S    
C46   H33   S    
C25   C26   A    
N2    Zn2   S    
C1    O2    A    
C7    N3    S    
C43   C44   S    
C12   C41   S    
C3    C9    A    
C53   H47   S    
C49   H41   S    
O5    Zn1   S    
C31   C32   A    
C29   H2    S    
C19   N2    A    
C56   H13   S    
H16   N3    S    
C37   H8    S    
C33   O7    A    
C50   C51   S    
C48   H29   S    
C4    O4    A    
C33   C39   S    
C19   C28   A    
C51   H35   S    
C20   C22   A    
C4    C55   S    
C48   H28   S    
C21   C24   A    
C42   C43   S    
C52   C53   S    
C15   C17   A    
C46   C47   S    
C44   H19   S    
C50   H39   S    
O8    Zn2   S    
C27   C32   A    
C14   C15   A    
C54   H44   S    
C28   C31   A    
C18   C27   A    
C18   H52   S    
C32   H5    S    
C3    C5    A    
C13   N4    S    
O2    Zn2   S    
C6    C7    A    
C46   H32   S    
C19   H53   S    
C25   C27   A    
C26   C28   A    
H18   N4    S    
C47   H30   S    
C44   H20   S    
C2    C3    A    
C16   O6    A    
C20   N1    A    
N1    Zn1   S    
C11   C13   A    
C50   H38   S    
C23   C52   S    
C33   O8    A    
C43   H22   S    
C4    O3    A    
C35   C40   S    
C16   C57   S    
C37   C41   S    
C2    C58   A    
C24   C30   A    
C10   C11   A    
C51   H36   S    
C38   H1    S    
C17   H34   S    
C38   H9    S    
C45   C55   T    
C49   C50   S    
C30   H3    S    
O7    Zn1   S    
C43   H24   S    
C48   H27   S    
C11   H45   S    
C53   H46   S    
C14   H23   S    
C36   H6    S    
C6    N5    S    
C51   H37   S    
O1    Zn1   S    
