data_mof_unit_12906.cif
_audit_creation_date              2012-12-11T16:31:27-0500
_audit_creation_method            fapswitch 2.2
_symmetry_space_group_name_H-M    P1
_symmetry_Int_Tables_number       1
_space_group_crystal_system       triclinic
_cell_length_a                    7.018605
_cell_length_b                    18.513485
_cell_length_c                    20.057808
_cell_angle_alpha                 68.364378
_cell_angle_beta                  91.189389
_cell_angle_gamma                 91.738421
_cell_volume                      2421.42501335

loop_
_atom_site_label
_atom_site_type_symbol
_atom_type_description
_atom_site_fract_x
_atom_site_fract_y
_atom_site_fract_z
_atom_type_partial_charge
O1    O     O_R   0.488990 0.443920 0.942160 -0.536697
O2    O     O_R   0.823840 0.406530 0.087600 -0.532192
O3    O     O_R   0.999650 0.556080 0.057840 -0.547708
C1    C     C_R   0.654124 0.382422 0.114024 0.743732
O4    O     O_R   0.818390 0.434590 0.944530 -0.527474
O5    O     O_R   0.994160 0.584350 0.913750 -0.542346
C2    C     C_R   0.647332 0.422763 0.922470 0.758983
O6    O     O_R   0.494480 0.415650 0.086250 -0.547963
O7    O     O_3   0.662600 0.549100 0.990070 -0.363842
V1    V     V_3+5 0.935320 0.490890 0.001840 1.485387
O8    O     O_R   0.324240 0.593470 0.912400 -0.525227
C3    C     C_R   0.155976 0.619748 0.887386 0.677697
O9    O     O_R   0.329690 0.565410 0.055470 -0.510333
C4    C     C_R   0.163970 0.574464 0.080063 0.717833
V2    V     V_3+5 0.435990 0.509110 0.998160 1.517555
O10   O     O_3   0.158840 0.450900 0.009930 -0.375504
C5    C     C_3   0.977033 0.677355 0.263220 -0.326667
C6    C     C_3   0.332373 0.699924 0.254659 -0.284355
C7    C     C_3   0.323145 0.750038 0.302510 -0.006317
H1    H     H_    0.998479 0.683039 0.370388 0.132331
H2    H     H_    0.989461 0.614263 0.295639 0.162478
H3    H     H_    0.456516 0.718298 0.218003 0.177081
H4    H     H_    0.353748 0.638250 0.289811 0.155357
H5    H     H_    0.336920 0.709876 0.359503 0.134340
C8    C     C_1   0.106387 0.874707 0.378405 -0.183876
C9    C     C_3   0.145862 0.705695 0.210205 0.181007
C10   C     C_3   0.972250 0.723450 0.314281 -0.391151
C11   C     C_3   0.125354 0.790392 0.292891 0.239681
C12   C     C_3   0.094557 0.842053 0.211769 0.097770
C13   C     C_3   0.117234 0.792691 0.163612 -0.384114
C14   C     C_1   0.112600 0.836838 0.340041 -0.039863
C15   C     C_1   0.155184 0.658153 0.164054 -0.015933
C16   C     C_1   0.160401 0.619769 0.126102 -0.109771
H6    H     H_    0.991351 0.798400 0.127510 0.154068
H7    H     H_    0.242391 0.815499 0.128091 0.138728
H8    H     H_    0.840277 0.684842 0.232610 0.190323
H9    H     H_    0.827857 0.746362 0.313664 0.212822
H10   H     H_    0.204384 0.889687 0.195982 0.116231
C17   C     C_R   0.186905 0.788930 0.878528 -0.043224
C18   C     C_R   0.199083 0.867034 0.873094 0.119393
C19   C     C_R   0.156756 0.926454 0.808377 0.019394
C20   C     C_R   0.097091 0.908109 0.749055 0.121022
C21   C     C_R   0.117549 0.831434 0.749822 0.041114
C22   C     C_R   0.149623 0.768894 0.816927 -0.054864
C23   C     C_R   0.114224 0.817180 0.684634 -0.129655
C24   C     C_R   0.136572 0.741029 0.686340 0.051565
C25   C     C_R   0.154258 0.677916 0.752982 0.032357
C26   C     C_R   0.150416 0.690174 0.818797 -0.138282
C27   C     C_R   0.145218 0.726586 0.621896 -0.138836
C28   C     C_R   0.181683 0.652796 0.622885 -0.214937
C29   C     C_R   0.207168 0.591313 0.687933 0.077070
C30   C     C_R   0.186658 0.603265 0.752283 -0.130950
H11   H     H_    0.128914 0.772472 0.569868 0.092031
H12   H     H_    0.194244 0.644152 0.572600 0.104966
H13   H     H_    0.204397 0.553910 0.801802 0.145713
C31   C     C_R   0.671431 0.218389 0.120089 0.212715
C32   C     C_R   0.727321 0.143395 0.125170 0.030841
C33   C     C_R   0.732271 0.083249 0.191958 -0.256868
C34   C     C_R   0.692009 0.096513 0.253700 -0.147142
C35   C     C_R   0.658445 0.172068 0.251637 0.032391
C36   C     C_R   0.657586 0.235482 0.183987 0.021698
C37   C     C_R   0.623091 0.184235 0.316069 -0.153226
C38   C     C_R   0.602340 0.260789 0.314068 0.077227
C39   C     C_R   0.615097 0.325123 0.247753 0.012270
C40   C     C_R   0.640320 0.313052 0.182456 -0.165073
C41   C     C_R   0.574958 0.274857 0.377833 -0.132078
C42   C     C_R   0.564272 0.350279 0.376755 -0.213313
C43   C     C_R   0.580987 0.413875 0.312333 0.067415
C44   C     C_R   0.604726 0.401192 0.248338 -0.143937
H14   H     H_    0.767802 0.025051 0.196556 0.151157
H15   H     H_    0.693660 0.046643 0.303480 0.127064
H16   H     H_    0.564446 0.227808 0.429473 0.101165
H17   H     H_    0.545365 0.358965 0.426737 0.121802
H18   H     H_    0.616810 0.451558 0.199152 0.137639
O11   O     O_R   0.770890 0.084490 0.414040 -0.537528
O12   O     O_R   0.445980 0.065450 0.555510 -0.539323
O13   O     O_R   0.270670 0.915620 0.586180 -0.539978
C45   C     C_R   0.617347 0.079811 0.575656 0.727866
O14   O     O_R   0.441480 0.093500 0.412450 -0.538773
O15   O     O_R   0.266140 0.943870 0.442100 -0.538675
C46   C     C_R   0.610954 0.116616 0.385548 0.679392
O16   O     O_R   0.775410 0.056240 0.558120 -0.527137
O17   O     O_3   0.602660 0.950990 0.510100 -0.370745
V3    V     V_3+5 0.329740 0.009100 0.498130 1.438520
O18   O     O_R   0.936120 0.934420 0.444240 -0.541695
C47   C     C_R   0.102564 0.920496 0.423882 0.707390
O19   O     O_R   0.940610 0.906370 0.587310 -0.522590
C48   C     C_R   0.108707 0.882946 0.614058 0.746595
V4    V     V_3+5 0.829110 0.990690 0.501470 1.453311
O20   O     O_3   0.106080 0.049010 0.489880 -0.370202
C49   C     C_3   0.831792 0.262895 0.698072 0.025230
C50   C     C_3   0.474502 0.273547 0.678983 0.196320
C51   C     C_3   0.486615 0.327038 0.724297 -0.336618
H19   H     H_    0.522911 0.387505 0.689045 0.161711
H20   H     H_    0.346471 0.331841 0.745028 0.180151
C52   C     C_1   0.631503 0.379288 0.875291 -0.111672
C53   C     C_3   0.642720 0.214825 0.702569 0.114044
C54   C     C_3   0.838586 0.303571 0.756360 0.354828
C55   C     C_3   0.632776 0.297574 0.787606 0.143035
C56   C     C_3   0.585458 0.209878 0.831047 -0.423408
C57   C     C_3   0.616316 0.159870 0.784130 -0.190803
C58   C     C_1   0.624407 0.343009 0.835599 0.045430
C59   C     C_1   0.644188 0.166265 0.656788 0.017626
C60   C     C_1   0.634010 0.126871 0.619784 -0.160476
H21   H     H_    0.489226 0.121590 0.789259 0.233760
H22   H     H_    0.671558 0.187921 0.881382 0.192649
H23   H     H_    0.935503 0.217745 0.711717 0.185002
H24   H     H_    0.435679 0.203393 0.849621 0.203863
C61   C     C_2   0.263226 0.515156 0.688662 0.315833
H25   H     H_    0.273230 0.504964 0.638912 0.022002
O21   O     O_2   0.301464 0.463010 0.745258 -0.553880
C62   C     C_2   0.216107 0.730988 0.950031 0.371113
H26   H     H_    0.092291 0.700034 0.978750 0.018125
O22   O     O_2   0.374916 0.720979 0.977431 -0.523771
N1    N     N_3   0.249748 0.886873 0.934288 -0.686281
H27   H     H_    0.153275 0.859508 0.975559 0.230653
H28   H     H_    0.387057 0.867671 0.951660 0.279898
C63   C     C_2   0.176742 0.008124 0.803385 0.442214
H29   H     H_    0.180054 0.022467 0.851189 0.108574
O23   O     O_2   0.197316 0.060546 0.745485 -0.552984
N2    N     N_3   0.998724 0.965343 0.690763 -0.631315
H30   H     H_    0.893040 0.990200 0.710839 0.262849
H31   H     H_    0.095202 0.008130 0.659999 0.268120
C64   C     C_2   0.575625 0.493512 0.312671 0.298286
H32   H     H_    0.552150 0.502287 0.362453 0.042743
O24   O     O_2   0.598698 0.550230 0.257583 -0.554688
N3    N     N_3   0.606679 0.273597 0.052421 -0.659696
H33   H     H_    0.465348 0.285489 0.059387 0.213884
H34   H     H_    0.595185 0.249417 0.013079 0.244692
C65   C     C_2   0.785207 0.125105 0.062550 0.332474
H35   H     H_    0.768981 0.066054 0.063948 0.047980
O25   O     O_2   0.862012 0.174208 0.010838 -0.537380
N4    N     N_3   0.907981 0.385252 0.726715 -0.652599
H36   H     H_    0.036153 0.388512 0.700243 0.235796
H37   H     H_    0.813313 0.422304 0.690318 0.212023
N5    N     N_3   0.873886 0.315278 0.624066 -0.657575
H38   H     H_    0.019591 0.328804 0.619350 0.199394
H39   H     H_    0.804977 0.367898 0.610501 0.267379
C66   C     C_2   0.289544 0.227956 0.691531 0.296425
H40   H     H_    0.215886 0.217364 0.647733 0.095842
O26   O     O_2   0.228931 0.197224 0.752108 -0.559748
N6    N     N_3   0.482791 0.322694 0.602099 -0.695590
H41   H     H_    0.370212 0.361502 0.588864 0.201591
H42   H     H_    0.465892 0.289002 0.570332 0.224700
C67   C     C_2   0.774782 0.102644 0.814161 0.338597
H43   H     H_    0.915118 0.121830 0.824855 0.148216
O27   O     O_2   0.744767 0.033250 0.828358 -0.538976
N7    N     N_3   0.967874 0.260937 0.816140 -0.648653
H44   H     H_    0.941091 0.273688 0.861616 0.261036
H45   H     H_    0.106677 0.281198 0.804188 0.270780
N8    N     N_3   0.486165 0.805021 0.288071 -0.697891
H46   H     H_    0.483831 0.843731 0.234889 0.231113
H47   H     H_    0.482246 0.836932 0.321460 0.243911
N9    N     N_3   0.908704 0.879315 0.199691 -0.676222
H48   H     H_    0.801541 0.839353 0.198627 0.249107
H49   H     H_    0.908820 0.923328 0.148735 0.217103

loop_
_geom_bond_atom_site_label_1
_geom_bond_atom_site_label_2
_ccdc_geom_bond_type
C8    C14   T    
O19   C48   A    
C9    C15   S    
C51   H19   S    
C52   C58   T    
C19   C20   A    
O2    C1    A    
C6    C9    S    
C1    O6    A    
C43   C64   S    
C4    C16   S    
C62   O22   D    
C67   H43   S    
O18   C47   A    
C2    C52   S    
C24   C27   A    
C57   C67   S    
C28   H12   S    
O16   V4    S    
C13   H7    S    
C5    C9    S    
C11   C12   S    
N7    H45   S    
C61   O21   D    
O5    C3    A    
C1    C40   S    
C18   N1    S    
V2    O10   S    
C54   C55   S    
C31   C32   A    
C35   C37   A    
C6    C7    S    
C31   N3    S    
C63   H29   S    
C8    C47   S    
O15   C47   A    
O8    V2    S    
C41   H16   S    
C49   N5    S    
C25   C26   A    
O13   C48   A    
C43   C44   A    
N1    H28   S    
C12   H10   S    
C7    N8    S    
N8    H46   S    
C42   H17   S    
C5    H8    S    
C19   C63   S    
C50   N6    S    
O7    V1    S    
C51   C55   S    
N9    H49   S    
C30   H13   S    
C3    C26   S    
C41   C42   A    
C38   C41   A    
C34   C35   A    
C29   C61   S    
O1    C2    A    
O9    C4    A    
O12   V3    S    
V3    O20   S    
C62   H26   S    
C67   O27   D    
C50   C53   S    
C57   H21   S    
O17   V4    S    
C56   H24   S    
N6    H41   S    
C13   H6    S    
C45   C60   S    
C42   C43   A    
C5    C10   S    
C49   H23   S    
C32   C65   S    
C23   C48   S    
N7    H44   S    
N5    H39   S    
C17   C18   A    
O4    C2    A    
O18   V4    S    
C33   H14   S    
O13   V3    S    
C33   C34   A    
C23   C24   A    
C5    H2    S    
C29   C30   A    
C35   C36   A    
C65   O25   D    
C21   C22   A    
N3    H34   S    
C12   C13   S    
C45   O16   A    
O17   V3    S    
C54   N4    S    
C66   H40   S    
C37   C38   A    
C28   C29   A    
N9    H48   S    
C44   H18   S    
C39   C44   A    
C49   C53   S    
C7    C11   S    
C21   C23   A    
N2    H30   S    
C53   C59   S    
O3    C4    A    
O1    V2    S    
C17   C62   S    
C37   C46   S    
C9    C13   S    
O6    V2    S    
O19   V4    S    
N4    H36   S    
N6    H42   S    
C20   C21   A    
C17   C22   A    
N3    H33   S    
O2    V1    S    
C59   C60   T    
C64   O24   D    
C24   C25   A    
C18   C19   A    
C6    H3    S    
C56   H22   S    
C11   C14   S    
O11   C46   A    
O12   C45   A    
N5    H38   S    
O5    V1    S    
O8    C3    A    
C25   C30   A    
H1    C10   S    
O14   C46   A    
C55   C56   S    
C15   C16   T    
O9    V2    S    
C7    H5    S    
O7    V2    S    
O4    V1    S    
O3    V1    S    
V1    O10   S    
C61   H25   S    
C39   C40   A    
O15   V3    S    
C66   O26   D    
C32   C33   A    
O14   V3    S    
C54   N7    S    
C10   H9    S    
C6    H4    S    
C27   H11   S    
C50   C51   S    
C65   H35   S    
N8    H47   S    
C49   C54   S    
C63   O23   D    
N2    H31   S    
O11   V4    S    
C38   C39   A    
C36   C40   A    
C55   C58   S    
C51   H20   S    
C27   C28   A    
C10   C11   S    
N4    H37   S    
C31   C36   A    
C12   N9    S    
C56   C57   S    
N1    H27   S    
V4    O20   S    
C50   C66   S    
C53   C57   S    
C22   C26   A    
C20   N2    S    
C34   H15   S    
C64   H32   S    
