data_mof_unit_7372.cif
_audit_creation_date              2012-12-10T17:36:41-0500
_audit_creation_method            fapswitch 2.2
_symmetry_space_group_name_H-M    P1
_symmetry_Int_Tables_number       1
_space_group_crystal_system       triclinic
_cell_length_a                    12.075035
_cell_length_b                    12.751967
_cell_length_c                    15.682
_cell_angle_alpha                 89.380244
_cell_angle_beta                  85.540411
_cell_angle_gamma                 93.953937
_cell_volume                      2401.36278703

loop_
_atom_site_label
_atom_site_type_symbol
_atom_type_description
_atom_site_fract_x
_atom_site_fract_y
_atom_site_fract_z
_atom_type_partial_charge
C1    C     C_R   0.522663 0.700087 0.501397 0.859179
C2    C     C_R   0.477337 0.299913 0.498602 0.859177
C3    C     C_R   0.595361 0.967589 0.582812 -0.198387
C4    C     C_R   0.404638 0.032411 0.417186 -0.198385
C5    C     C_R   0.599123 0.858945 0.572916 0.128977
C6    C     C_R   0.400875 0.141055 0.427083 0.128976
C7    C     C_R   0.475447 0.869208 0.456483 -0.297553
C8    C     C_R   0.524554 0.130793 0.543514 -0.297552
C9    C     C_R   0.469972 0.975370 0.468153 0.134202
C10   C     C_R   0.530028 0.024630 0.531845 0.134203
C11   C     C_R   0.958755 0.501486 0.388354 0.414964
C12   C     C_R   0.041245 0.498514 0.611645 0.414953
C13   C     C_R   0.842460 0.491851 0.403790 -0.226481
C14   C     C_R   0.157540 0.508148 0.596210 -0.226462
C15   C     C_R   0.855288 0.475845 0.553195 0.560084
C16   C     C_R   0.144712 0.524156 0.446805 0.560097
C17   C     C_R   0.973814 0.493138 0.541869 -0.237578
C18   C     C_R   0.026186 0.506863 0.458131 -0.237562
C19   C     C_R   0.499576 0.500090 0.661937 0.893466
C20   C     C_R   0.500424 0.499909 0.338063 0.893465
C21   C     C_3   0.541794 0.593279 0.023792 0.235030
C22   C     C_3   0.458204 0.406712 0.976208 0.235031
C23   C     C_3   0.604968 0.518386 0.964118 -0.217108
C24   C     C_3   0.395031 0.481605 0.035882 -0.217113
C25   C     C_1   0.498417 0.500504 0.750894 -0.195327
C26   C     C_1   0.501582 0.499492 0.249106 -0.195342
C27   C     C_3   0.435864 0.575800 0.975361 -0.206935
C28   C     C_3   0.564135 0.424192 0.024640 -0.206935
C29   C     C_3   0.498574 0.499861 0.917096 0.120840
C30   C     C_3   0.501425 0.500131 0.082904 0.120843
C31   C     C_1   0.497967 0.500365 0.826267 -0.085053
C32   C     C_1   0.502032 0.499628 0.173733 -0.085057
C33   C     C_R   0.462473 0.188465 0.491401 -0.095172
C34   C     C_R   0.537527 0.811535 0.508598 -0.095172
H1    H     H_    0.690315 0.533871 0.932942 0.143626
H2    H     H_    0.309683 0.466121 0.067059 0.143626
H3    H     H_    0.615919 0.362145 0.046691 0.142233
H4    H     H_    0.384080 0.637846 0.953310 0.142236
H5    H     H_    0.571408 0.169906 0.591755 0.135695
H6    H     H_    0.428592 0.830094 0.408242 0.135696
H7    H     H_    0.640922 0.008490 0.630632 0.153188
H8    H     H_    0.359077 0.991510 0.369367 0.153182
H9    H     H_    0.207490 0.503993 0.650041 0.186992
H10   H     H_    0.792510 0.496007 0.349959 0.186981
N1    N     N_R   0.207800 0.519340 0.515560 -0.165936
N2    N     N_R   0.792200 0.480660 0.484440 -0.165930
O1    O     O_R   0.421700 0.658830 0.504150 -0.624708
O2    O     O_R   0.578300 0.341170 0.495850 -0.624711
O3    O     O_R   0.609310 0.646410 0.494170 -0.619517
O4    O     O_R   0.390690 0.353590 0.505830 -0.619516
O5    O     O_R   0.406210 0.506220 0.628210 -0.629750
O6    O     O_R   0.593790 0.493780 0.371790 -0.629750
O7    O     O_R   0.593830 0.493800 0.618230 -0.572189
O8    O     O_R   0.406170 0.506200 0.381770 -0.572186
Zn1   Zn    Zn3+2 0.374730 0.508290 0.506660 0.948801
Zn2   Zn    Zn3+2 0.625270 0.491710 0.493340 0.948797
C35   C     C_3   0.589546 0.699412 0.053657 -0.422366
C36   C     C_3   0.620751 0.775126 0.978259 -0.867465
H11   H     H_    0.683812 0.742141 0.932694 0.263667
H12   H     H_    0.545941 0.790192 0.944274 0.258319
H13   H     H_    0.656318 0.850970 0.001895 0.252862
H14   H     H_    0.526630 0.733843 0.098520 0.209781
H15   H     H_    0.664736 0.687348 0.088118 0.210201
C37   C     C_3   0.410454 0.300580 0.946343 -0.422367
C38   C     C_3   0.379259 0.224861 0.021740 -0.867469
H16   H     H_    0.454074 0.209794 0.055717 0.258318
H17   H     H_    0.316204 0.257845 0.067312 0.263664
H18   H     H_    0.343687 0.149019 0.998105 0.252863
H19   H     H_    0.335259 0.312643 0.911887 0.210200
H20   H     H_    0.473366 0.266153 0.901476 0.209784
C39   C     C_3   0.337677 0.208050 0.368681 -0.351434
C40   C     C_3   0.287074 0.151268 0.293932 -0.917937
H21   H     H_    0.352648 0.115034 0.252790 0.266358
H22   H     H_    0.221447 0.090371 0.317772 0.257695
H23   H     H_    0.248129 0.208984 0.254289 0.257734
H24   H     H_    0.269275 0.243118 0.407673 0.226447
H25   H     H_    0.395616 0.273214 0.340815 0.202543
C41   C     C_3   0.662318 0.791950 0.631320 -0.351433
C42   C     C_3   0.712915 0.848732 0.706072 -0.917942
H26   H     H_    0.778544 0.909628 0.682236 0.257694
H27   H     H_    0.647337 0.884966 0.747210 0.266359
H28   H     H_    0.751855 0.791015 0.745718 0.257724
H29   H     H_    0.604379 0.726785 0.659184 0.202544
H30   H     H_    0.730723 0.756883 0.592331 0.226441
O9    O     O_3   0.197037 0.541621 0.366041 -0.596575
C43   C     C_3   0.212689 0.651365 0.351053 0.156113
H31   H     H_    0.278161 0.685625 0.390621 0.147026
H32   H     H_    0.134174 0.691106 0.366390 0.123379
C44   C     C_3   0.249275 0.672392 0.256496 -0.316388
H33   H     H_    0.324997 0.630632 0.238500 0.226419
H34   H     H_    0.182180 0.641985 0.216833 0.239242
C45   C     C_3   0.274290 0.789532 0.237173 -1.013070
H35   H     H_    0.199934 0.833530 0.255155 0.271687
H36   H     H_    0.297413 0.801737 0.167669 0.271296
H37   H     H_    0.344950 0.820813 0.272785 0.256821
O10   O     O_3   0.802964 0.458380 0.633959 -0.596580
C46   C     C_3   0.787305 0.348636 0.648946 0.156123
H38   H     H_    0.865814 0.308888 0.633600 0.123361
H39   H     H_    0.721824 0.314383 0.609383 0.147045
C47   C     C_3   0.750734 0.327608 0.743505 -0.316402
H40   H     H_    0.817845 0.357993 0.783160 0.239245
H41   H     H_    0.675028 0.369385 0.761513 0.226430
C48   C     C_3   0.725690 0.210470 0.762824 -1.013089
H42   H     H_    0.655012 0.179211 0.727223 0.256827
H43   H     H_    0.702585 0.198263 0.832330 0.271300
H44   H     H_    0.800028 0.166454 0.744826 0.271686
O11   O     O_3   0.005147 0.514173 0.305138 -0.621057
C49   C     C_3   0.000289 0.415822 0.264509 0.126640
H45   H     H_    0.913000 0.392686 0.250588 0.124010
H46   H     H_    0.031823 0.353453 0.304917 0.136820
C50   C     C_3   0.073465 0.425069 0.180366 -0.324292
H47   H     H_    0.047332 0.490440 0.140751 0.220900
H48   H     H_    0.161574 0.443161 0.194259 0.233068
C51   C     C_3   0.065234 0.323601 0.129864 -0.996520
H49   H     H_    0.092203 0.257188 0.167709 0.265493
H50   H     H_    0.119933 0.333008 0.069610 0.267344
H51   H     H_    0.978242 0.305247 0.113448 0.269668
O12   O     O_3   0.994856 0.485826 0.694862 -0.621061
C52   C     C_3   0.999681 0.584184 0.735480 0.126650
H52   H     H_    0.968073 0.646520 0.695081 0.136863
H53   H     H_    0.086971 0.607377 0.749363 0.123991
C53   C     C_3   0.926565 0.574913 0.819651 -0.324307
H54   H     H_    0.838452 0.556765 0.805798 0.233041
H55   H     H_    0.952773 0.509570 0.859258 0.220915
C54   C     C_3   0.934765 0.676392 0.870139 -0.996524
H56   H     H_    0.021764 0.694806 0.886512 0.269671
H57   H     H_    0.880115 0.666965 0.930417 0.267348
H58   H     H_    0.907717 0.742775 0.832305 0.265490

loop_
_geom_bond_atom_site_label_1
_geom_bond_atom_site_label_2
_ccdc_geom_bond_type
C25   C31   T    
C11   C18   A    
C26   C32   T    
C22   C29   S    
C27   C29   S    
C40   H22   S    
C50   H47   S    
C24   C27   S    
O2    Zn2   S    
C46   H38   S    
C35   H14   S    
C50   H48   S    
O9    C43   S    
C24   H2    S    
C4    H8    S    
C23   C29   S    
C13   N2    A    
C43   H32   S    
C52   C53   S    
C27   H4    S    
C36   H12   S    
C49   H45   S    
C15   C17   A    
O12   C52   S    
C45   H35   S    
C2    O4    A    
C41   H29   S    
C38   H17   S    
C12   C17   A    
C54   H58   S    
C7    H6    S    
C8    H5    S    
C37   H20   S    
C44   H34   S    
C9    C10   A    
C19   O7    A    
C36   H13   S    
C21   C27   S    
C22   C28   S    
C5    C34   A    
C29   C31   S    
C50   C51   S    
C40   H23   S    
C45   H36   S    
C46   H39   S    
C1    C34   S    
C35   H15   S    
C14   N1    A    
C52   H53   S    
C6    C39   S    
C20   O8    A    
C15   O10   S    
C42   H27   S    
C43   H31   S    
C1    O1    A    
C2    O2    A    
C36   H11   S    
C23   C28   S    
C47   C48   S    
C21   C35   S    
C19   O5    A    
O11   C49   S    
C38   H18   S    
O10   C46   S    
C47   H41   S    
C17   C18   A    
C48   H43   S    
C16   C18   A    
C37   H19   S    
C44   C45   S    
C54   H57   S    
C12   O12   S    
C2    C33   S    
C4    C6    A    
C12   C14   A    
C23   H1    S    
C21   C23   S    
C11   O11   S    
C54   H56   S    
C7    C34   A    
C22   C24   S    
C53   H55   S    
C39   H24   S    
C39   H25   S    
C46   C47   S    
O1    Zn1   S    
O7    Zn2   S    
C7    C9    A    
O8    Zn1   S    
C3    H7    S    
C41   C42   S    
C40   H21   S    
C3    C5    A    
C43   C44   S    
C16   N1    A    
C42   H28   S    
C51   H50   S    
C52   H52   S    
C49   C50   S    
C51   H49   S    
O3    Zn2   S    
C21   C30   S    
O4    Zn1   S    
C6    C33   A    
C37   C38   S    
C53   C54   S    
C28   C30   S    
C4    C9    A    
C39   C40   S    
C20   O6    A    
C3    C10   A    
C30   C32   S    
C11   C13   A    
C35   C36   S    
C16   O9    S    
C20   C26   S    
C28   H3    S    
C47   H40   S    
C49   H46   S    
C48   H44   S    
O5    Zn1   S    
C8    C33   A    
C45   H37   S    
C19   C25   S    
C24   C30   S    
C51   H51   S    
C22   C37   S    
C42   H26   S    
C5    C41   S    
C41   H30   S    
N1    Zn1   S    
C8    C10   A    
C38   H16   S    
N2    Zn2   S    
C48   H42   S    
C53   H54   S    
C15   N2    A    
C44   H33   S    
C1    O3    A    
C13   H10   S    
O6    Zn2   S    
C14   H9    S    
