data_mof_unit_26502.cif
_audit_creation_date              2012-12-11T15:52:16-0500
_audit_creation_method            fapswitch 2.2
_symmetry_space_group_name_H-M    P1
_symmetry_Int_Tables_number       1
_space_group_crystal_system       triclinic
_cell_length_a                    10.984353
_cell_length_b                    10.97031
_cell_length_c                    18.813391
_cell_angle_alpha                 90.175174
_cell_angle_beta                  89.881797
_cell_angle_gamma                 119.913998
_cell_volume                      1965.00968113

loop_
_atom_site_label
_atom_site_type_symbol
_atom_type_description
_atom_site_fract_x
_atom_site_fract_y
_atom_site_fract_z
_atom_type_partial_charge
C1    C     C_R   0.519752 0.458624 0.147589 0.536104
C2    C     C_R   0.541926 0.061797 0.147328 0.541473
C3    C     C_R   0.938879 0.479889 0.147600 0.537382
C4    C     C_R   0.451057 0.523930 0.855834 0.543775
C5    C     C_R   0.065414 0.545292 0.853752 0.543797
C6    C     C_R   0.476882 0.928987 0.855398 0.543460
C7    C     C_3   0.716742 0.963879 0.532001 -0.265907
C8    C     C_3   0.037181 0.752897 0.541013 -0.268089
C9    C     C_3   0.246784 0.290622 0.539639 -0.269106
C10   C     C_3   0.027680 0.744983 0.460938 -0.278717
C11   C     C_3   0.717878 0.969418 0.451787 -0.270832
C12   C     C_3   0.256747 0.286571 0.459798 -0.278895
C13   C     C_R   0.522823 0.453151 0.356338 0.547062
C14   C     C_R   0.541900 0.061042 0.353536 0.552213
C15   C     C_R   0.933421 0.478793 0.355547 0.544981
C16   C     C_R   0.458432 0.516820 0.647211 0.549176
C17   C     C_R   0.059100 0.541696 0.646960 0.546900
C18   C     C_R   0.480131 0.935860 0.645262 0.545972
C19   C     C_R   0.485164 0.955704 0.931185 0.016719
C20   C     C_R   0.024475 0.524058 0.927680 0.022377
C21   C     C_R   0.469380 0.516867 0.931832 0.020179
C22   C     C_R   0.991434 0.494288 0.075777 0.011506
C23   C     C_R   0.494687 0.992846 0.078840 0.013338
C24   C     C_R   0.497477 0.506949 0.079536 0.011296
C25   C     C_R   0.400558 0.000726 0.963555 -0.002155
C26   C     C_R   0.936412 0.392725 0.957158 -0.012567
C27   C     C_R   0.598490 0.602176 0.964140 -0.002603
C28   C     C_R   0.921807 0.378475 0.029931 0.020244
C29   C     C_R   0.406910 0.021177 0.036267 0.007147
C30   C     C_R   0.612764 0.596279 0.036875 0.004193
C31   C     C_R   0.559022 0.922784 0.048159 -0.168686
C32   C     C_R   0.068957 0.628363 0.046123 -0.166015
C33   C     C_R   0.363364 0.441936 0.049055 -0.161521
C34   C     C_R   0.085202 0.643087 0.972800 -0.144747
C35   C     C_R   0.555961 0.906226 0.974584 -0.155048
C36   C     C_R   0.349721 0.446614 0.975570 -0.146896
C37   C     C_3   0.392253 0.129777 0.948760 -0.280709
C38   C     C_3   0.927051 0.253530 0.947285 -0.282261
C39   C     C_3   0.736362 0.612350 0.948934 -0.280504
C40   C     C_3   0.918487 0.240656 0.027868 -0.261408
C41   C     C_3   0.400517 0.153481 0.028390 -0.238867
C42   C     C_3   0.751973 0.604571 0.028527 -0.240830
C43   C     C_R   0.492167 0.971258 0.570682 0.022144
C44   C     C_R   0.986731 0.499414 0.579187 0.017991
C45   C     C_R   0.501287 0.484406 0.580062 0.017126
C46   C     C_R   0.965384 0.488598 0.430693 0.020221
C47   C     C_R   0.496574 0.995034 0.422369 0.014879
C48   C     C_R   0.515976 0.473087 0.432015 0.020067
C49   C     C_R   0.566284 0.925785 0.528211 0.047652
C50   C     C_R   0.960871 0.594830 0.542065 0.027779
C51   C     C_R   0.404295 0.364798 0.542319 0.021969
C52   C     C_R   0.951710 0.589275 0.469534 0.042285
C53   C     C_R   0.567709 0.935242 0.455578 0.017462
C54   C     C_R   0.411791 0.360640 0.469903 0.035616
C55   C     C_R   0.404792 0.022001 0.463471 -0.164908
C56   C     C_R   0.966408 0.378147 0.467945 -0.164748
C57   C     C_R   0.629394 0.579786 0.470213 -0.152426
C58   C     C_R   0.973708 0.381887 0.542405 -0.170933
C59   C     C_R   0.403550 0.011357 0.537573 -0.174746
C60   C     C_R   0.622748 0.584428 0.544613 -0.154882
Cr1   Cr    Cr6+3 0.769160 0.541570 0.250690 1.008183
Cr2   Cr    Cr6+3 0.458430 0.227590 0.250690 1.006125
Cr3   Cr    Cr6+3 0.772410 0.230840 0.250690 1.005676
Cr4   Cr    Cr6+3 0.541570 0.769160 0.749310 1.010062
Cr5   Cr    Cr6+3 0.227590 0.458430 0.749310 1.003014
Cr6   Cr    Cr6+3 0.230840 0.772410 0.749310 1.008008
H1    H     H_    0.623334 0.894177 0.079714 0.134147
H2    H     H_    0.115051 0.721479 0.079445 0.133008
H3    H     H_    0.270911 0.376837 0.080701 0.126108
H4    H     H_    0.150190 0.747726 0.951649 0.151206
H5    H     H_    0.613645 0.859710 0.951556 0.150400
H6    H     H_    0.246087 0.391087 0.952832 0.137122
H7    H     H_    0.289121 0.104776 0.925856 0.141803
H8    H     H_    0.022550 0.259535 0.924051 0.143687
H9    H     H_    0.813285 0.715940 0.925980 0.143759
H10   H     H_    0.817148 0.153277 0.047009 0.165116
H11   H     H_    0.499586 0.248337 0.045063 0.150375
H12   H     H_    0.748239 0.505792 0.045194 0.151948
H13   H     H_    0.485613 0.211427 0.919675 0.134804
H14   H     H_    0.827630 0.176982 0.920530 0.147646
H15   H     H_    0.725844 0.519238 0.919727 0.134992
H16   H     H_    0.013128 0.246249 0.052383 0.124676
H17   H     H_    0.302664 0.143528 0.051356 0.147226
H18   H     H_    0.839028 0.702940 0.051508 0.150728
H19   H     H_    0.343932 0.063417 0.439258 0.139528
H20   H     H_    0.967617 0.293119 0.439607 0.117980
H21   H     H_    0.719756 0.660848 0.442721 0.125933
H22   H     H_    0.982058 0.300420 0.570321 0.114811
H23   H     H_    0.337197 0.038186 0.568752 0.121803
H24   H     H_    0.706292 0.670440 0.573601 0.116872
H25   H     H_    0.783415 0.068024 0.557368 0.134809
H26   H     H_    0.974675 0.796503 0.565395 0.122635
H27   H     H_    0.197169 0.184846 0.564636 0.127379
H28   H     H_    0.131045 0.784991 0.434259 0.141879
H29   H     H_    0.728613 0.883815 0.426327 0.126462
H30   H     H_    0.221338 0.352642 0.431909 0.138276
O1    O     O_R   0.911480 0.572650 0.170990 -0.527602
O2    O     O_R   0.427350 0.338830 0.170990 -0.529019
O3    O     O_R   0.661170 0.088520 0.170990 -0.528174
O4    O     O_R   0.572650 0.911480 0.829010 -0.530238
O5    O     O_R   0.338830 0.427350 0.829010 -0.530116
O6    O     O_R   0.088520 0.661170 0.829010 -0.527916
O7    O     O_R   0.640340 0.528970 0.175680 -0.500564
O8    O     O_R   0.471030 0.111370 0.175680 -0.501865
O9    O     O_R   0.888630 0.359660 0.175680 -0.499466
O10   O     O_R   0.528970 0.640340 0.824320 -0.502182
O11   O     O_R   0.111370 0.471030 0.824320 -0.506435
O12   O     O_R   0.359660 0.888630 0.824320 -0.500213
O13   O     O_R   0.909980 0.572450 0.331530 -0.519570
O14   O     O_R   0.427550 0.337530 0.331530 -0.519723
O15   O     O_R   0.662470 0.090020 0.331530 -0.524784
O16   O     O_R   0.572450 0.909980 0.668470 -0.517817
O17   O     O_R   0.337530 0.427550 0.668470 -0.524340
O18   O     O_R   0.090020 0.662470 0.668470 -0.524882
O19   O     O_R   0.638950 0.528780 0.324500 -0.507426
O20   O     O_R   0.471220 0.110170 0.324500 -0.509150
O21   O     O_R   0.889830 0.361050 0.324500 -0.508254
O22   O     O_R   0.528780 0.638950 0.675500 -0.503193
O23   O     O_R   0.110170 0.471220 0.675500 -0.508452
O24   O     O_R   0.361050 0.889830 0.675500 -0.508566
O25   O     O_3   0.666667 0.333333 0.250560 -0.247784
O26   O     O_3   0.333333 0.666667 0.749440 -0.249056
H31   H     H_    0.731410 0.878579 0.553364 0.138970
H32   H     H_    0.146791 0.800642 0.559955 0.174881
H33   H     H_    0.205779 0.359584 0.557119 0.171346
H34   H     H_    0.960935 0.785235 0.438819 0.131515
H35   H     H_    0.791134 0.075642 0.431484 0.162748
H36   H     H_    0.213673 0.178466 0.438292 0.133660

loop_
_geom_bond_atom_site_label_1
_geom_bond_atom_site_label_2
_ccdc_geom_bond_type
C49   C53   A    
C45   C60   A    
C55   C59   A    
Cr6   O6    S    
C9    C51   S    
Cr5   O5    S    
C10   C52   S    
C16   O17   A    
C48   C57   A    
C21   C36   A    
C3    O9    A    
C31   H1    S    
C6    C19   S    
C37   H13   S    
C22   C32   A    
C23   C29   A    
Cr1   O7    S    
C18   O16   A    
C41   H11   S    
Cr3   O21   S    
C14   O20   A    
Cr4   O16   S    
C10   H28   S    
C11   H29   S    
C41   H17   S    
C46   C52   A    
C33   C36   A    
Cr4   O22   S    
Cr1   O25   S    
C59   H23   S    
C15   O13   A    
Cr3   O3    S    
C25   C37   S    
Cr2   O2    S    
C18   O24   A    
C44   C58   A    
Cr1   O19   S    
C50   C52   A    
Cr6   O26   S    
C8    H26   S    
C39   H9    S    
Cr3   O9    S    
C1    O7    A    
C11   C53   S    
C43   C59   A    
C47   C53   A    
C20   C34   A    
C21   C27   A    
Cr1   O13   S    
C22   C28   A    
C27   C30   A    
C37   C41   S    
C33   H3    S    
Cr3   O25   S    
C17   O18   A    
C7    C11   S    
C39   C42   S    
Cr2   O8    S    
C56   C58   A    
C25   C29   A    
C14   O15   A    
Cr1   O1    S    
C40   H16   S    
C48   C54   A    
C42   H18   S    
C39   H15   S    
C27   C39   S    
C5    C20   S    
C34   H4    S    
C26   C38   S    
C57   C60   A    
C4    O10   A    
C9    H33   S    
C40   H10   S    
C23   C31   A    
C55   H19   S    
C11   H35   S    
C28   C40   S    
Cr2   O20   S    
C13   O14   A    
C16   O22   A    
C3    O1    A    
C56   H20   S    
Cr2   O14   S    
C2    O8    A    
Cr6   O12   S    
C7    H25   S    
C4    O5    A    
Cr5   O23   S    
Cr5   O26   S    
C7    C49   S    
C13   O19   A    
C8    H32   S    
C2    O3    A    
C42   H12   S    
C31   C35   A    
C9    H27   S    
C47   C55   A    
C5    O11   A    
C44   C50   A    
C37   H7    S    
C5    O6    A    
C6    O12   A    
Cr6   O18   S    
C29   C41   S    
Cr5   O17   S    
C43   C49   A    
C7    H31   S    
C20   C26   A    
C58   H22   S    
C16   C45   S    
C13   C48   S    
Cr4   O10   S    
C14   C47   S    
C12   H36   S    
C6    O4    A    
C60   H24   S    
C26   C28   A    
C24   C33   A    
C32   H2    S    
C51   C54   A    
C15   O21   A    
C1    O2    A    
C19   C35   A    
C18   C43   S    
C38   C40   S    
C4    C21   S    
C38   H14   S    
Cr4   O26   S    
C38   H8    S    
C8    C50   S    
C30   C42   S    
Cr3   O15   S    
C19   C25   A    
C9    C12   S    
C24   C30   A    
C17   C44   S    
C17   O23   A    
C35   H5    S    
C57   H21   S    
Cr4   O4    S    
C1    C24   S    
C8    C10   S    
C46   C56   A    
C2    C23   S    
C45   C51   A    
C12   H30   S    
C3    C22   S    
Cr6   O24   S    
C15   C46   S    
C10   H34   S    
Cr5   O11   S    
Cr2   O25   S    
C12   C54   S    
C36   H6    S    
C32   C34   A    
