data_mof_unit_48271.cif
_audit_creation_date              2012-12-11T14:14:12-0500
_audit_creation_method            fapswitch 2.2
_symmetry_space_group_name_H-M    P1
_symmetry_Int_Tables_number       1
_space_group_crystal_system       triclinic
_cell_length_a                    17.135424
_cell_length_b                    7.249731
_cell_length_c                    16.929691
_cell_angle_alpha                 89.921188
_cell_angle_beta                  99.44694
_cell_angle_gamma                 90.064912
_cell_volume                      2074.60294133

loop_
_atom_site_label
_atom_site_type_symbol
_atom_type_description
_atom_site_fract_x
_atom_site_fract_y
_atom_site_fract_z
_atom_type_partial_charge
O1    O     O_R   0.414560 0.494370 0.416770 -0.538875
O2    O     O_R   0.585440 0.994370 0.583230 -0.541229
O3    O     O_R   0.578370 0.819590 0.429320 -0.543343
O4    O     O_R   0.421630 0.319590 0.570680 -0.539307
C1    C     C_R   0.604316 0.656094 0.413164 0.709840
C2    C     C_R   0.396875 0.155787 0.587691 0.707247
O5    O     O_R   0.414740 0.823790 0.407360 -0.531116
O6    O     O_R   0.585260 0.323790 0.592640 -0.531535
O7    O     O_R   0.420650 0.998510 0.561120 -0.537828
O8    O     O_R   0.579350 0.498510 0.438880 -0.540745
C3    C     C_R   0.388509 0.656550 0.385619 0.750740
C4    C     C_R   0.611449 0.156512 0.614398 0.742007
O9    O     O_3   0.502130 0.662240 0.550470 -0.375488
O10   O     O_3   0.497870 0.162240 0.449530 -0.380084
V1    V     V_3+5 0.499600 0.935390 0.490640 1.409152
V2    V     V_3+5 0.500400 0.435390 0.509360 1.414357
C5    C     C_2   0.806242 0.246991 0.759659 0.065736
C6    C     C_2   0.193557 0.746577 0.240466 0.067491
C7    C     C_2   0.824497 0.102619 0.811724 -0.183616
C8    C     C_2   0.175451 0.602513 0.188321 -0.183967
C9    C     C_2   0.747162 0.227892 0.683718 0.166175
C10   C     C_2   0.252691 0.727372 0.316383 0.163128
C11   C     C_2   0.674413 0.154901 0.684682 -0.304477
C12   C     C_2   0.325489 0.655070 0.315360 -0.308722
H1    H     H_    0.657969 0.106910 0.740449 0.112026
H2    H     H_    0.341921 0.607809 0.259548 0.111667
C13   C     C_R   0.335551 0.154401 0.640478 -0.046676
C14   C     C_R   0.666967 0.657316 0.361078 -0.068730
C15   C     C_R   0.168177 0.115287 0.865213 -0.059363
C16   C     C_R   0.831992 0.613329 0.135133 -0.069680
C17   C     C_R   0.295074 0.998058 0.841454 -0.152400
C18   C     C_R   0.713636 0.468117 0.168568 -0.113415
C19   C     C_R   0.239632 0.021227 0.892609 0.108663
C20   C     C_R   0.765169 0.498378 0.113847 0.116488
C21   C     C_R   0.155408 0.193806 0.787344 0.109926
C22   C     C_R   0.840671 0.713458 0.207952 0.108876
C23   C     C_R   0.218463 0.196208 0.741062 0.091735
C24   C     C_R   0.778763 0.708173 0.255321 0.083018
C25   C     C_R   0.286186 0.083024 0.765583 0.058907
C26   C     C_R   0.721443 0.564321 0.241645 0.060416
C27   C     C_R   0.345068 0.061466 0.715240 0.117781
C28   C     C_R   0.670328 0.528049 0.298819 0.094720
C29   C     C_R   0.272014 0.275901 0.620365 -0.294869
C30   C     C_R   0.717935 0.810193 0.368068 -0.292881
C31   C     C_R   0.216772 0.306466 0.671136 -0.003054
C32   C     C_R   0.771586 0.840344 0.315614 -0.006251
H3    H     H_    0.268694 0.358430 0.566348 0.119279
H4    H     H_    0.713309 0.913583 0.413373 0.125843
H5    H     H_    0.346614 0.915446 0.863372 0.144440
H6    H     H_    0.664291 0.376532 0.150131 0.134704
O11   O     O_R   0.920750 0.773600 0.061260 -0.530086
O12   O     O_R   0.079250 0.273600 0.938740 -0.528547
O13   O     O_R   0.085340 0.439850 0.092570 -0.519640
O14   O     O_R   0.914660 0.939850 0.907430 -0.519397
C33   C     C_R   0.111552 0.607339 0.115889 0.736906
C34   C     C_R   0.888425 0.107367 0.884137 0.735757
O15   O     O_R   0.921720 0.444130 0.070790 -0.536619
O16   O     O_R   0.078280 0.944130 0.929210 -0.536616
O17   O     O_R   0.914480 0.269530 0.916840 -0.546571
O18   O     O_R   0.085520 0.769530 0.083160 -0.546662
C35   C     C_R   0.895911 0.611566 0.085480 0.709094
C36   C     C_R   0.103941 0.111926 0.914418 0.707659
O19   O     O_3   0.997840 0.601520 0.949550 -0.378025
O20   O     O_3   0.002160 0.101520 0.050450 -0.380604
V3    V     V_3+5 0.000400 0.328340 0.009360 1.458303
V4    V     V_3+5 0.999600 0.828340 0.990640 1.459329
C37   C     C_3   0.846033 0.432841 0.774560 -0.655122
H7    H     H_    0.823896 0.533008 0.726483 0.197269
H8    H     H_    0.832793 0.492155 0.831222 0.243973
H9    H     H_    0.910862 0.419068 0.777088 0.189502
C38   C     C_3   0.153512 0.932103 0.225692 -0.661392
H10   H     H_    0.175528 0.032019 0.273834 0.197043
H11   H     H_    0.166694 0.992282 0.169089 0.244533
H12   H     H_    0.088677 0.917586 0.223138 0.189100
C39   C     C_3   0.071312 0.245673 0.751035 -0.705108
H13   H     H_    0.029125 0.138965 0.765225 0.163590
H14   H     H_    0.055214 0.379637 0.775551 0.235099
H15   H     H_    0.062214 0.250694 0.684763 0.195303
C40   C     C_3   0.920914 0.796611 0.240152 -0.700625
H16   H     H_    0.968574 0.696964 0.233406 0.158987
H17   H     H_    0.930377 0.924546 0.206908 0.242368
H18   H     H_    0.928383 0.825732 0.305200 0.192620
C41   C     C_2   0.786617 0.919069 0.792147 0.339482
H19   H     H_    0.773500 0.871726 0.730606 0.056779
O21   O     O_2   0.768489 0.820918 0.844964 -0.531707
C42   C     C_2   0.213415 0.419092 0.207850 0.337848
H20   H     H_    0.226604 0.371403 0.269385 0.056241
O22   O     O_2   0.231497 0.321397 0.155002 -0.532302
C43   C     C_3   0.770392 0.292906 0.605797 -0.763500
H21   H     H_    0.834038 0.330493 0.613830 0.208118
H22   H     H_    0.760433 0.180874 0.560542 0.182575
H23   H     H_    0.734920 0.415506 0.582903 0.212586
C44   C     C_3   0.229451 0.791368 0.394351 -0.758485
H24   H     H_    0.165797 0.828551 0.386361 0.205943
H25   H     H_    0.239435 0.678890 0.439506 0.185360
H26   H     H_    0.264893 0.913988 0.417335 0.213397
C45   C     C_3   0.418792 0.947887 0.743699 -0.781747
H27   H     H_    0.401961 0.802003 0.751913 0.218967
H28   H     H_    0.462590 0.949050 0.702560 0.212939
H29   H     H_    0.450101 0.003898 0.801306 0.199358
C46   C     C_3   0.621169 0.353069 0.295803 -0.728440
H30   H     H_    0.635138 0.248948 0.252665 0.203824
H31   H     H_    0.634143 0.280971 0.354321 0.216144
H32   H     H_    0.557223 0.387147 0.281938 0.200295
C47   C     C_2   0.167792 0.474911 0.654237 0.368245
H33   H     H_    0.148456 0.518615 0.592781 0.035382
O23   O     O_2   0.153197 0.572973 0.708542 -0.524070
C48   C     C_2   0.807660 0.026994 0.318456 0.356350
H34   H     H_    0.820965 0.099739 0.375093 0.040612
O24   O     O_2   0.817867 0.106161 0.257273 -0.527102
C49   C     C_3   0.258779 0.938112 0.975490 -0.709202
H35   H     H_    0.217482 0.981670 0.015902 0.211019
H36   H     H_    0.257674 0.785308 0.971063 0.210171
H37   H     H_    0.318845 0.982479 0.004129 0.205394
C50   C     C_3   0.747485 0.400583 0.034102 -0.701562
H38   H     H_    0.781272 0.457838 0.989141 0.206987
H39   H     H_    0.761112 0.251453 0.042563 0.219145
H40   H     H_    0.683847 0.416314 0.008615 0.196826

loop_
_geom_bond_atom_site_label_1
_geom_bond_atom_site_label_2
_ccdc_geom_bond_type
C7    C34   S    
O16   C36   A    
C44   H24   S    
C49   H35   S    
O1    C3    A    
O2    C4    A    
C2    O7    A    
C45   H27   S    
C25   C27   A    
C9    C43   S    
O5    C3    A    
C47   O23   D    
C4    C11   S    
C21   C39   S    
C46   H30   S    
C21   C23   A    
C12   H2    S    
C42   O22   D    
C50   H38   S    
C15   C19   A    
C3    C12   S    
C48   H34   S    
C14   C28   A    
C27   C45   S    
O16   V4    S    
C41   H19   S    
C30   C32   A    
C50   H39   S    
C32   C48   S    
C17   C19   A    
C19   C49   S    
C43   H22   S    
O13   V3    S    
O5    V1    S    
O19   V4    S    
O18   V4    S    
O6    V2    S    
C33   O18   A    
C17   H5    S    
C8    C33   S    
C7    C41   S    
C45   H28   S    
C31   C47   S    
O13   C33   A    
O14   C34   A    
C5    C37   S    
C16   C20   A    
C37   H7    S    
O4    C2    A    
C40   H17   S    
C42   H20   S    
C20   C50   S    
C14   C30   A    
C5    C9    S    
C8    C42   S    
C37   H8    S    
O11   V4    S    
C18   C20   A    
O4    V2    S    
C39   H13   S    
C38   H12   S    
C1    C14   S    
C29   C31   A    
C13   C27   A    
C2    C13   S    
O6    C4    A    
C50   H40   S    
C49   H36   S    
O1    V2    S    
C43   H23   S    
O2    V1    S    
C39   H14   S    
C18   H6    S    
C41   O21   D    
C44   H26   S    
C9    C11   D    
C10   C44   S    
C10   C12   D    
C16   C35   S    
C23   C31   A    
C28   C46   S    
C45   H29   S    
O3    V1    S    
C38   H11   S    
C6    C38   S    
C15   C36   S    
C6    C10   S    
O15   V3    S    
O3    C1    A    
C22   C40   S    
C40   H18   S    
C48   O24   D    
O15   C35   A    
O14   V4    S    
C46   H32   S    
C47   H33   S    
C15   C21   A    
C34   O17   A    
C16   C22   A    
C37   H9    S    
O20   V3    S    
C22   C24   A    
O7    V1    S    
C1    O8    A    
C23   C25   A    
O8    V2    S    
O17   V3    S    
C24   C26   A    
O11   C35   A    
C44   H25   S    
C26   C28   A    
C5    C7    D    
C17   C25   A    
C49   H37   S    
C6    C8    D    
C18   C26   A    
C39   H15   S    
C24   C32   A    
C40   H16   S    
C13   C29   A    
C38   H10   S    
C11   H1    S    
C46   H31   S    
O9    V2    S    
O10   V1    S    
O12   C36   A    
C43   H21   S    
C29   H3    S    
O12   V3    S    
C30   H4    S    
