data_mof_unit_15408.cif
_audit_creation_date              2012-12-10T16:50:18-0500
_audit_creation_method            fapswitch 2.2
_symmetry_space_group_name_H-M    P1
_symmetry_Int_Tables_number       1
_space_group_crystal_system       triclinic
_cell_length_a                    23.464648
_cell_length_b                    8.688048
_cell_length_c                    7.621091
_cell_angle_alpha                 103.861092
_cell_angle_beta                  94.989056
_cell_angle_gamma                 95.384984
_cell_volume                      1492.09208507

loop_
_atom_site_label
_atom_site_type_symbol
_atom_type_description
_atom_site_fract_x
_atom_site_fract_y
_atom_site_fract_z
_atom_type_partial_charge
C1    C     C_R   0.498250 0.199859 0.452557 0.854994
C2    C     C_R   0.501749 0.800141 0.547443 0.854994
C3    C     C_R   0.241129 0.592600 0.388377 -0.088560
C4    C     C_R   0.758871 0.407400 0.611623 -0.088560
C5    C     C_R   0.300688 0.591768 0.394491 -0.192460
C6    C     C_R   0.699312 0.408231 0.605509 -0.192460
C7    C     C_R   0.328934 0.501466 0.497267 -0.029629
C8    C     C_R   0.671066 0.498534 0.502733 -0.029630
C9    C     C_R   0.296735 0.408650 0.589305 -0.143126
C10   C     C_R   0.703265 0.591350 0.410695 -0.143125
C11   C     C_R   0.237399 0.410652 0.584784 -0.109219
C12   C     C_R   0.762601 0.589348 0.415216 -0.109218
C13   C     C_R   0.209257 0.502595 0.484411 0.338302
C14   C     C_R   0.790743 0.497404 0.515589 0.338302
C15   C     C_2   0.497347 0.030701 0.427463 -0.300304
C16   C     C_2   0.502653 0.969299 0.572537 -0.300304
C17   C     C_R   0.391342 0.499259 0.499913 0.788740
C18   C     C_R   0.608658 0.500741 0.500086 0.788739
C19   C     C_R   0.887331 0.635581 0.585780 0.562076
C20   C     C_R   0.112669 0.364419 0.414220 0.562077
C21   C     C_R   0.873367 0.355535 0.447925 0.531638
C22   C     C_R   0.126633 0.644465 0.552075 0.531638
C23   C     C_R   0.933548 0.350412 0.448707 -0.091677
C24   C     C_R   0.066452 0.649588 0.551293 -0.091678
C25   C     C_R   0.970041 0.497513 0.505964 -0.005782
C26   C     C_R   0.029959 0.502487 0.494036 -0.005782
C27   C     C_R   0.946677 0.640158 0.575470 -0.034727
C28   C     C_R   0.053323 0.359842 0.424530 -0.034727
C29   C     C_R   0.958509 0.206385 0.387996 -0.008346
C30   C     C_R   0.041491 0.793615 0.612004 -0.008346
C31   C     C_R   0.017599 0.214374 0.371640 -0.101227
C32   C     C_R   0.982401 0.785626 0.628360 -0.101227
Cu1   Cu    Cu3+1 0.506340 0.517380 0.684380 1.152139
Cu2   Cu    Cu3+1 0.493660 0.482620 0.315620 1.152139
H1    H     H_    0.036296 0.104442 0.324493 0.203758
H2    H     H_    0.963704 0.895557 0.675506 0.203758
H3    H     H_    0.219718 0.662950 0.309119 0.160657
H4    H     H_    0.780282 0.337050 0.690881 0.160657
H5    H     H_    0.324792 0.662296 0.320098 0.176562
H6    H     H_    0.675207 0.337703 0.679902 0.176562
H7    H     H_    0.316834 0.330972 0.660276 0.213418
H8    H     H_    0.683166 0.669028 0.339724 0.213419
H9    H     H_    0.213126 0.339680 0.658252 0.165005
H10   H     H_    0.786874 0.660320 0.341748 0.165005
H11   H     H_    0.492284 0.956565 0.288917 0.205084
H12   H     H_    0.507716 0.043435 0.711083 0.205084
N1    N     N_R   0.851980 0.495635 0.519253 -0.455931
N2    N     N_R   0.148020 0.504365 0.480747 -0.455931
N3    N     N_2   0.484110 0.456420 0.038520 0.093942
N4    N     N_2   0.515890 0.543580 0.961480 0.093942
O1    O     O_R   0.504120 0.286130 0.619770 -0.557684
O2    O     O_R   0.495880 0.713870 0.380230 -0.557684
O3    O     O_R   0.493410 0.256770 0.308360 -0.552345
O4    O     O_R   0.506590 0.743230 0.691640 -0.552345
O5    O     O_R   0.423230 0.514630 0.655730 -0.522393
O6    O     O_R   0.576770 0.485370 0.344270 -0.522393
O7    O     O_R   0.412530 0.485280 0.344320 -0.537713
O8    O     O_R   0.587470 0.514720 0.655680 -0.537715
O9    O     O_2   0.864865 0.770521 0.660196 -0.532357
O10   O     O_2   0.135135 0.229479 0.339804 -0.532357
O11   O     O_2   0.836098 0.224421 0.369186 -0.546985
O12   O     O_2   0.163902 0.775578 0.630814 -0.546985
C33   C     C_2   0.925989 0.044815 0.354146 0.432738
H13   H     H_    0.890449 0.023733 0.430476 0.136618
O13   O     O_2   0.939929 0.931433 0.244185 -0.534678
C34   C     C_2   0.074011 0.955185 0.645854 0.432737
H14   H     H_    0.109551 0.976267 0.569524 0.136618
O14   O     O_2   0.060071 0.068566 0.755815 -0.534678
S1    S     S_3+6 0.416128 0.361480 0.944962 0.118092
O15   O     O_2   0.375336 0.485637 0.950692 -0.322597
O16   O     O_2   0.414231 0.257991 0.756361 -0.323740
O17   O     O_3   0.393326 0.238686 0.071398 -0.499628
H15   H     H_    0.351497 0.210505 0.032120 0.357347
S2    S     S_3+6 0.583872 0.638520 0.055038 0.118092
O18   O     O_2   0.585769 0.742009 0.243639 -0.323738
O19   O     O_2   0.624664 0.514363 0.049308 -0.322599
O20   O     O_3   0.606674 0.761314 0.928602 -0.499631
H16   H     H_    0.648503 0.789490 0.967875 0.357349

loop_
_geom_bond_atom_site_label_1
_geom_bond_atom_site_label_2
_ccdc_geom_bond_type
Cu1   O5    S    
C22   N2    A    
C33   O13   D    
Cu2   O6    S    
Cu1   O8    S    
C10   H8    S    
C34   O14   D    
C29   C33   S    
O20   H16   S    
S2    O19   D    
C32   H2    S    
C24   C26   A    
N4    S2    S    
C19   N1    A    
C15   C16   D    
S1    O16   D    
C1    O3    A    
Cu2   O2    S    
C18   O8    A    
C7    C17   S    
S2    O20   S    
Cu2   O7    S    
C11   H9    S    
C1    C15   S    
C20   O10   S    
C19   C27   A    
C17   O5    A    
C21   O11   S    
C3    C13   A    
C18   O6    A    
C34   H14   S    
N3    S1    S    
C10   C12   A    
S2    O18   D    
C6    H6    S    
C4    C6    A    
C2    O4    A    
C16   H12   S    
C5    C7    A    
C6    C8    A    
C20   C28   A    
C19   O9    S    
C25   C26   A    
C8    C18   S    
S1    O17   S    
C22   O12   S    
C1    O1    A    
Cu1   Cu2   S    
C30   C34   S    
C9    C11   A    
C20   N2    A    
C2    O2    A    
C12   C14   A    
C21   C23   A    
C31   H1    S    
Cu1   O1    S    
C15   H11   S    
C23   C29   A    
C2    C16   S    
Cu1   O4    S    
C7    C9    A    
Cu2   N3    S    
C27   C32   A    
C26   C28   A    
C28   C31   A    
C4    H4    S    
O17   H15   S    
C3    C5    A    
C13   N2    S    
C14   N1    S    
C25   C27   A    
C9    H7    S    
C5    H5    S    
Cu1   N4    S    
C29   C31   A    
C30   C32   A    
C11   C13   A    
C22   C24   A    
C23   C25   A    
C4    C14   A    
S1    O15   D    
C24   C30   A    
C33   H13   S    
C3    H3    S    
Cu2   O3    S    
C8    C10   A    
N3    N4    D    
C12   H10   S    
C17   O7    A    
C21   N1    A    
