data_mof_unit_17287.cif
_audit_creation_date              2012-12-10T16:52:08-0500
_audit_creation_method            fapswitch 2.2
_symmetry_space_group_name_H-M    P1
_symmetry_Int_Tables_number       1
_space_group_crystal_system       triclinic
_cell_length_a                    7.927489
_cell_length_b                    8.790254
_cell_length_c                    14.861027
_cell_angle_alpha                 91.834904
_cell_angle_beta                  88.822745
_cell_angle_gamma                 91.34201
_cell_volume                      1034.5673431

loop_
_atom_site_label
_atom_site_type_symbol
_atom_type_description
_atom_site_fract_x
_atom_site_fract_y
_atom_site_fract_z
_atom_type_partial_charge
C1    C     C_R   0.543470 0.793094 0.502431 0.866370
C2    C     C_R   0.524903 0.654683 0.812272 -0.279237
C3    C     C_R   0.473753 0.533084 0.232357 -0.206267
C4    C     C_R   0.516216 0.509559 0.770063 -0.200825
C5    C     C_R   0.530471 0.667376 0.191024 0.538863
C6    C     C_R   0.488067 0.378734 0.821639 0.475915
C7    C     C_R   0.517057 0.677599 0.096294 -0.109459
C8    C     C_R   0.426985 0.401404 0.909432 -0.109017
C9    C     C_R   0.442728 0.552886 0.047935 -0.128889
C10   C     C_R   0.456500 0.543270 0.954148 -0.117715
C11   C     C_R   0.363134 0.432089 0.093325 -0.002108
C12   C     C_R   0.456836 0.207166 0.503904 0.832659
C13   C     C_R   0.514820 0.669272 0.906218 0.008286
C14   C     C_R   0.577651 0.805110 0.048237 0.359289
C15   C     C_R   0.343306 0.283172 0.955277 0.353883
C16   C     C_3   0.459271 0.865551 0.284389 -0.286774
C17   C     C_3   0.539723 0.181899 0.715118 -0.220598
C18   C     C_3   0.572117 0.055296 0.096758 0.211939
C19   C     C_3   0.626800 0.154201 0.177644 -0.908052
C20   C     C_3   0.194750 0.121362 0.861725 0.193202
C21   C     C_3   0.186079 0.957289 0.827482 -0.859854
C22   C     C_3   0.785716 0.950815 0.899902 -0.249645
C23   C     C_R   0.566711 0.803616 0.952943 0.429444
C24   C     C_3   0.025134 0.247598 0.085715 -0.376157
C25   C     C_3   0.845536 0.991733 0.475603 -0.192233
C26   C     C_3   0.202435 0.991340 0.596543 -0.289496
C27   C     C_3   0.941614 0.296834 0.352982 0.171577
C28   C     C_3   0.037762 0.159963 0.313371 -0.942190
C29   C     C_3   0.042639 0.614467 0.668959 0.215356
C30   C     C_3   0.924524 0.657703 0.745876 -0.939698
C31   C     C_R   0.292563 0.307971 0.044553 0.403755
C32   C     C_2   0.566254 0.955246 0.513796 0.160708
C33   C     C_2   0.431944 0.046096 0.509837 0.187562
C34   C     C_R   0.505887 0.502372 0.673074 0.825737
C35   C     C_R   0.494371 0.509694 0.327519 0.885161
C36   C     C_R   0.372726 0.428503 0.185891 -0.276213
H1    H     H_    0.318360 0.334834 0.221517 0.194072
H2    H     H_    0.597321 0.120693 0.035222 0.192379
H3    H     H_    0.730330 0.101268 0.212579 0.290353
H4    H     H_    0.670111 0.268770 0.156337 0.218737
H5    H     H_    0.522002 0.166220 0.227289 0.221744
H6    H     H_    0.208849 0.196713 0.803354 0.106546
H7    H     H_    0.075010 0.147882 0.897820 0.111730
H8    H     H_    0.086887 0.943445 0.776370 0.188657
H9    H     H_    0.157991 0.881216 0.884352 0.255635
H10   H     H_    0.308952 0.924842 0.796704 0.273434
H11   H     H_    0.818390 0.008259 0.836373 0.197419
H12   H     H_    0.550796 0.753448 0.771924 0.182793
H13   H     H_    0.854279 0.841989 0.900254 0.142507
H14   H     H_    0.830088 0.025637 0.956309 0.189248
H15   H     H_    0.985740 0.286966 0.019026 0.145337
H16   H     H_    0.942697 0.149138 0.102571 0.242188
H17   H     H_    0.005031 0.340254 0.137172 0.180405
H18   H     H_    0.794464 0.993637 0.406538 0.141205
H19   H     H_    0.911568 0.883634 0.483463 0.232043
H20   H     H_    0.940710 0.084364 0.484655 0.232847
H21   H     H_    0.170338 0.108556 0.619983 0.172571
H22   H     H_    0.290668 0.939591 0.643319 0.130810
H23   H     H_    0.371688 0.907966 0.233952 0.171403
H24   H     H_    0.084868 0.921942 0.599442 0.216793
H25   H     H_    0.919362 0.377581 0.298726 0.159429
H26   H     H_    0.819660 0.255624 0.380436 0.179449
H27   H     H_    0.123648 0.113613 0.363199 0.301023
H28   H     H_    0.952193 0.066779 0.290102 0.228852
H29   H     H_    0.114794 0.191966 0.254988 0.274738
H30   H     H_    0.152754 0.694287 0.672387 0.163569
H31   H     H_    0.075038 0.494001 0.680540 0.155625
H32   H     H_    0.835434 0.562049 0.757743 0.278683
H33   H     H_    0.998433 0.674135 0.808071 0.209009
H34   H     H_    0.510308 0.964464 0.323837 0.160077
H35   H     H_    0.856726 0.762954 0.731335 0.274201
H36   H     H_    0.385804 0.794317 0.331912 0.178759
H37   H     H_    0.415735 0.211804 0.688334 0.097335
H38   H     H_    0.543679 0.055998 0.716066 0.194840
H39   H     H_    0.646392 0.219369 0.671407 0.216793
H40   H     H_    0.434073 0.031309 0.102819 0.185975
N1    N     N_2   0.950330 0.457950 0.475660 0.157778
N2    N     N_2   0.049670 0.542050 0.524340 0.162004
O1    O     O_R   0.389250 0.738570 0.505970 -0.601615
O2    O     O_3   0.563609 0.239268 0.802971 -0.575439
O3    O     O_3   0.666216 0.920901 0.093037 -0.596982
O4    O     O_3   0.332757 0.136761 0.919302 -0.525813
O5    O     O_3   0.609121 0.931386 0.904737 -0.567313
O6    O     O_3   0.193290 0.199037 0.085891 -0.624038
O7    O     O_3   0.720748 0.013257 0.543089 -0.652832
O8    O     O_3   0.267130 0.989780 0.507279 -0.617627
O9    O     O_3   0.042175 0.367648 0.419131 -0.518350
O10   O     O_3   0.963989 0.627450 0.586040 -0.534914
O11   O     O_R   0.610750 0.261430 0.494030 -0.637480
O12   O     O_R   0.678390 0.711620 0.490370 -0.575333
O13   O     O_R   0.321610 0.288380 0.509630 -0.566641
O14   O     O_R   0.355420 0.513510 0.639950 -0.693033
O15   O     O_R   0.644580 0.486490 0.360050 -0.650354
O16   O     O_R   0.644560 0.486560 0.624350 -0.577357
O17   O     O_R   0.355440 0.513440 0.375650 -0.582723
O18   O     O_3   0.595607 0.786954 0.243230 -0.580144
Zn1   Zn    Zn3+2 0.306940 0.517990 0.510420 1.020026
Zn2   Zn    Zn3+2 0.693060 0.482010 0.489580 1.023691

loop_
_geom_bond_atom_site_label_1
_geom_bond_atom_site_label_2
_ccdc_geom_bond_type
C24   H16   S    
C1    O12   A    
C20   O4    S    
C12   O13   A    
C16   H36   S    
C25   H20   S    
C5    O18   S    
C30   H35   S    
N1    N2    D    
C23   O5    S    
C11   C36   A    
O16   Zn2   S    
C18   O3    S    
C13   C23   A    
C18   C19   S    
C2    C13   A    
C29   O10   S    
C27   H25   S    
C29   H31   S    
C7    C14   A    
C9    C10   A    
C22   H14   S    
C24   H15   S    
C22   H11   S    
C11   C31   A    
C17   H37   S    
O14   Zn1   S    
C15   O4    S    
C21   H9    S    
C35   O15   A    
C4    C34   S    
C16   O18   S    
C25   H19   S    
C12   O11   A    
C16   H34   S    
C25   H18   S    
C4    C6    A    
C5    C7    A    
C6    C8    A    
C2    H12   S    
C24   H17   S    
C1    C32   S    
C31   O6    S    
C16   H23   S    
C14   C23   A    
C2    C4    A    
C33   O8    S    
C29   C30   S    
C27   H26   S    
C21   H8    S    
C26   H22   S    
C6    O2    S    
C3    C35   S    
C26   O8    S    
N2    Zn1   S    
C25   O7    S    
N1    Zn2   S    
O13   Zn1   S    
C27   O9    S    
C9    C11   A    
C19   H3    S    
C22   H13   S    
C28   H28   S    
C8    C15   A    
C17   H38   S    
C1    O1    A    
C30   H33   S    
C21   H10   S    
N2    O10   S    
C7    C9    A    
C36   H1    S    
C18   H40   S    
O1    Zn1   S    
C34   O16   A    
C3    C5    A    
C10   C13   A    
C20   H6    S    
O17   Zn1   S    
C15   C31   A    
C35   O17   A    
O11   Zn2   S    
C22   O5    S    
C28   H29   S    
C24   O6    S    
C32   C33   D    
C3    C36   A    
C32   O7    S    
C17   O2    S    
C18   H2    S    
C26   H21   S    
C34   O14   A    
C20   H7    S    
C19   H4    S    
C29   H30   S    
C28   H27   S    
C20   C21   S    
N1    O9    S    
C8    C10   A    
C27   C28   S    
C17   H39   S    
C14   O3    S    
C12   C33   S    
C26   H24   S    
O15   Zn2   S    
O12   Zn2   S    
C30   H32   S    
C19   H5    S    
