data_mof_unit_15054.cif
_audit_creation_date              2012-12-10T18:57:09-0500
_audit_creation_method            fapswitch 2.2
_symmetry_space_group_name_H-M    P1
_symmetry_Int_Tables_number       1
_space_group_crystal_system       triclinic
_cell_length_a                    10.62844
_cell_length_b                    9.853455
_cell_length_c                    10.666705
_cell_angle_alpha                 90.01593
_cell_angle_beta                  90.358326
_cell_angle_gamma                 89.980899
_cell_volume                      1117.06852021

loop_
_atom_site_label
_atom_site_type_symbol
_atom_type_description
_atom_site_fract_x
_atom_site_fract_y
_atom_site_fract_z
_atom_type_partial_charge
C1    C     C_R   0.260575 0.499955 0.499343 0.921963
C2    C     C_R   0.476262 0.623524 0.935920 0.142425
C3    C     C_R   0.476525 0.500777 0.128340 -0.100761
C4    C     C_R   0.474807 0.500899 0.871170 -0.098018
C5    C     C_R   0.450037 0.379551 0.064483 -0.224715
C6    C     C_R   0.449159 0.379619 0.934846 -0.227630
C7    C     C_3   0.566294 0.739811 0.928799 -0.494131
C8    C     C_3   0.567138 0.739806 0.070927 -0.472287
C9    C     C_R   0.063698 0.490099 0.383466 0.148605
C10   C     C_R   0.932556 0.490428 0.384866 0.145184
C11   C     C_R   0.871895 0.499913 0.501475 -0.127084
C12   C     C_R   0.739363 0.499934 0.501137 0.930797
C13   C     C_R   0.127954 0.499905 0.499147 -0.124578
C14   C     C_R   0.936044 0.509593 0.617187 0.155605
C15   C     C_R   0.067246 0.509581 0.615782 0.141889
C16   C     C_3   0.133461 0.479743 0.259727 -0.887465
C17   C     C_3   0.854563 0.481604 0.264634 -0.887940
C18   C     C_3   0.866023 0.519339 0.740906 -0.903654
C19   C     C_3   0.145179 0.518734 0.736014 -0.880721
C20   C     C_R   0.571218 0.071896 0.584648 -0.071909
C21   C     C_R   0.428839 0.071912 0.415299 -0.070139
C22   C     C_R   0.571237 0.928081 0.584633 -0.072438
C23   C     C_R   0.428862 0.928092 0.415282 -0.072686
C24   C     C_R   0.497104 0.500052 0.259806 0.859675
C25   C     C_R   0.495393 0.500081 0.740001 0.859009
C26   C     C_R   0.477080 0.623466 0.063730 0.131179
H1    H     H_    0.438848 0.284091 0.113531 0.167495
H2    H     H_    0.371964 0.873673 0.347505 0.129104
H3    H     H_    0.236912 0.479226 0.269488 0.223421
H4    H     H_    0.107517 0.383830 0.211400 0.242893
H5    H     H_    0.109217 0.567832 0.199326 0.240280
H6    H     H_    0.794886 0.389176 0.266838 0.244486
H7    H     H_    0.792872 0.572164 0.257050 0.226623
H8    H     H_    0.909949 0.476989 0.177376 0.245078
H9    H     H_    0.762427 0.518095 0.731324 0.222974
H10   H     H_    0.891456 0.431862 0.801578 0.243895
H11   H     H_    0.890820 0.615762 0.788937 0.239061
H12   H     H_    0.437539 0.284193 0.885656 0.171167
H13   H     H_    0.205826 0.610388 0.733060 0.240129
H14   H     H_    0.089672 0.525351 0.823085 0.246096
H15   H     H_    0.205870 0.427433 0.744695 0.233791
H16   H     H_    0.658300 0.710871 0.887448 0.202958
H17   H     H_    0.523262 0.831937 0.112056 0.201728
H18   H     H_    0.521963 0.831984 0.887752 0.202866
H19   H     H_    0.659685 0.711028 0.112136 0.203519
H20   H     H_    0.628231 0.126291 0.652336 0.131480
H21   H     H_    0.371878 0.126327 0.347569 0.125793
H22   H     H_    0.628317 0.873659 0.652253 0.128700
N1    N     N_R   0.500000 0.857200 0.500000 -0.078683
N2    N     N_R   0.500000 0.142810 0.500000 -0.079485
O1    O     O_R   0.316770 0.614620 0.499990 -0.616679
O2    O     O_R   0.683230 0.614620 0.500010 -0.615448
O3    O     O_R   0.316800 0.385290 0.500000 -0.616619
O4    O     O_R   0.683200 0.385290 0.500000 -0.613421
O5    O     O_R   0.500000 0.614690 0.316780 -0.620369
O6    O     O_R   0.500000 0.614690 0.683220 -0.621934
O7    O     O_R   0.500020 0.385360 0.316780 -0.627718
O8    O     O_R   0.499980 0.385360 0.683220 -0.627543
Zn1   Zn    Zn3+2 0.500000 0.653120 0.500000 0.942459
Zn2   Zn    Zn3+2 0.500000 0.346880 0.500000 0.941727

loop_
_geom_bond_atom_site_label_1
_geom_bond_atom_site_label_2
_ccdc_geom_bond_type
O6    Zn1   S    
C2    C4    A    
C11   C12   S    
C6    H12   S    
O2    Zn1   S    
O5    Zn1   S    
C8    C26   S    
C18   H9    S    
C14   C18   S    
C22   H22   S    
C2    C7    S    
N1    Zn1   S    
C25   O6    A    
N2    Zn2   S    
C21   C23   A    
C4    C25   S    
C17   H8    S    
C19   H15   S    
C7    C8    S    
C2    C26   A    
O4    Zn2   S    
C23   H2    S    
C24   O5    A    
C15   C19   S    
C1    O1    A    
C3    C24   S    
C19   H13   S    
C22   N1    A    
C8    H17   S    
C17   H7    S    
C21   N2    A    
C12   O2    A    
O3    Zn2   S    
C20   C22   A    
C21   H21   S    
C10   C11   A    
C13   C15   A    
C5    C6    A    
C11   C14   A    
C20   H20   S    
C23   N1    A    
O1    Zn1   S    
C19   H14   S    
C10   C17   S    
O8    Zn2   S    
C3    C5    A    
C20   N2    A    
C1    C13   S    
C4    C6    A    
C25   O8    A    
C9    C10   A    
C7    H16   S    
C17   H6    S    
C9    C13   A    
C14   C15   A    
O7    Zn2   S    
C1    O3    A    
C16   H4    S    
C7    H18   S    
C16   H3    S    
C5    H1    S    
C18   H10   S    
C18   H11   S    
C3    C26   A    
C12   O4    A    
C8    H19   S    
C9    C16   S    
C24   O7    A    
C16   H5    S    
