data_mof_unit_22005.cif
_audit_creation_date              2013-03-05T16:12:50-0500
_audit_creation_method            fapswitch 2.2
_symmetry_space_group_name_H-M    P1
_symmetry_Int_Tables_number       1
_space_group_crystal_system       triclinic
_cell_length_a                    10.696146
_cell_length_b                    10.02372
_cell_length_c                    27.730334
_cell_angle_alpha                 89.575568
_cell_angle_beta                  99.542782
_cell_angle_gamma                 89.999035
_cell_volume                      2931.88809385

loop_
_atom_site_label
_atom_site_type_symbol
_atom_site_description
_atom_site_fract_x
_atom_site_fract_y
_atom_site_fract_z
_atom_type_partial_charge
O1    O     O_R   0.316770 0.614620 0.500000 -0.572665
O2    O     O_R   0.683230 0.385380 0.500000 -0.572943
O3    O     O_R   0.683230 0.614620 0.500000 -0.567091
O4    O     O_R   0.316770 0.385380 0.500000 -0.567235
C1    C     C_R   0.260601 0.500055 0.500536 0.914813
C2    C     C_R   0.739403 0.499946 0.499472 0.914969
O5    O     O_R   0.500030 0.614650 0.428760 -0.563894
O6    O     O_R   0.499970 0.385350 0.571240 -0.563612
O7    O     O_R   0.499970 0.614650 0.571240 -0.568301
O8    O     O_R   0.500030 0.385350 0.428760 -0.568610
C3    C     C_R   0.501185 0.500417 0.406311 0.915724
C4    C     C_R   0.498818 0.499566 0.593683 0.915109
Zn1   Zn    Zn3+2 0.500000 0.653120 0.500000 1.094604
Zn2   Zn    Zn3+2 0.500000 0.346880 0.500000 1.094404
C5    C     C_R   0.387679 0.490910 0.170768 0.515786
C6    C     C_R   0.611865 0.493329 0.829137 0.516542
O9    O     O_2   0.278615 0.479510 0.188964 -0.538181
O10   O     O_2   0.721482 0.490516 0.811037 -0.536762
N1    N     N_R   0.500250 0.504226 0.201748 -0.357882
N2    N     N_R   0.498692 0.495152 0.798050 -0.358997
C7    C     C_R   0.612493 0.517254 0.184833 0.512597
C8    C     C_R   0.385653 0.497132 0.814752 0.512967
C9    C     C_R   0.526014 0.620959 0.279746 -0.080263
C10   C     C_R   0.470856 0.379285 0.719963 -0.081881
C11   C     C_R   0.526633 0.620042 0.329879 -0.163263
C12   C     C_R   0.470721 0.380296 0.669860 -0.161481
C13   C     C_R   0.477121 0.383337 0.326780 -0.162927
C14   C     C_R   0.525078 0.615856 0.673401 -0.162426
C15   C     C_R   0.476470 0.384581 0.276657 -0.092828
C16   C     C_R   0.525598 0.614394 0.723518 -0.095495
C17   C     C_R   0.500727 0.503340 0.253156 0.294702
C18   C     C_R   0.498555 0.496195 0.746721 0.299434
C19   C     C_R   0.499676 0.502599 0.101730 -0.050796
C20   C     C_R   0.498980 0.496499 0.898003 -0.050746
C21   C     C_R   0.385232 0.489830 0.120183 -0.022735
C22   C     C_R   0.614209 0.494086 0.879716 -0.023224
C23   C     C_R   0.271286 0.475337 0.087989 -0.133270
C24   C     C_R   0.728856 0.491678 0.912077 -0.132924
C25   C     C_R   0.614359 0.516687 0.134519 -0.026666
C26   C     C_R   0.383606 0.497731 0.865052 -0.027418
C27   C     C_R   0.501656 0.501297 0.353683 -0.083911
C28   C     C_R   0.498213 0.498558 0.646288 -0.083218
H1    H     H_    0.457798 0.290465 0.344316 0.212329
H2    H     H_    0.546396 0.708294 0.656034 0.213481
H3    H     H_    0.457381 0.293458 0.256009 0.157135
H4    H     H_    0.546687 0.704875 0.744384 0.154780
H5    H     H_    0.182303 0.463340 0.101366 0.188029
H6    H     H_    0.818601 0.487394 0.898864 0.186937
C29   C     C_R   0.382025 0.496204 0.966922 0.044334
C30   C     C_R   0.616242 0.509445 0.032734 0.044246
C31   C     C_R   0.616386 0.501054 0.981760 0.048763
C32   C     C_R   0.382497 0.491222 0.018036 0.048739
C33   C     C_R   0.499129 0.497876 0.949107 0.072461
C34   C     C_R   0.499464 0.501119 0.050621 0.072489
C35   C     C_R   0.268033 0.500654 0.932741 -0.209096
C36   C     C_R   0.729215 0.527094 0.066679 -0.209825
C37   C     C_R   0.269106 0.500982 0.882829 -0.120475
C38   C     C_R   0.728037 0.530204 0.116561 -0.120501
O11   O     O_2   0.275886 0.499291 0.782698 -0.535809
O12   O     O_2   0.721849 0.529463 0.216696 -0.537777
C39   C     C_R   0.269686 0.475603 0.037907 -0.210933
C40   C     C_R   0.730213 0.494627 0.962124 -0.210435
H7    H     H_    0.448073 0.289128 0.649595 0.195712
H8    H     H_    0.547614 0.711736 0.349972 0.197737
H9    H     H_    0.449561 0.287984 0.738071 0.151529
H10   H     H_    0.545107 0.712783 0.261484 0.154326
H11   H     H_    0.179251 0.504183 0.858164 0.201098
H12   H     H_    0.817163 0.543382 0.141056 0.200955
H13   H     H_    0.175685 0.506827 0.943190 0.142165
H14   H     H_    0.820555 0.541628 0.055998 0.143330
H15   H     H_    0.178144 0.460440 0.015856 0.138838
H16   H     H_    0.822623 0.488997 0.984402 0.138221
C41   C     C_R   0.069443 0.383018 0.512669 -0.136180
C42   C     C_R   0.930578 0.617001 0.487378 -0.135899
C43   C     C_R   0.941077 0.382554 0.511891 -0.126174
C44   C     C_R   0.058941 0.617461 0.488155 -0.126007
H17   H     H_    0.122617 0.292349 0.523005 0.197035
H18   H     H_    0.877410 0.707679 0.477050 0.197047
H19   H     H_    0.896524 0.291248 0.521391 0.218629
H20   H     H_    0.103492 0.708769 0.478658 0.218745
C45   C     C_R   0.872088 0.499721 0.499444 -0.073773
C46   C     C_R   0.127926 0.500288 0.500590 -0.073865
C47   C     C_R   0.586773 0.072196 0.533802 0.269376
C48   C     C_R   0.413209 0.927814 0.466206 0.269702
C49   C     C_R   0.412392 0.073612 0.466506 0.268077
C50   C     C_R   0.587594 0.926398 0.533496 0.268484
N3    N     N_R   0.500000 0.857200 0.500000 -0.235253
N4    N     N_R   0.500000 0.142800 0.500000 -0.235341
S1    S     S_3+6 0.691823 0.157288 0.583290 0.104102
O13   O     O_2   0.639515 0.128132 0.629344 -0.284912
O14   O     O_2   0.823641 0.101802 0.588274 -0.219090
O15   O     O_3   0.718430 0.321376 0.583950 -0.538109
H21   H     H_    0.768450 0.340214 0.616571 0.370050
S2    S     S_3+6 0.307963 0.842756 0.416776 0.103346
O16   O     O_2   0.176136 0.898133 0.411977 -0.219333
O17   O     O_2   0.359856 0.872175 0.370655 -0.286751
O18   O     O_3   0.281559 0.678629 0.416046 -0.538168
H22   H     H_    0.231262 0.659891 0.383468 0.369893
S3    S     S_3+6 0.284068 0.160551 0.425931 0.107217
O19   O     O_2   0.271163 0.106101 0.375105 -0.214376
O20   O     O_2   0.164677 0.131956 0.446124 -0.281500
O21   O     O_3   0.282161 0.324850 0.415539 -0.533220
H23   H     H_    0.197276 0.344703 0.396495 0.368841
S4    S     S_3+6 0.715822 0.839490 0.574114 0.106697
O22   O     O_2   0.835323 0.868264 0.554020 -0.281087
O23   O     O_2   0.728376 0.893883 0.624941 -0.215744
O24   O     O_3   0.717862 0.675166 0.584455 -0.534083
H24   H     H_    0.802649 0.655402 0.603599 0.368836

loop_
_geom_bond_atom_site_label_1
_geom_bond_atom_site_label_2
_geom_bond_distance
_ccdc_geom_bond_type
C13   C15   1.388750 A    
C48   N3    1.393811 A    
O3    C2    1.298313 A    
C50   S4    1.838991 S    
S4    O23   1.500162 D    
O18   H22   0.991076 S    
C5    N1    1.365421 A    
C30   C34   1.420563 A    
C42   C44   1.369593 A    
O1    C1    1.297174 A    
C9    H10   1.082933 S    
C21   C23   1.394512 A    
C10   C12   1.389112 A    
C32   C39   1.415382 A    
O7    Zn1   2.010037 S    
C4    C28   1.459818 S    
O24   H24   0.991114 S    
C23   H5    1.083685 S    
C24   H6    1.083706 S    
O3    Zn1   1.997482 S    
O6    C4    1.308167 A    
C39   H15   1.076394 S    
C47   N4    1.393780 A    
N1    C17   1.424683 S    
C2    C45   1.419353 S    
C41   C43   1.369619 A    
O2    C2    1.297179 A    
C31   C40   1.415379 A    
C37   H11   1.083645 S    
C5    C21   1.398771 A    
S4    O22   1.503752 D    
C32   C34   1.420584 A    
C47   S1    1.838299 S    
C48   C49   1.461561 A    
C7    O12   1.350114 S    
O8    Zn2   2.010042 S    
C44   C46   1.397306 A    
C8    O11   1.350088 S    
C50   N3    1.393812 A    
C43   C45   1.397317 A    
C48   S2    1.838131 S    
S2    O18   1.668935 S    
C29   C35   1.415349 A    
C25   C38   1.394491 A    
C14   H2    1.082713 S    
C30   C36   1.415233 A    
C15   H3    1.082958 S    
C31   C33   1.420505 A    
C11   H8    1.082462 S    
C9    C17   1.397713 A    
O5    C3    1.308402 A    
C12   H7    1.082615 S    
C10   C18   1.396998 A    
C49   S3    1.839219 S    
C13   C27   1.404168 A    
S3    O19   1.500086 D    
C7    C25   1.398722 A    
C6    N2    1.364760 A    
C29   C32   1.417096 A    
C8    C26   1.398691 A    
Zn1   N3    2.045641 S    
C30   C31   1.416883 A    
C40   H16   1.076492 S    
S2    O16   1.500234 D    
C19   C25   1.408359 A    
S1    O15   1.668931 S    
S2    O17   1.503530 D    
C35   H13   1.076401 S    
C10   H9    1.082912 S    
C38   H12   1.083630 S    
S3    O20   1.503743 D    
N2    C8    1.364754 A    
C36   H14   1.076465 S    
C35   C37   1.386002 A    
C20   C26   1.408525 A    
S1    O14   1.500203 D    
C42   C45   1.396039 A    
C11   C27   1.403811 A    
C22   C24   1.394452 A    
C41   C46   1.396040 A    
C12   C28   1.403996 A    
N2    C18   1.423116 S    
C49   N4    1.393812 A    
C19   C34   1.417082 A    
C5    O9    1.350128 S    
O6    Zn2   2.015643 S    
C26   C37   1.394411 A    
N1    C7    1.365378 A    
C16   H4    1.082936 S    
C44   H20   1.082659 S    
O4    C1    1.298322 A    
C23   C39   1.386028 A    
C47   C50   1.461562 A    
C14   C16   1.388833 A    
Zn2   N4    2.045641 S    
C15   C17   1.397732 A    
C6    C22   1.398701 A    
C16   C18   1.397071 A    
C1    C46   1.419360 S    
C29   C33   1.420674 A    
C14   C28   1.404177 A    
O15   H21   0.991081 S    
C19   C21   1.408336 A    
C36   C38   1.385950 A    
C3    C27   1.460173 S    
C20   C22   1.408619 A    
C9    C11   1.389081 A    
O4    Zn2   1.997482 S    
O21   H23   0.991115 S    
O2    Zn2   1.997495 S    
O7    C4    1.307704 A    
O8    C3    1.307644 A    
C13   H1    1.082795 S    
O5    Zn1   2.015649 S    
S3    O21   1.669346 S    
O1    Zn1   1.997495 S    
C20   C33   1.417034 A    
C6    O10   1.350101 S    
C42   H18   1.083375 S    
C41   H17   1.083368 S    
S1    O13   1.503599 D    
C43   H19   1.082679 S    
S4    O24   1.669346 S    
C24   C40   1.386020 A    
