data_mof_unit_45510.cif
_audit_creation_date              2012-12-10T18:10:20-0500
_audit_creation_method            fapswitch 2.2
_symmetry_space_group_name_H-M    P1
_symmetry_Int_Tables_number       1
_space_group_crystal_system       triclinic
_cell_length_a                    10.738782
_cell_length_b                    9.410334
_cell_length_c                    15.876901
_cell_angle_alpha                 89.839688
_cell_angle_beta                  89.741056
_cell_angle_gamma                 89.967165
_cell_volume                      1604.42565405

loop_
_atom_site_label
_atom_site_type_symbol
_atom_type_description
_atom_site_fract_x
_atom_site_fract_y
_atom_site_fract_z
_atom_type_partial_charge
C1    C     C_R   0.259814 0.499820 0.499992 0.788406
C2    C     C_3   0.625849 0.468519 0.951438 -0.390560
C3    C     C_3   0.623270 0.459736 0.048713 -0.374160
C4    C     C_1   0.495768 0.499022 0.825062 -0.100572
C5    C     C_1   0.494798 0.500716 0.175464 -0.116082
C6    C     C_1   0.497697 0.500781 0.250896 -0.221706
C7    C     C_3   0.071774 0.576569 0.419025 -0.010960
C8    C     C_3   0.070508 0.581852 0.578703 -0.013881
C9    C     C_3   0.927263 0.574879 0.419577 -0.390317
C10   C     C_3   0.926107 0.578442 0.578726 -0.390816
C11   C     C_3   0.070916 0.344279 0.501978 -0.362223
C12   C     C_3   0.121766 0.499337 0.499948 0.153393
C13   C     C_3   0.877835 0.499465 0.499884 0.103835
C14   C     C_R   0.500058 0.500216 0.340313 0.834129
C15   C     C_3   0.928516 0.344731 0.501360 -0.389575
C16   C     C_3   0.624918 0.083524 0.521932 -0.189408
C17   C     C_3   0.624923 0.916118 0.521944 -0.187594
C18   C     C_3   0.411542 0.083636 0.564985 -0.190695
C19   C     C_3   0.411548 0.915907 0.564998 -0.187975
C20   C     C_3   0.463732 0.084028 0.418788 -0.186422
C21   C     C_3   0.463699 0.916782 0.418772 -0.188245
C22   C     C_R   0.740036 0.499796 0.499906 0.777329
C23   C     C_R   0.499701 0.499791 0.659872 0.828672
C24   C     C_3   0.453665 0.651139 0.047988 -0.053765
C25   C     C_3   0.393796 0.390844 0.049258 -0.073762
C26   C     C_3   0.404339 0.383488 0.951140 -0.423324
C27   C     C_3   0.450834 0.647088 0.949744 -0.389809
C28   C     C_1   0.497702 0.499242 0.749517 -0.210735
C29   C     C_3   0.492538 0.500690 0.083255 0.281584
C30   C     C_3   0.493867 0.499713 0.917255 0.290116
Cu1   Cu    Cu3+1 0.499860 0.642410 0.500040 0.888110
Cu2   Cu    Cu3+1 0.499860 0.357590 0.500040 0.890592
H1    H     H_    0.354191 0.668114 0.927801 0.137393
H2    H     H_    0.310268 0.397277 0.923044 0.148438
H3    H     H_    0.889824 0.520141 0.362966 0.169382
H4    H     H_    0.888836 0.525285 0.636321 0.168299
H5    H     H_    0.106033 0.282468 0.447241 0.164002
H6    H     H_    0.104272 0.286735 0.558776 0.159402
H7    H     H_    0.895413 0.285724 0.445037 0.161917
H8    H     H_    0.893505 0.287599 0.558240 0.160273
H9    H     H_    0.656237 0.123077 0.584317 0.135518
H10   H     H_    0.656181 0.875996 0.584359 0.135689
H11   H     H_    0.694535 0.120941 0.474813 0.136512
H12   H     H_    0.694621 0.878972 0.474878 0.136663
H13   H     H_    0.435646 0.121724 0.629066 0.143786
H14   H     H_    0.435694 0.877317 0.629095 0.144295
H15   H     H_    0.369907 0.124109 0.401073 0.145222
H16   H     H_    0.369826 0.877129 0.401028 0.141406
H17   H     H_    0.529442 0.121327 0.369135 0.147905
H18   H     H_    0.529317 0.879742 0.369084 0.144073
H19   H     H_    0.315706 0.122440 0.552092 0.134827
H20   H     H_    0.315708 0.877256 0.552158 0.134240
H21   H     H_    0.355093 0.666394 0.068480 0.103047
H22   H     H_    0.299447 0.434742 0.062901 0.132646
H23   H     H_    0.439567 0.278106 0.930051 0.164303
H24   H     H_    0.509416 0.730818 0.920683 0.162739
H25   H     H_    0.696508 0.528153 0.076191 0.162370
H26   H     H_    0.648399 0.350097 0.068251 0.154021
H27   H     H_    0.691639 0.552940 0.930616 0.154386
H28   H     H_    0.661160 0.366284 0.925470 0.160335
H29   H     H_    0.102222 0.689688 0.421454 0.139863
H30   H     H_    0.099881 0.695039 0.572817 0.137744
H31   H     H_    0.892278 0.686221 0.417208 0.139085
H32   H     H_    0.890186 0.689462 0.579473 0.139217
N1    N     N_3   0.500250 0.143650 0.501830 -0.111364
N2    N     N_3   0.500250 0.856350 0.501830 -0.110551
O1    O     O_R   0.317570 0.620260 0.500050 -0.604804
O2    O     O_R   0.317570 0.379740 0.500050 -0.593525
O3    O     O_R   0.499890 0.620310 0.379470 -0.587400
O4    O     O_R   0.499890 0.379690 0.379470 -0.583636
O5    O     O_R   0.682190 0.620260 0.500020 -0.597427
O6    O     O_R   0.682190 0.379740 0.500020 -0.597919
O7    O     O_R   0.499870 0.620210 0.620600 -0.584448
O8    O     O_R   0.499870 0.379790 0.620600 -0.583286
C31   C     C_3   0.398435 0.239840 0.090522 -0.385132
C32   C     C_3   0.303946 0.222823 0.163126 -0.350665
C33   C     C_3   0.312573 0.075721 0.203482 -0.890550
H33   H     H_    0.286147 0.992742 0.157333 0.247064
H34   H     H_    0.408658 0.055144 0.226120 0.249362
H35   H     H_    0.247650 0.069379 0.257999 0.233738
H36   H     H_    0.320041 0.303621 0.212496 0.232823
H37   H     H_    0.207954 0.237985 0.138739 0.207111
H38   H     H_    0.375763 0.156994 0.043219 0.194560
H39   H     H_    0.493031 0.215535 0.114137 0.202761
C34   C     C_3   0.521061 0.783660 0.086102 -0.378484
C35   C     C_3   0.643303 0.833217 0.043978 -0.325439
C36   C     C_3   0.715521 0.932836 0.101711 -0.899313
H40   H     H_    0.657310 0.025927 0.119081 0.248605
H41   H     H_    0.744172 0.875919 0.159888 0.252252
H42   H     H_    0.800465 0.971437 0.068735 0.239500
H43   H     H_    0.704359 0.743289 0.027302 0.219166
H44   H     H_    0.622190 0.892965 0.985325 0.199425
H45   H     H_    0.455614 0.875019 0.082340 0.180201
H46   H     H_    0.536820 0.766429 0.154398 0.210438
C37   C     C_3   0.123250 0.516722 0.335399 -0.913546
H47   H     H_    0.226465 0.519513 0.334213 0.226996
H48   H     H_    0.091626 0.406087 0.324622 0.239735
H49   H     H_    0.089887 0.583062 0.282087 0.232070
C38   C     C_3   0.121907 0.529126 0.663845 -0.909138
H50   H     H_    0.091834 0.418770 0.677771 0.237787
H51   H     H_    0.225055 0.534156 0.664811 0.229986
H52   H     H_    0.086885 0.598548 0.715243 0.230466

loop_
_geom_bond_atom_site_label_1
_geom_bond_atom_site_label_2
_ccdc_geom_bond_type
Cu1   N2    S    
C36   H40   S    
C21   N2    S    
C37   H47   S    
C24   C27   S    
C26   H23   S    
C19   H14   S    
Cu2   O6    S    
C33   H33   S    
C27   H1    S    
C18   N1    S    
Cu1   O1    S    
C17   N2    S    
C8    C38   S    
C35   H43   S    
Cu2   O8    S    
C5    C6    T    
C2    H28   S    
C31   H39   S    
Cu1   O7    S    
C1    O2    A    
C19   N2    S    
C11   H5    S    
C18   C19   S    
C3    C29   S    
C9    C13   S    
C24   C29   S    
C7    H29   S    
C17   H10   S    
C34   H45   S    
C19   H20   S    
C26   H2    S    
Cu1   Cu2   S    
C16   C17   S    
C24   C34   S    
Cu2   O2    S    
C21   H16   S    
Cu1   O5    S    
C27   C30   S    
C14   O4    A    
C1    C12   S    
C11   C15   S    
C23   O7    A    
C22   O6    A    
C21   H18   S    
C4    C28   T    
C18   H19   S    
C5    C29   S    
C33   H34   S    
C25   C29   S    
C7    C12   S    
C37   H49   S    
C20   N1    S    
C25   H22   S    
C32   H37   S    
C27   H24   S    
Cu2   O4    S    
C24   H21   S    
C34   C35   S    
C25   C31   S    
C11   H6    S    
C31   C32   S    
C20   H17   S    
C6    C14   S    
C34   H46   S    
C38   H50   S    
C8    C12   S    
C23   C28   S    
C32   C33   S    
C16   H11   S    
C15   H7    S    
C3    H25   S    
C38   H51   S    
C26   C30   S    
C13   C15   S    
C14   O3    A    
C23   O8    A    
C18   H13   S    
C22   O5    A    
C35   C36   S    
C33   H35   S    
C7    C9    S    
C9    H31   S    
C10   H32   S    
C10   C13   S    
C32   H36   S    
C11   C12   S    
C37   H48   S    
C7    C37   S    
C2    C30   S    
C36   H41   S    
C2    C3    S    
C25   C26   S    
C17   H12   S    
C35   H44   S    
C31   H38   S    
C2    H27   S    
C1    O1    A    
C13   C22   S    
C15   H8    S    
C20   H15   S    
C3    H26   S    
Cu1   O3    S    
C38   H52   S    
C20   C21   S    
C8    C10   S    
C36   H42   S    
C9    H3    S    
C10   H4    S    
C16   N1    S    
C16   H9    S    
C4    C30   S    
C8    H30   S    
Cu2   N1    S    
