data_mof_unit_5834.cif
_audit_creation_date              2012-12-11T16:51:32-0500
_audit_creation_method            fapswitch 2.2
_symmetry_space_group_name_H-M    P1
_symmetry_Int_Tables_number       1
_space_group_crystal_system       triclinic
_cell_length_a                    24.798501
_cell_length_b                    17.327784
_cell_length_c                    15.599587
_cell_angle_alpha                 90.00004
_cell_angle_beta                  129.489257
_cell_angle_gamma                 90.0
_cell_volume                      5173.14587087

loop_
_atom_site_label
_atom_site_type_symbol
_atom_type_description
_atom_site_fract_x
_atom_site_fract_y
_atom_site_fract_z
_atom_type_partial_charge
C1    C     C_R   0.844353 0.867318 0.223066 -0.140686
C2    C     C_R   0.155647 0.867318 0.776934 -0.140685
C3    C     C_R   0.344353 0.367318 0.223066 -0.140686
C4    C     C_R   0.655647 0.367318 0.776934 -0.140686
C5    C     C_R   0.898640 0.129515 0.593063 -0.068190
C6    C     C_R   0.101360 0.129515 0.406937 -0.068190
C7    C     C_R   0.398640 0.629515 0.593063 -0.068190
C8    C     C_R   0.601360 0.629515 0.406937 -0.068190
C9    C     C_R   0.841542 0.166435 0.499915 -0.027207
C10   C     C_R   0.158457 0.166435 0.500085 -0.027207
C11   C     C_R   0.341542 0.666435 0.499915 -0.027207
C12   C     C_R   0.658457 0.666435 0.500085 -0.027207
C13   C     C_R   0.855314 0.132788 0.140141 0.148256
C14   C     C_R   0.144686 0.132788 0.859860 0.148256
C15   C     C_R   0.355314 0.632788 0.140141 0.148257
C16   C     C_R   0.644686 0.632788 0.859860 0.148256
C17   C     C_R   0.810459 0.781128 0.590200 0.080613
C18   C     C_R   0.189540 0.781128 0.409800 0.080614
C19   C     C_R   0.310459 0.281128 0.590200 0.080614
C20   C     C_R   0.689540 0.281128 0.409800 0.080613
C21   C     C_R   0.778718 0.845863 0.522508 0.030210
C22   C     C_R   0.221282 0.845863 0.477492 0.030210
C23   C     C_R   0.278717 0.345863 0.522508 0.030210
C24   C     C_R   0.721282 0.345863 0.477492 0.030210
C25   C     C_R   0.706577 0.857082 0.457401 -0.169214
C26   C     C_R   0.293423 0.857082 0.542599 -0.169215
C27   C     C_R   0.206577 0.357082 0.457401 -0.169214
C28   C     C_R   0.793423 0.357082 0.542599 -0.169213
C29   C     C_R   0.165917 0.297429 0.449364 -0.117696
C30   C     C_R   0.834083 0.297429 0.550637 -0.117697
C31   C     C_R   0.665917 0.797429 0.449363 -0.117696
C32   C     C_R   0.334083 0.797429 0.550637 -0.117696
C33   C     C_R   0.198219 0.227562 0.504482 0.078756
C34   C     C_R   0.801781 0.227562 0.495518 0.078757
C35   C     C_R   0.698219 0.727562 0.504482 0.078757
C36   C     C_R   0.301781 0.727562 0.495518 0.078757
C37   C     C_R   0.270478 0.222326 0.579828 0.081262
C38   C     C_R   0.729522 0.222326 0.420172 0.081262
C39   C     C_R   0.770478 0.722327 0.579828 0.081261
C40   C     C_R   0.229522 0.722326 0.420172 0.081262
C41   C     C_3   0.819790 0.662045 0.596325 0.012922
C42   C     C_3   0.180210 0.662044 0.403676 0.012922
C43   C     C_3   0.319790 0.162045 0.596324 0.012922
C44   C     C_3   0.680210 0.162044 0.403676 0.012922
C45   C     C_R   0.112066 0.905914 0.403544 -0.162682
C46   C     C_R   0.887934 0.905914 0.596456 -0.162683
C47   C     C_R   0.612066 0.405914 0.403544 -0.162683
C48   C     C_R   0.387933 0.405914 0.596456 -0.162683
C49   C     C_3   0.864800 0.728045 0.608529 -0.530147
C50   C     C_3   0.135200 0.728045 0.391472 -0.530146
C51   C     C_3   0.364799 0.228045 0.608528 -0.530148
C52   C     C_3   0.635200 0.228045 0.391472 -0.530147
C53   C     C_2   0.152240 0.758148 0.882400 -0.058437
C54   C     C_2   0.847760 0.758148 0.117600 -0.058437
C55   C     C_2   0.652240 0.258149 0.882401 -0.058437
C56   C     C_2   0.347760 0.258148 0.117600 -0.058437
C57   C     C_2   0.194146 0.711609 0.877642 -0.140394
C58   C     C_2   0.805854 0.711608 0.122359 -0.140394
C59   C     C_2   0.694146 0.211609 0.877642 -0.140395
C60   C     C_2   0.305854 0.211608 0.122359 -0.140395
C61   C     C_2   0.809455 0.164955 0.027820 -0.239975
C62   C     C_2   0.190545 0.164955 0.972180 -0.239976
C63   C     C_2   0.309456 0.664955 0.027820 -0.239977
C64   C     C_2   0.690544 0.664955 0.972180 -0.239977
C65   C     C_2   0.740330 0.154660 0.963232 -0.080398
C66   C     C_2   0.259670 0.154659 0.036768 -0.080398
C67   C     C_2   0.240330 0.654660 0.963232 -0.080397
C68   C     C_2   0.759670 0.654659 0.036768 -0.080399
C69   C     C_R   0.187816 0.900603 0.586210 -0.038845
C70   C     C_R   0.812184 0.900603 0.413790 -0.038845
C71   C     C_R   0.687816 0.400603 0.586210 -0.038845
C72   C     C_R   0.312184 0.400603 0.413790 -0.038845
C73   C     C_R   0.061981 0.864912 0.769310 -0.130789
C74   C     C_R   0.938019 0.864912 0.230690 -0.130789
C75   C     C_R   0.561981 0.364912 0.769311 -0.130789
C76   C     C_R   0.438019 0.364912 0.230689 -0.130789
C77   C     C_R   0.875808 0.827650 0.187515 0.022020
C78   C     C_R   0.124192 0.827650 0.812486 0.022019
C79   C     C_R   0.375808 0.327650 0.187514 0.022020
C80   C     C_R   0.624192 0.327650 0.812486 0.022020
C81   C     C_R   0.179828 0.892164 0.490683 0.030649
C82   C     C_R   0.820172 0.892164 0.509317 0.030649
C83   C     C_R   0.679828 0.392164 0.490683 0.030649
C84   C     C_R   0.320172 0.392164 0.509317 0.030649
C85   C     C_R   0.825422 0.130442 0.407728 0.133608
C86   C     C_R   0.174578 0.130442 0.592272 0.133608
C87   C     C_R   0.325422 0.630441 0.407728 0.133608
C88   C     C_R   0.674578 0.630442 0.592272 0.133609
C89   C     C_R   0.923952 0.110743 0.199938 -0.136292
C90   C     C_R   0.076048 0.110743 0.800062 -0.136291
C91   C     C_R   0.423952 0.610743 0.199938 -0.136291
C92   C     C_R   0.576048 0.610743 0.800062 -0.136290
C93   C     C_R   0.165089 0.110823 0.799564 -0.145891
C94   C     C_R   0.834911 0.110822 0.200436 -0.145891
C95   C     C_R   0.665089 0.610822 0.799564 -0.145892
C96   C     C_R   0.334911 0.610822 0.200436 -0.145891
H1    H     H_    0.791346 0.860453 0.190235 0.106537
H2    H     H_    0.208654 0.860454 0.809765 0.106537
H3    H     H_    0.291346 0.360453 0.190235 0.106537
H4    H     H_    0.708654 0.360454 0.809765 0.106537
H5    H     H_    0.109766 0.304247 0.397052 0.154303
H6    H     H_    0.890234 0.304247 0.602949 0.154303
H7    H     H_    0.609766 0.804247 0.397051 0.154303
H8    H     H_    0.390234 0.804247 0.602949 0.154303
H9    H     H_    0.845611 0.629363 0.674835 0.126164
H10   H     H_    0.154389 0.629362 0.325166 0.126164
H11   H     H_    0.345611 0.129363 0.674834 0.126164
H12   H     H_    0.654389 0.129363 0.325166 0.126164
H13   H     H_    0.915271 0.733348 0.694338 0.180069
H14   H     H_    0.084729 0.733347 0.305662 0.180069
H15   H     H_    0.415271 0.233348 0.694338 0.180069
H16   H     H_    0.584729 0.233348 0.305662 0.180069
H17   H     H_    0.869847 0.732908 0.542976 0.207018
H18   H     H_    0.130153 0.732908 0.457025 0.207018
H19   H     H_    0.369846 0.232908 0.542975 0.207019
H20   H     H_    0.630153 0.232908 0.457024 0.207018
H21   H     H_    0.718413 0.112087 0.984202 0.186022
H22   H     H_    0.281587 0.112086 0.015798 0.186022
H23   H     H_    0.218413 0.612087 0.984202 0.186022
H24   H     H_    0.781587 0.612086 0.015798 0.186022
H25   H     H_    0.203695 0.724423 0.820109 0.125155
H26   H     H_    0.796305 0.724423 0.179892 0.125155
H27   H     H_    0.703694 0.224423 0.820109 0.125155
H28   H     H_    0.296306 0.224423 0.179892 0.125155
H29   H     H_    0.831479 0.205670 0.004461 0.164562
H30   H     H_    0.168521 0.205669 0.995539 0.164562
H31   H     H_    0.331479 0.705669 0.004461 0.164562
H32   H     H_    0.668521 0.705669 0.995540 0.164562
H33   H     H_    0.088263 0.907927 0.316593 0.104678
H34   H     H_    0.911737 0.907927 0.683407 0.104678
H35   H     H_    0.588263 0.407927 0.316593 0.104678
H36   H     H_    0.411737 0.407927 0.683407 0.104678
H37   H     H_    0.025714 0.850734 0.783344 0.086924
H38   H     H_    0.974287 0.850734 0.216656 0.086924
H39   H     H_    0.525714 0.350734 0.783344 0.086924
H40   H     H_    0.474286 0.350734 0.216656 0.086924
H41   H     H_    0.950479 0.108203 0.166146 0.104753
H42   H     H_    0.049521 0.108203 0.833854 0.104753
H43   H     H_    0.450479 0.608203 0.166146 0.104753
H44   H     H_    0.549521 0.608203 0.833854 0.104753
H45   H     H_    0.218063 0.108949 0.831488 0.145931
H46   H     H_    0.781937 0.108949 0.168512 0.145931
H47   H     H_    0.718063 0.608949 0.831488 0.145930
H48   H     H_    0.281937 0.608949 0.168512 0.145930
H49   H     H_    0.681833 0.908790 0.407877 0.158826
H50   H     H_    0.318166 0.908790 0.592123 0.158826
H51   H     H_    0.181834 0.408790 0.407877 0.158826
H52   H     H_    0.818167 0.408790 0.592123 0.158826
N1    N     N_R   0.888400 0.921830 0.294620 -0.043084
N2    N     N_R   0.111600 0.921830 0.705380 -0.043084
N3    N     N_R   0.388400 0.421830 0.294620 -0.043084
N4    N     N_R   0.611600 0.421830 0.705380 -0.043084
N5    N     N_R   0.079940 0.922160 0.443410 -0.046568
N6    N     N_R   0.920060 0.922160 0.556590 -0.046568
N7    N     N_R   0.579940 0.422160 0.443410 -0.046568
N8    N     N_R   0.420060 0.422160 0.556590 -0.046568
N9    N     N_R   0.125650 0.922400 0.556620 -0.070595
N10   N     N_R   0.874350 0.922400 0.443380 -0.070595
N11   N     N_R   0.625650 0.422400 0.556620 -0.070595
N12   N     N_R   0.374350 0.422400 0.443380 -0.070595
N13   N     N_R   0.054230 0.922730 0.705400 -0.034223
N14   N     N_R   0.945770 0.922730 0.294600 -0.034223
N15   N     N_R   0.554230 0.422730 0.705400 -0.034223
N16   N     N_R   0.445770 0.422730 0.294600 -0.034223
N17   N     N_R   0.873790 0.077030 0.443380 -0.055307
N18   N     N_R   0.126210 0.077030 0.556620 -0.055307
N19   N     N_R   0.373790 0.577030 0.443380 -0.055307
N20   N     N_R   0.626210 0.577030 0.556620 -0.055307
N21   N     N_R   0.945200 0.076700 0.294600 -0.050858
N22   N     N_R   0.054800 0.076700 0.705400 -0.050858
N23   N     N_R   0.445200 0.576700 0.294600 -0.050858
N24   N     N_R   0.554800 0.576700 0.705400 -0.050858
N25   N     N_R   0.111030 0.077600 0.705380 -0.045472
N26   N     N_R   0.888970 0.077600 0.294620 -0.045472
N27   N     N_R   0.611030 0.577600 0.705380 -0.045472
N28   N     N_R   0.388970 0.577600 0.294620 -0.045472
N29   N     N_R   0.919490 0.077280 0.556590 -0.085023
N30   N     N_R   0.080510 0.077280 0.443410 -0.085023
N31   N     N_R   0.419490 0.577280 0.556590 -0.085023
N32   N     N_R   0.580510 0.577280 0.443410 -0.085023
Ni1   Ni    Ni4+2 0.882160 0.999430 0.370180 0.212215
Ni2   Ni    Ni4+2 0.117840 0.999430 0.629820 0.212215
Ni3   Ni    Ni4+2 0.382160 0.499430 0.370180 0.212215
Ni4   Ni    Ni4+2 0.617840 0.499430 0.629820 0.212215
Ni5   Ni    Ni4+2 0.012460 0.999430 0.370180 0.196732
Ni6   Ni    Ni4+2 0.987540 0.999430 0.629820 0.196732
Ni7   Ni    Ni4+2 0.512460 0.499430 0.370180 0.196732
Ni8   Ni    Ni4+2 0.487540 0.499430 0.629820 0.196732
N33   N     N_2   0.789449 0.611392 0.500634 -0.100313
H53   H     H_    0.816255 0.560219 0.520264 0.166428
C97   C     C_3   0.763705 0.642657 0.394271 -0.809295
H54   H     H_    0.725984 0.601379 0.327549 0.244664
H55   H     H_    0.807494 0.650525 0.392681 0.216343
H56   H     H_    0.736526 0.698465 0.376335 0.280328
N34   N     N_2   0.210551 0.611392 0.499366 -0.100313
H57   H     H_    0.183745 0.560219 0.479737 0.166428
C98   C     C_3   0.236296 0.642657 0.605729 -0.809296
H58   H     H_    0.274016 0.601379 0.672452 0.244664
H59   H     H_    0.192506 0.650526 0.607320 0.216343
H60   H     H_    0.263474 0.698465 0.623666 0.280328
N35   N     N_2   0.289448 0.111392 0.500634 -0.100313
H61   H     H_    0.316254 0.060219 0.520264 0.166428
C99   C     C_3   0.263704 0.142657 0.394271 -0.809297
H62   H     H_    0.225983 0.101379 0.327548 0.244664
H63   H     H_    0.307494 0.150525 0.392680 0.216343
H64   H     H_    0.236525 0.198465 0.376334 0.280328
N36   N     N_2   0.710551 0.111392 0.499366 -0.100313
H65   H     H_    0.683745 0.060219 0.479736 0.166428
C100  C     C_3   0.736295 0.142657 0.605729 -0.809297
H66   H     H_    0.774016 0.101379 0.672452 0.244664
H67   H     H_    0.692506 0.150526 0.607319 0.216343
H68   H     H_    0.763474 0.198465 0.623666 0.280328
C101  C     C_2   0.136000 0.746338 0.958596 0.522415
H69   H     H_    0.114889 0.793917 0.974338 -0.006740
O1    O     O_2   0.143687 0.684147 0.001760 -0.618491
C102  C     C_2   0.864000 0.746337 0.041405 0.522413
H70   H     H_    0.885110 0.793917 0.025661 -0.006741
O2    O     O_2   0.856315 0.684146 0.998243 -0.618489
C103  C     C_2   0.636001 0.246339 0.958597 0.522414
H71   H     H_    0.614890 0.293919 0.974340 -0.006742
O3    O     O_2   0.643687 0.184148 0.001762 -0.618490
C104  C     C_2   0.363999 0.246338 0.041404 0.522414
H72   H     H_    0.385110 0.293917 0.025661 -0.006741
O4    O     O_2   0.356313 0.184147 0.998240 -0.618490
C105  C     C_2   0.243235 0.861056 0.690235 0.476205
H73   H     H_    0.231788 0.806680 0.709973 -0.001804
O5    O     O_2   0.302951 0.885611 0.750489 -0.569985
C106  C     C_2   0.756764 0.861055 0.309765 0.476205
H74   H     H_    0.768212 0.806680 0.290027 -0.001804
O6    O     O_2   0.697049 0.885611 0.249511 -0.569985
C107  C     C_2   0.743235 0.361056 0.690235 0.476205
H75   H     H_    0.731788 0.306680 0.709973 -0.001804
O7    O     O_2   0.802951 0.385611 0.750488 -0.569985
C108  C     C_2   0.256764 0.361055 0.309765 0.476205
H76   H     H_    0.268212 0.306680 0.290027 -0.001804
O8    O     O_2   0.197049 0.385611 0.249511 -0.569985
N37   N     N_2   0.758948 0.132581 0.300610 -0.139240
H77   H     H_    0.748831 0.177701 0.249207 0.177188
C109  C     C_3   0.722814 0.060122 0.252771 -0.798773
H78   H     H_    0.670327 0.070789 0.171871 0.272852
H79   H     H_    0.716155 0.031538 0.309181 0.253616
H80   H     H_    0.752511 0.021300 0.239599 0.243418
N38   N     N_2   0.241052 0.132581 0.699390 -0.139240
H81   H     H_    0.251169 0.177701 0.750793 0.177187
C110  C     C_3   0.277186 0.060122 0.747229 -0.798774
H82   H     H_    0.329673 0.070789 0.828129 0.272852
H83   H     H_    0.283845 0.031538 0.690818 0.253616
H84   H     H_    0.247489 0.021300 0.760401 0.243418
N39   N     N_2   0.258948 0.632581 0.300610 -0.139240
H85   H     H_    0.248831 0.677701 0.249207 0.177187
C111  C     C_3   0.222814 0.560122 0.252771 -0.798774
H86   H     H_    0.170327 0.570789 0.171871 0.272852
H87   H     H_    0.216155 0.531537 0.309181 0.253616
H88   H     H_    0.252511 0.521300 0.239599 0.243418
N40   N     N_2   0.741052 0.632581 0.699390 -0.139240
H89   H     H_    0.751169 0.677701 0.750793 0.177185
C112  C     C_3   0.777186 0.560122 0.747229 -0.798774
H90   H     H_    0.829673 0.570789 0.828129 0.272852
H91   H     H_    0.783845 0.531538 0.690818 0.253616
H92   H     H_    0.747488 0.521300 0.760401 0.243418
C113  C     C_2   0.916934 0.127116 0.703110 0.526724
H93   H     H_    0.939947 0.075173 0.752942 -0.022481
O9    O     O_2   0.905251 0.181853 0.738341 -0.573265
C114  C     C_2   0.083065 0.127116 0.296890 0.526725
H94   H     H_    0.060053 0.075173 0.247058 -0.022481
O10   O     O_2   0.094748 0.181853 0.261659 -0.573265
C115  C     C_2   0.416934 0.627116 0.703110 0.526724
H95   H     H_    0.439947 0.575173 0.752942 -0.022481
O11   O     O_2   0.405251 0.681853 0.738341 -0.573265
C116  C     C_2   0.583066 0.627116 0.296891 0.526723
H96   H     H_    0.560053 0.575173 0.247058 -0.022480
O12   O     O_2   0.594749 0.681853 0.261659 -0.573265

loop_
_geom_bond_atom_site_label_1
_geom_bond_atom_site_label_2
_ccdc_geom_bond_type
C25   C31   A    
N28   Ni3   S    
C49   H17   S    
C99   H62   S    
N40   C112  S    
C110  H83   S    
C95   H47   S    
C93   N25   A    
C55   C59   D    
C27   C29   A    
C15   C91   A    
C1    C77   A    
N35   H61   S    
N19   N31   A    
C109  H78   S    
N18   Ni2   S    
C76   C79   A    
N16   Ni7   S    
C3    C79   A    
C106  O6    D    
C76   H40   S    
C111  H86   S    
C39   C41   S    
C101  H69   S    
C26   C32   A    
N6    Ni6   S    
N39   H85   S    
C56   C79   S    
C41   H9    S    
C2    N2    A    
C54   C102  S    
C63   H31   S    
C32   C36   A    
N33   C97   S    
C11   C36   S    
C24   C83   S    
C70   C106  S    
C46   H34   S    
C4    C80   A    
C113  H93   S    
C75   H39   S    
C111  H87   S    
C103  O3    D    
C52   H16   S    
N38   H81   S    
C14   C62   S    
C29   C33   A    
C50   H14   S    
C100  H68   S    
N17   N29   A    
C75   N15   A    
C112  H90   S    
C17   C39   A    
N8    Ni8   S    
C62   H30   S    
C26   H50   S    
C95   N27   A    
C14   C90   A    
C8    C116  S    
C19   C37   A    
C9    C85   A    
C46   C82   A    
N30   Ni5   S    
C87   N19   A    
C20   C24   A    
C11   C87   A    
C114  H94   S    
C88   N20   A    
C74   C77   A    
C86   N18   A    
C43   N35   S    
C73   N13   A    
N21   N26   A    
C32   H8    S    
C1    N1    A    
N18   N30   A    
C47   C83   A    
N11   Ni4   S    
N4    Ni4   S    
C96   N28   A    
C75   C80   A    
C14   C93   A    
C85   N37   S    
N24   N27   A    
C8    C12   A    
C54   C77   S    
C44   C52   S    
C44   H12   S    
C48   N8    A    
C60   C66   S    
C34   C38   A    
C110  H82   S    
C6    N30   A    
C5    C113  S    
N35   C99   S    
C74   N14   A    
C30   H6    S    
C65   H21   S    
N33   H53   S    
C45   N5    A    
C108  O8    D    
C57   C67   S    
C4    N4    A    
N26   Ni1   S    
C41   C49   S    
C106  H74   S    
C90   H42   S    
C7    C11   A    
C88   N40   S    
C71   C83   A    
C52   H20   S    
C59   H27   S    
C46   N6    A    
C99   H64   S    
N19   Ni3   S    
C58   H26   S    
N39   C111  S    
C23   C84   S    
C30   C34   A    
N7    N11   A    
N36   H65   S    
C94   H46   S    
C22   C81   S    
N8    N12   A    
C102  H70   S    
N38   C110  S    
C1    H1    S    
C103  H71   S    
C113  O9    D    
C62   C66   D    
C19   C23   A    
C86   N38   S    
C111  H88   S    
C55   C103  S    
N31   Ni8   S    
C100  H67   S    
N20   Ni4   S    
N20   N32   A    
C85   N17   A    
N1    Ni1   S    
C44   N36   S    
C17   C21   A    
N29   Ni6   S    
C48   C84   A    
C47   H35   S    
N15   Ni8   S    
C70   N10   A    
C109  H79   S    
C31   H7    S    
C37   C43   S    
C98   H60   S    
C35   C39   A    
N34   C98   S    
C97   H55   S    
C63   C67   D    
C38   C44   S    
N13   Ni6   S    
C2    C78   A    
N32   Ni7   S    
C3    H3    S    
C96   H48   S    
C20   C38   A    
C8    N32   A    
C69   N9    A    
C100  H66   S    
C36   C40   A    
C73   C78   A    
C12   C88   A    
N22   Ni6   S    
C64   H32   S    
C105  H73   S    
C29   H5    S    
C107  O7    D    
C43   H11   S    
C12   C35   S    
C104  O4    D    
C42   H10   S    
C5    N29   A    
C72   C84   A    
C42   C50   S    
C91   H43   S    
C58   C68   S    
C73   H37   S    
N25   Ni2   S    
C16   C92   A    
C23   C27   A    
C91   N23   A    
N37   C109  S    
C66   H22   S    
C9    C34   S    
C92   N24   A    
C116  O12   D    
C76   N16   A    
C60   H28   S    
C108  H76   S    
C17   C49   S    
N40   H89   S    
C92   H44   S    
C64   C68   D    
C15   C96   A    
C93   H45   S    
C18   C50   S    
C49   H13   S    
C54   C58   D    
C72   C108  S    
C97   H54   S    
C87   N39   S    
C18   C40   A    
C21   C25   A    
C10   C86   A    
C16   C95   A    
C51   H15   S    
N12   Ni3   S    
C13   C89   A    
N9    Ni2   S    
C18   C22   A    
C28   H52   S    
C3    N3    A    
C94   N26   A    
C25   H49   S    
C45   C81   A    
C24   C28   A    
C5    C9    A    
N2    Ni2   S    
C53   C57   D    
C109  H80   S    
C69   C105  S    
N14   Ni5   S    
C6    C114  S    
C115  H95   S    
N2    N13   A    
N3    Ni3   S    
N23   Ni7   S    
C71   N11   A    
N23   N28   A    
C89   H41   S    
C53   C101  S    
C72   N12   A    
C4    H4    S    
C41   N33   S    
C13   C94   A    
C7    N31   A    
C112  H92   S    
N17   Ni1   S    
N21   Ni5   S    
C98   H59   S    
C53   C78   S    
C101  O1    D    
C89   N21   A    
C90   N22   A    
C20   C52   S    
C71   C107  S    
N7    Ni7   S    
C59   C65   S    
C56   C104  S    
C55   C80   S    
C115  O11   D    
C43   C51   S    
N5    Ni5   S    
N24   Ni8   S    
C19   C51   S    
C27   H51   S    
C45   H33   S    
C74   H38   S    
C40   C42   S    
C105  O5    D    
C28   C30   A    
C10   C33   S    
C31   C35   A    
C42   N34   S    
C61   C65   D    
N5    N9    A    
C98   H58   S    
C70   C82   A    
N10   Ni1   S    
C33   C37   A    
C97   H56   S    
N4    N15   A    
C69   C81   A    
C6    C10   A    
C51   H19   S    
C57   H25   S    
N34   H57   S    
C56   C60   D    
C13   C61   S    
C21   C82   S    
C2    H2    S    
C7    C115  S    
C114  O10   D    
N3    N16   A    
C22   C26   A    
C110  H84   S    
C112  H91   S    
C107  H75   S    
N36   C100  S    
N6    N10   A    
C15   C63   S    
C116  H96   S    
C48   H36   S    
C61   H29   S    
N1    N14   A    
C16   C64   S    
C50   H18   S    
N37   H77   S    
C67   H23   S    
C104  H72   S    
C68   H24   S    
C99   H63   S    
C102  O2    D    
N27   Ni4   S    
C47   N7    A    
N22   N25   A    
