data_mof_unit_27385.cif
_audit_creation_date              2012-12-11T19:58:16-0500
_audit_creation_method            fapswitch 2.2
_symmetry_space_group_name_H-M    P1
_symmetry_Int_Tables_number       1
_space_group_crystal_system       triclinic
_cell_length_a                    8.277121
_cell_length_b                    16.278164
_cell_length_c                    22.861079
_cell_angle_alpha                 107.833871
_cell_angle_beta                  88.827656
_cell_angle_gamma                 84.044304
_cell_volume                      2911.94010717

loop_
_atom_site_label
_atom_site_type_symbol
_atom_type_description
_atom_site_fract_x
_atom_site_fract_y
_atom_site_fract_z
_atom_type_partial_charge
Ba1   Ba    Ba6+2 0.335320 0.541410 0.478120 1.636216
Ba2   Ba    Ba6+2 0.854470 0.458670 0.521900 1.639224
C1    C     C_3   0.024261 0.853545 0.366758 -0.366856
C2    C     C_3   0.045221 0.765537 0.377224 0.380765
C3    C     C_3   0.073556 0.336324 0.325193 0.291598
C4    C     C_3   0.098666 0.317615 0.255712 -0.216169
C5    C     C_3   0.596353 0.250949 0.649274 0.354873
C6    C     C_3   0.546869 0.190702 0.684110 -0.341178
C7    C     C_3   0.098362 0.235279 0.640320 0.363190
C8    C     C_3   0.076420 0.158860 0.663651 -0.353836
C9    C     C_R   0.830642 0.522476 0.334429 -0.291437
C10   C     C_R   0.600805 0.559201 0.945992 -0.029969
C11   C     C_R   0.548727 0.556861 0.886795 0.580201
C12   C     C_3   0.537035 0.780047 0.359606 0.537539
C13   C     C_R   0.558301 0.401812 0.857973 0.575052
C14   C     C_R   0.596033 0.402873 0.918341 -0.021487
C15   C     C_R   0.618396 0.482095 0.962467 -0.053937
C16   C     C_R   0.633919 0.636977 0.989467 -0.080910
C17   C     C_R   0.683286 0.638058 0.047839 -0.077957
C18   C     C_R   0.695584 0.562003 0.065548 -0.014489
C19   C     C_R   0.660340 0.484116 0.023108 -0.052761
C20   C     C_R   0.610917 0.326637 0.935787 -0.081474
C21   C     C_R   0.643739 0.329488 0.996278 -0.081577
C22   C     C_R   0.669086 0.408122 0.040812 -0.024798
C23   C     C_3   0.566704 0.854463 0.334414 -0.324684
C24   C     C_R   0.703570 0.412471 0.102377 0.583136
C25   C     C_R   0.743597 0.562537 0.124653 0.565033
C26   C     C_2   0.322602 0.441785 0.763430 0.015966
C27   C     C_3   0.296771 0.416913 0.694181 -0.069079
C28   C     C_1   0.501267 0.513485 0.686788 0.040018
C29   C     C_2   0.555839 0.512743 0.741243 -0.101880
C30   C     C_2   0.462581 0.476905 0.783508 0.221836
C31   C     C_R   0.911806 0.533147 0.234819 -0.106804
C32   C     C_R   0.936784 0.548334 0.297509 -0.018623
C33   C     C_R   0.702048 0.477397 0.309494 0.038758
C34   C     C_3   0.614646 0.726519 0.630957 0.312215
C35   C     C_R   0.671704 0.464178 0.246342 -0.118516
C36   C     C_R   0.774939 0.494236 0.208221 0.189902
C37   C     C_2   0.378959 0.471104 0.662168 -0.282714
C38   C     C_2   0.399709 0.239813 0.483564 -0.294454
C39   C     C_R   0.809790 0.750392 0.511196 -0.293938
C40   C     C_2   0.254279 0.119974 0.422126 -0.008017
C41   C     C_2   0.264183 0.206628 0.445072 0.041688
C42   C     C_2   0.511963 0.185994 0.498981 -0.000719
C43   C     C_3   0.473231 0.095204 0.492263 -0.055816
C44   C     C_3   0.386566 0.056556 0.433407 0.014361
C45   C     C_3   0.592129 0.824484 0.661264 -0.372539
C46   C     C_2   0.614243 0.033240 0.497177 -0.085007
C47   C     C_2   0.584759 0.966198 0.516062 -0.077776
C48   C     C_R   0.855839 0.926133 0.549305 -0.002661
C49   C     C_R   0.714585 0.899766 0.519951 -0.038064
C50   C     C_R   0.969626 0.865416 0.561921 -0.141125
C51   C     C_R   0.942642 0.778003 0.544657 0.070838
C52   C     C_R   0.692075 0.810955 0.501069 -0.002943
C53   C     C_3   0.586585 0.272943 0.370822 0.311813
C54   C     C_3   0.627289 0.175196 0.341869 -0.392298
C55   C     C_3   0.136556 0.653360 0.668204 0.305449
C56   C     C_3   0.139039 0.675622 0.737812 -0.362208
H1    H     H_    0.125702 0.769642 0.416136 0.086284
H2    H     H_    0.670379 0.842440 0.701071 0.127036
H3    H     H_    0.625896 0.857917 0.628109 0.061001
H4    H     H_    0.462900 0.846715 0.677489 0.127290
H5    H     H_    0.456440 0.288125 0.385285 -0.005453
H6    H     H_    0.661899 0.294594 0.411070 0.073092
H7    H     H_    0.545277 0.150662 0.304136 0.120030
H8    H     H_    0.612802 0.141402 0.376610 0.059634
H9    H     H_    0.755423 0.160004 0.322941 0.118586
H10   H     H_    0.263191 0.637486 0.648472 0.010240
H11   H     H_    0.069207 0.596008 0.650592 0.081720
H12   H     H_    0.144944 0.871585 0.356467 0.146507
H13   H     H_    0.209157 0.731653 0.756609 0.133324
H14   H     H_    0.196961 0.619266 0.750362 0.068097
H15   H     H_    0.012792 0.692388 0.758623 0.131310
H16   H     H_    0.923778 0.750549 0.389594 -0.069131
H17   H     H_    0.965759 0.903169 0.408743 0.056019
H18   H     H_    0.942302 0.352806 0.339403 0.000411
H19   H     H_    0.139174 0.392774 0.347847 0.061974
H20   H     H_    0.074847 0.379086 0.244383 0.058641
H21   H     H_    0.227953 0.291495 0.241520 0.130597
H22   H     H_    0.946379 0.851445 0.327497 0.116423
H23   H     H_    0.658202 0.832163 0.294996 0.076859
H24   H     H_    0.639641 0.309020 0.682186 0.086501
H25   H     H_    0.486125 0.272704 0.628694 -0.081918
H26   H     H_    0.650554 0.172401 0.709411 0.140304
H27   H     H_    0.443316 0.223800 0.717484 0.115061
H28   H     H_    0.508420 0.131006 0.651360 0.093358
H29   H     H_    0.230655 0.240573 0.638382 -0.084441
H30   H     H_    0.054350 0.221591 0.593094 0.089472
H31   H     H_    0.143158 0.098554 0.631708 0.064054
H32   H     H_    0.945906 0.149935 0.666683 0.155163
H33   H     H_    0.125462 0.170497 0.709993 0.107135
H34   H     H_    0.650983 0.269537 0.007872 0.117481
H35   H     H_    0.593750 0.264591 0.902962 0.116444
H36   H     H_    0.708989 0.699324 0.079577 0.119711
H37   H     H_    0.998243 0.552801 0.207031 0.125162
H38   H     H_    0.623080 0.697313 0.978332 0.122042
H39   H     H_    0.667455 0.540105 0.756453 0.129253
H40   H     H_    0.568482 0.431405 0.227399 0.120486
H41   H     H_    0.854348 0.533110 0.382410 0.079363
H42   H     H_    0.658450 0.750188 0.367557 -0.080145
H43   H     H_    0.357306 0.459942 0.613839 0.079718
H44   H     H_    0.073946 0.887168 0.587509 0.099992
H45   H     H_    0.415446 0.308152 0.494516 0.061345
H46   H     H_    0.790156 0.682558 0.498124 0.067789
H47   H     H_    0.736050 0.038501 0.481163 0.095203
H48   H     H_    0.460039 0.959314 0.527615 0.114402
H49   H     H_    0.451427 0.880494 0.319431 0.111729
H50   H     H_    0.614950 0.907136 0.370699 0.086663
H51   H     H_    0.743762 0.705353 0.615603 0.000765
H52   H     H_    0.537090 0.710283 0.590886 0.068198
N1    N     N_R   0.523401 0.478800 0.843803 -0.422217
N2    N     N_R   0.738871 0.489628 0.144441 -0.421588
O1    O     O_2   0.414630 0.451750 0.353890 -0.460708
O2    O     O_3   0.060546 0.725094 0.653646 -0.632887
O3    O     O_3   0.435159 0.815028 0.413212 -0.603256
O4    O     O_2   0.775060 0.548280 0.646150 -0.451638
O5    O     O_3   0.534950 0.547420 0.574950 -0.503421
O6    O     O_3   0.073530 0.388570 0.588510 -0.469489
O7    O     O_3   0.570430 0.687164 0.674336 -0.627498
O8    O     O_3   0.168220 0.394330 0.455930 -0.477759
O9    O     O_3   0.678190 0.343400 0.553390 -0.472149
O10   O     O_2   0.851012 0.189939 0.497372 -0.500535
O11   O     O_3   0.723947 0.207028 0.605818 -0.594361
O12   O     O_3   0.654720 0.452660 0.425060 -0.496142
O13   O     O_3   0.021450 0.605740 0.544090 -0.491555
O14   O     O_2   0.953100 0.285520 0.441860 -0.464122
O15   O     O_3   0.135676 0.262391 0.340211 -0.654925
O16   O     O_2   0.964592 0.479439 0.703338 -0.491170
O17   O     O_3   0.009378 0.311114 0.679815 -0.583565
O18   O     O_2   0.524288 0.624422 0.873882 -0.597334
O19   O     O_2   0.555111 0.332190 0.818060 -0.624708
O20   O     O_2   0.704825 0.347065 0.117971 -0.614936
O21   O     O_2   0.790193 0.628574 0.158316 -0.622301
O22   O     O_3   0.116150 0.611500 0.411510 -0.495292
O23   O     O_2   0.270905 0.547012 0.299780 -0.499707
O24   O     O_3   0.617769 0.312712 0.326469 -0.639224
O25   O     O_3   0.115474 0.702657 0.323444 -0.578331
O26   O     O_2   0.236590 0.714510 0.558180 -0.453728
O27   O     O_3   0.511480 0.656670 0.446630 -0.492344
O28   O     O_2   0.369888 0.811927 0.522022 -0.491238
P1    P     P_3+3 0.594550 0.425840 0.359090 0.985107
P2    P     P_3+3 0.065650 0.701630 0.573510 0.982390
P3    P     P_3+3 0.503208 0.771332 0.470324 0.926870
P4    P     P_3+3 0.595130 0.574230 0.640920 0.991848
P5    P     P_3+3 0.692485 0.230738 0.537111 0.960003
P6    P     P_3+3 0.111246 0.600238 0.332827 0.946196
P7    P     P_3+3 0.133560 0.286357 0.420170 0.941242
P8    P     P_3+3 0.085919 0.400866 0.667134 0.952477
C57   C     C_3   0.986056 0.253026 0.220001 -0.198317
C58   C     C_3   0.022158 0.229940 0.150793 -0.373806
H53   H     H_    0.011434 0.289598 0.136560 0.168210
H54   H     H_    0.147120 0.195726 0.137993 0.121788
H55   H     H_    0.934097 0.186533 0.125849 0.148969
H56   H     H_    0.002470 0.192490 0.233191 0.139913
H57   H     H_    0.857345 0.282172 0.231208 0.146128
N3    N     N_2   0.455015 0.714435 0.316868 -0.394699
H58   H     H_    0.435783 0.665766 0.335257 0.236858
C59   C     C_3   0.525250 0.679740 0.254978 -0.223508
H59   H     H_    0.469284 0.620676 0.229890 0.133949
H60   H     H_    0.657289 0.663194 0.257089 0.136723
H61   H     H_    0.502157 0.727934 0.229841 0.136922
C60   C     C_3   0.200204 0.424091 0.807511 -0.198378
C61   C     C_3   0.104068 0.508428 0.847615 -0.406110
H62   H     H_    0.186320 0.550762 0.877471 0.146347
H63   H     H_    0.041117 0.543990 0.818652 0.160221
H64   H     H_    0.011197 0.493490 0.877445 0.123885
H65   H     H_    0.113626 0.380556 0.782352 0.140621
H66   H     H_    0.258795 0.389633 0.837671 0.131194
C62   C     C_3   0.123106 0.081677 0.380492 -0.181048
C63   C     C_3   0.185968 0.046789 0.313250 -0.440285
H67   H     H_    0.230481 0.099137 0.297828 0.161931
H68   H     H_    0.286869 0.994096 0.306872 0.128351
H69   H     H_    0.086184 0.020394 0.284048 0.126339
H70   H     H_    0.081131 0.028209 0.395084 0.105250
H71   H     H_    0.013788 0.128567 0.384308 0.142796

loop_
_geom_bond_atom_site_label_1
_geom_bond_atom_site_label_2
_ccdc_geom_bond_type
C5    H25   S    
C53   C54   S    
C30   N1    S    
Ba2   P4    S    
C62   C63   S    
O27   P3    S    
C61   H62   S    
O28   P3    D    
C27   P8    S    
Ba2   O6    S    
C26   C60   S    
C5    C6    S    
C43   C44   S    
C42   C43   S    
C50   H44   S    
C35   C36   A    
O2    P2    S    
N3    H58   S    
C61   H63   S    
Ba1   O13   S    
C16   C17   A    
C7    H30   S    
C28   C29   D    
C56   H13   S    
C4    H20   S    
C63   H67   S    
C13   C14   A    
C16   H38   S    
C34   C45   S    
C9    H41   S    
C6    H27   S    
C40   C44   S    
O10   P5    D    
C34   O7    S    
O5    P4    S    
O17   P8    S    
Ba1   P2    S    
C59   H61   S    
C2    O25   S    
O4    P4    D    
C4    C57   S    
Ba2   O4    S    
N3    C59   S    
C59   H60   S    
C38   C41   S    
O11   P5    S    
C8    H31   S    
C14   C15   A    
C47   C49   S    
C58   H55   S    
C53   H5    S    
C10   C15   A    
C11   O18   D    
C48   C50   A    
C21   C22   A    
C1    H17   S    
C7    C8    S    
C2    H16   S    
Ba1   O27   S    
C52   P3    S    
C45   H2    S    
C46   H47   S    
C23   H23   S    
O7    P4    S    
C3    O15   S    
Ba1   O1    S    
C45   H4    S    
C1    H22   S    
C31   H37   S    
C35   H40   S    
Ba2   O5    S    
C37   H43   S    
C61   H64   S    
C55   C56   S    
C20   C21   A    
O22   P6    S    
O3    P3    S    
C25   O21   D    
C13   N1    Am   
O25   P6    S    
C26   C30   D    
C1    H12   S    
C41   P7    S    
C42   P5    S    
O26   P2    D    
C5    O11   S    
O9    P5    S    
Ba2   O8    S    
O16   P8    D    
C48   C49   A    
C15   C19   A    
Ba1   O8    S    
C12   O3    S    
C62   H70   S    
C57   H56   S    
C45   H3    S    
O24   P1    S    
C40   C62   S    
Ba2   O9    S    
C56   H15   S    
C29   C30   S    
O13   P2    S    
C51   P2    S    
O23   P6    D    
C53   H6    S    
C27   C37   S    
C31   C32   A    
C62   H71   S    
Ba1   O5    S    
C10   C11   A    
C39   C51   A    
C47   H48   S    
C17   H36   S    
C33   P1    S    
C60   H66   S    
Ba2   O14   S    
C46   C47   D    
C25   N2    Am   
Ba2   O12   S    
C34   H52   S    
C59   H59   S    
C20   H35   S    
C58   H54   S    
O12   P1    S    
C40   C41   D    
C28   P4    S    
C3    H19   S    
C1    C2    S    
C24   N2    Am   
Ba1   O22   S    
C24   O20   D    
C50   C51   A    
C23   H49   S    
C60   C61   S    
C43   C46   S    
C33   C35   A    
C26   C27   S    
C14   C20   A    
C12   N3    S    
C6    H26   S    
C9    C32   A    
C22   C24   A    
C8    H33   S    
O14   P7    D    
C12   H42   S    
C55   O2    S    
C18   C25   A    
C7    O17   S    
C54   H9    S    
C31   C36   A    
C58   H53   S    
C39   H46   S    
C49   C52   A    
C53   O24   S    
C17   C18   A    
O6    P8    S    
C57   H57   S    
Ba1   O12   S    
C11   N1    Am   
C57   C58   S    
C7    H29   S    
C38   H45   S    
C32   P6    S    
C56   H14   S    
C4    H21   S    
C3    C4    S    
C63   H68   S    
C3    H18   S    
C54   H8    S    
Ba1   Ba2   S    
C2    H1    S    
C9    C33   A    
O1    P1    D    
C28   C37   D    
C6    H28   S    
C29   H39   S    
C12   C23   S    
C39   C52   A    
Ba1   P1    S    
C60   H65   S    
Ba2   O13   S    
C38   C42   D    
C5    H24   S    
C13   O19   D    
C18   C19   A    
C8    H32   S    
O8    P7    S    
C19   C22   A    
C10   C16   A    
C34   H51   S    
C21   H34   S    
C55   H10   S    
C55   H11   S    
C36   N2    S    
Ba1   O26   S    
C54   H7    S    
C23   H50   S    
O15   P7    S    
C63   H69   S    
