data_mof_unit_32600.cif
_audit_creation_date              2013-03-05T15:46:42-0500
_audit_creation_method            fapswitch 2.2
_symmetry_space_group_name_H-M    P1
_symmetry_Int_Tables_number       1
_space_group_crystal_system       triclinic
_cell_length_a                    8.416283
_cell_length_b                    16.554459
_cell_length_c                    19.137781
_cell_angle_alpha                 108.109876
_cell_angle_beta                  84.770251
_cell_angle_gamma                 97.916934
_cell_volume                      2506.85570592

loop_
_atom_site_label
_atom_site_type_symbol
_atom_site_description
_atom_site_fract_x
_atom_site_fract_y
_atom_site_fract_z
_atom_type_partial_charge
P1    P     P_3+3 0.391560 0.302240 0.409860 0.528779
O1    O     O_2   0.558990 0.288510 0.428270 -0.322914
O2    O     O_3   0.341190 0.396600 0.446070 -0.378443
O3    O     O_3   0.809080 0.340350 0.563320 -0.425132
O4    O     O_2   0.634349 0.192256 0.497092 -0.370487
O5    O     O_3   0.428190 0.285805 0.315270 -0.559505
O6    O     O_3   0.753439 0.196625 0.620107 -0.519096
H1    H     H_    0.635297 0.299954 0.677385 0.145258
C1    C     C_3   0.706317 0.237933 0.751670 -0.693582
H2    H     H_    0.644650 0.285949 0.795863 0.178090
P2    P     P_3+3 0.873530 0.566630 0.670640 0.534185
P3    P     P_3+3 0.382373 0.403941 0.703421 0.504677
O7    O     O_2   0.692320 0.540420 0.676730 -0.335697
O8    O     O_3   0.406060 0.383660 0.606030 -0.338832
O9    O     O_2   0.541925 0.447209 0.739033 -0.359961
O10   O     O_3   0.889215 0.678065 0.710118 -0.524304
O11   O     O_3   0.350184 0.309961 0.730803 -0.580290
C2    C     C_3   0.313697 0.233088 0.673799 0.263651
C3    C     C_3   0.301147 0.158889 0.708136 -0.688699
C4    C     C_3   0.474294 0.770351 0.732635 0.020912
C5    C     C_3   0.372854 0.841879 0.780012 -0.667032
Ba1   Ba    Ba6+2 0.640410 0.457420 0.526150 1.637206
C6    C     C_3   0.284463 0.271662 0.279143 0.225308
C7    C     C_3   0.225555 0.175614 0.252387 -1.000992
H3    H     H_    0.231176 0.144307 0.295052 0.279879
C8    C     C_3   0.893192 0.723816 0.659140 0.360506
H4    H     H_    0.768800 0.728829 0.649206 -0.030808
C9    C     C_3   0.984752 0.812626 0.693755 -0.654238
H5    H     H_    0.112087 0.810161 0.674654 0.192015
P4    P     P_3+3 0.418740 0.697770 0.590200 0.505603
O12   O     O_2   0.251320 0.711540 0.571760 -0.349119
O13   O     O_3   0.469110 0.603410 0.553990 -0.369256
O14   O     O_3   0.001220 0.659660 0.436740 -0.349463
O15   O     O_3   0.375069 0.704826 0.683860 -0.541772
P5    P     P_3+3 0.434981 0.608191 0.300360 0.558786
O16   O     O_3   0.861890 0.456640 0.409240 -0.408056
O17   O     O_3   0.404240 0.616350 0.394030 -0.336353
O18   O     O_2   0.293582 0.546897 0.261147 -0.285703
O19   O     O_3   0.398442 0.704776 0.288672 -0.502645
Ba2   Ba    Ba6+2 0.169770 0.542590 0.473910 1.657991
P6    P     P_3+3 0.788793 0.228393 0.539865 0.485314
C10   C     C_3   0.736804 0.267746 0.682957 0.351593
H6    H     H_    0.842359 0.316465 0.691390 0.052240
O20   O     O_3   0.948410 0.543360 0.590820 -0.407552
C11   C     C_3   0.807338 0.261774 0.262983 0.009794
C12   C     C_3   0.793659 0.206546 0.180476 -0.565227
P7    P     P_3+3 0.932613 0.426905 0.314305 0.472653
O21   O     O_2   0.117990 0.459640 0.323300 -0.299835
O22   O     O_3   0.950932 0.317493 0.269997 -0.623404
H7    H     H_    0.177660 0.144145 0.730037 0.228286
C13   C     C_3   0.541118 0.759299 0.285466 0.422293
C14   C     C_3   0.547951 0.781979 0.213439 -0.862448
H8    H     H_    0.444780 0.816541 0.212187 0.281984
H9    H     H_    0.660894 0.822810 0.206959 0.242515
P8    P     P_3+3 0.016415 0.771687 0.461055 0.522138
C15   C     C_3   0.999875 0.786432 0.329904 0.300581
O23   O     O_2   0.141570 0.807957 0.520302 -0.339375
O24   O     O_3   0.103733 0.809111 0.388418 -0.477975
C16   C     C_3   0.991168 0.864311 0.302893 -0.729992
H10   H     H_    0.934869 0.914297 0.347128 0.195895
C17   C     C_2   0.713029 0.752919 0.521683 -0.474167
C18   C     C_R   0.092400 0.245740 0.467494 -0.352230
C19   C     C_2   0.528590 0.859457 0.579224 -0.197051
C20   C     C_2   0.559636 0.777998 0.560589 0.245380
C21   C     C_2   0.822045 0.809105 0.500507 0.174608
C22   C     C_3   0.773499 0.894445 0.501379 -0.085951
C23   C     C_3   0.651528 0.928471 0.564763 0.208572
C24   C     C_2   0.909206 0.962870 0.497383 -0.086195
C25   C     C_2   0.878146 0.035654 0.486964 -0.091890
C26   C     C_R   0.158089 0.079459 0.444797 0.168339
C27   C     C_R   0.004739 0.101571 0.473338 -0.042764
C28   C     C_R   0.277267 0.139465 0.428171 -0.295952
C29   C     C_R   0.244116 0.223052 0.438717 0.237837
C30   C     C_R   0.972452 0.186558 0.486354 0.345875
H11   H     H_    0.392876 0.119795 0.404842 0.211358
H12   H     H_    0.069172 0.311241 0.477881 0.172303
H13   H     H_    0.032378 0.952223 0.500070 0.220405
C31   C     C_R   0.120816 0.488626 0.701471 -0.412073
C32   C     C_R   0.973275 0.519035 0.726967 0.306778
C33   C     C_R   0.917506 0.527242 0.799615 -0.244671
C34   C     C_R   0.010221 0.506713 0.847691 -0.057157
C35   C     C_R   0.162787 0.478132 0.822569 -0.156986
C36   C     C_R   0.214592 0.466326 0.747670 0.238688
C37   C     C_R   0.826473 0.450712 0.935929 -0.060067
C38   C     C_R   0.769549 0.452135 0.007786 -0.157076
C39   C     C_R   0.835337 0.518298 0.068666 0.056260
C40   C     C_R   0.941268 0.585645 0.054807 -0.061939
C41   C     C_R   0.997937 0.582792 0.983201 -0.135324
C42   C     C_R   0.943746 0.514022 0.923507 0.155244
C43   C     C_R   0.662360 0.558294 0.183006 -0.152521
C44   C     C_R   0.618306 0.561502 0.255650 0.215544
C45   C     C_R   0.839900 0.482217 0.258698 0.271719
C46   C     C_R   0.891060 0.482901 0.185324 -0.215510
C47   C     C_R   0.796984 0.519440 0.146857 0.010693
C48   C     C_R   0.705328 0.523053 0.292633 -0.323627
H14   H     H_    0.804077 0.552362 0.819571 0.204485
H15   H     H_    0.982901 0.639749 0.099852 0.159599
H16   H     H_    0.085113 0.633719 0.974369 0.143557
H17   H     H_    0.665116 0.523223 0.348041 0.141583
H18   H     H_    0.162939 0.481800 0.644990 0.183780
C49   C     C_2   0.236358 0.811524 0.826720 1.107082
O25   O     O_2   0.153860 0.863568 0.868396 -0.589167
O26   O     O_R   0.201102 0.724864 0.821531 -0.781254
H19   H     H_    0.105819 0.713508 0.854979 0.332130
C50   C     C_2   0.474773 0.918827 0.826904 1.162167
O27   O     O_2   0.530479 0.916361 0.882953 -0.551429
O28   O     O_R   0.499913 0.994281 0.807140 -0.737486
H20   H     H_    0.568811 0.041683 0.842603 0.362254
H21   H     H_    0.318454 0.865659 0.740797 0.160381
C51   C     C_2   0.319311 0.309248 0.215838 1.201169
O29   O     O_2   0.390243 0.381256 0.228300 -0.558079
O30   O     O_R   0.278617 0.265126 0.143250 -0.738855
H22   H     H_    0.197288 0.212870 0.136786 0.317664
H23   H     H_    0.190634 0.305844 0.316548 0.113972
H24   H     H_    0.296513 0.142176 0.203006 0.273215
H25   H     H_    0.100133 0.165871 0.236747 0.241395
H26   H     H_    0.954263 0.692952 0.605562 0.126811
H27   H     H_    0.978806 0.827701 0.754504 0.246917
C52   C     C_2   0.925223 0.886185 0.678045 1.049123
O31   O     O_2   0.008561 0.924550 0.640164 -0.600241
O32   O     O_R   0.783759 0.916854 0.713663 -0.789519
H28   H     H_    0.763530 0.971351 0.704107 0.371304
C53   C     C_2   0.857653 0.224241 0.779969 1.207080
O33   O     O_2   0.873924 0.153701 0.784307 -0.592677
O34   O     O_R   0.978211 0.292278 0.802407 -0.828381
H29   H     H_    0.073404 0.274877 0.820766 0.351990
C54   C     C_2   0.820603 0.207029 0.312064 1.096335
O35   O     O_2   0.824475 0.129752 0.287646 -0.597539
O36   O     O_R   0.840465 0.245486 0.386240 -0.782090
H30   H     H_    0.851629 0.309821 0.401409 0.324931
H31   H     H_    0.701806 0.297257 0.281468 0.138320
H32   H     H_    0.906414 0.176355 0.162432 0.162344
C55   C     C_2   0.658331 0.133643 0.165489 1.071459
O37   O     O_2   0.640743 0.087027 0.102390 -0.566076
O38   O     O_R   0.559532 0.115965 0.222888 -0.770995
H33   H     H_    0.489744 0.059146 0.206239 0.329337
C56   C     C_2   0.780072 0.260618 0.131720 1.136770
O39   O     O_2   0.673660 0.307188 0.144245 -0.650315
O40   O     O_R   0.886613 0.254502 0.070303 -0.719931
H34   H     H_    0.867975 0.294124 0.041610 0.326220
H35   H     H_    0.627922 0.176693 0.738222 0.235818
C57   C     C_2   0.537901 0.838714 0.350671 1.027969
O41   O     O_2   0.473751 0.833552 0.409306 -0.601341
O42   O     O_R   0.605988 0.918230 0.344234 -0.792686
H36   H     H_    0.587585 0.966834 0.390665 0.333979
H37   H     H_    0.651621 0.730309 0.286112 -0.111714
H38   H     H_    0.542548 0.723043 0.165762 0.234563
H39   H     H_    0.874501 0.766060 0.346339 -0.050233
C58   C     C_2   0.059506 0.712500 0.270294 1.021041
O43   O     O_2   0.043871 0.642672 0.280313 -0.618676
O44   O     O_R   0.141744 0.723730 0.206578 -0.812142
H40   H     H_    0.191859 0.670878 0.175687 0.355881
H41   H     H_    0.911806 0.844542 0.255848 0.180149
C59   C     C_2   0.151281 0.903353 0.279542 1.222822
O45   O     O_2   0.257572 0.931207 0.323116 -0.633786
O46   O     O_R   0.176658 0.908553 0.207807 -0.751869
H42   H     H_    0.288480 0.935891 0.198289 0.316781
H43   H     H_    0.410313 0.225523 0.629449 0.077018
H44   H     H_    0.418015 0.877676 0.610294 0.175264
H45   H     H_    0.740894 0.688745 0.514800 0.152597
H46   H     H_    0.753785 0.046066 0.486864 0.154484
C60   C     C_2   0.044205 0.451087 0.150551 1.109930
O47   O     O_2   0.085163 0.387439 0.159370 -0.586139
O48   O     O_R   0.144376 0.495032 0.108733 -0.801855
H47   H     H_    0.246642 0.468030 0.089158 0.348696
C61   C     C_2   0.636849 0.386353 0.016133 1.015774
O49   O     O_2   0.621126 0.316520 0.969052 -0.625996
O50   O     O_R   0.524361 0.405153 0.075352 -0.761190
H48   H     H_    0.434319 0.356962 0.071568 0.386905
H49   H     H_    0.778960 0.400261 0.889067 0.158556
C62   C     C_2   0.158743 0.232903 0.640920 0.971425
O51   O     O_2   0.048643 0.175733 0.637356 -0.609163
O52   O     O_R   0.144581 0.298852 0.612846 -0.825599
H50   H     H_    0.034434 0.315322 0.616679 0.296444
H51   H     H_    0.589488 0.584715 0.153736 0.138998
C63   C     C_2   0.264997 0.460020 0.874075 1.089559
O53   O     O_2   0.406637 0.489182 0.877511 -0.609528
O54   O     O_R   0.198675 0.411721 0.920174 -0.780538
H52   H     H_    0.280940 0.403399 0.952109 0.330992
C64   C     C_2   0.352481 0.078598 0.654242 1.145895
O55   O     O_2   0.454784 0.043047 0.670546 -0.638068
O56   O     O_R   0.281689 0.044090 0.586431 -0.772691
H53   H     H_    0.326832 0.990003 0.554809 0.334536
H54   H     H_    0.372993 0.178100 0.757581 0.217457
C65   C     C_2   0.557864 0.732663 0.780569 1.117155
O57   O     O_2   0.673910 0.774307 0.813827 -0.555164
O58   O     O_R   0.507565 0.651437 0.788009 -0.710560
H55   H     H_    0.412591 0.619679 0.758303 0.329770
H56   H     H_    0.568871 0.801193 0.702584 0.082744

loop_
_geom_bond_atom_site_label_1
_geom_bond_atom_site_label_2
_geom_bond_distance
_ccdc_geom_bond_type
O14   P8    1.755351 S    
C22   C24   1.508309 S    
C62   O51   1.220168 D    
C49   O25   1.223581 D    
P4    C20   1.844654 S    
P7    C45   1.879836 S    
O19   C13   1.408124 S    
C8    H26   1.107786 S    
C19   H44   1.084226 S    
C40   C41   1.398019 A    
O54   H52   1.013727 S    
C16   H41   1.109087 S    
C53   O33   1.222979 D    
P7    O22   1.766846 S    
O52   H50   0.991913 S    
C64   O55   1.219750 D    
C50   O28   1.398000 S    
C1    C10   1.531578 S    
C46   C47   1.431706 A    
Ba1   O13   2.867497 S    
C38   C61   1.483015 S    
C9    H5    1.102342 S    
P5    O17   1.753078 S    
H1    C10   1.096796 S    
C2    C3    1.550866 S    
O17   Ba2   2.769278 S    
C37   H49   1.081430 S    
C58   O44   1.397198 S    
C38   C39   1.421584 A    
P4    O12   1.546310 D    
C48   H17   1.082565 S    
C53   O34   1.395143 S    
O3    P6    1.753641 S    
O12   Ba2   2.872242 S    
O16   P7    1.795850 S    
P1    O1    1.545959 D    
O6    C10   1.409552 S    
C25   C27   1.483213 S    
C51   O29   1.219606 D    
C39   C47   1.496608 S    
P6    C30   1.866294 S    
O56   H53   1.013518 S    
C31   C36   1.396882 A    
Ba1   O20   2.957985 S    
O6    P6    1.760400 S    
C64   O56   1.397063 S    
C24   C25   1.343679 D    
P3    O11   1.770121 S    
O1    Ba1   2.871784 S    
C6    C7    1.535946 S    
C18   C29   1.396478 A    
C26   C27   1.405502 A    
C33   H14   1.083657 S    
O38   H33   1.013343 S    
C1    H2    1.110038 S    
Ba2   O20   2.775954 S    
C59   O46   1.397397 S    
C34   C42   1.481357 S    
C41   C42   1.397353 A    
C63   O54   1.398206 S    
C22   C23   1.532980 S    
C4    C65   1.523084 S    
C56   O39   1.220689 D    
C16   H10   1.106935 S    
C49   O26   1.398413 S    
C61   O50   1.394223 S    
C18   H12   1.082040 S    
C28   H11   1.081571 S    
O30   H22   1.008951 S    
P8    C21   1.842034 S    
C16   C59   1.504392 S    
C14   H9    1.108807 S    
C43   C47   1.399037 A    
C60   O48   1.396608 S    
C52   O32   1.394048 S    
O10   C8    1.404629 S    
C19   C23   1.507038 S    
O14   Ba2   2.841244 S    
O32   H28   1.013352 S    
P4    O15   1.767252 S    
C19   C20   1.339793 D    
C13   C14   1.531576 S    
P4    O13   1.598729 S    
O50   H48   1.011694 S    
O16   Ba2   2.957164 S    
P5    O18   1.538107 D    
C7    H3    1.101995 S    
C17   H45   1.084894 S    
C4    H56   1.101004 S    
C1    H35   1.101745 S    
C39   C40   1.405385 A    
C28   C29   1.398485 A    
C13   H37   1.106419 S    
C2    C62   1.497994 S    
C43   H51   1.081691 S    
C45   C48   1.401945 A    
C34   C35   1.420269 A    
P1    O5    1.749634 S    
P3    C36   1.848709 S    
P1    O2    1.598729 S    
C15   H39   1.110626 S    
C17   C20   1.474345 S    
P5    O19   1.752556 S    
C54   O36   1.378591 S    
C2    H43   1.110598 S    
O48   H47   1.011955 S    
C17   C21   1.342626 D    
C55   O37   1.223700 D    
O3    Ba1   2.841866 S    
P2    O10   1.753842 S    
P7    O21   1.586046 D    
P3    O9    1.542445 D    
C11   O22   1.405310 S    
O44   H40   1.013678 S    
Ba1   Ba2   4.670547 S    
O11   C2    1.412181 S    
C8    H4    1.099585 S    
P4    Ba2   3.428711 S    
P2    O20   1.550678 S    
C37   C38   1.408561 A    
C52   O31   1.221350 D    
C56   O40   1.398106 S    
C59   O45   1.221302 D    
P2    C32   1.833785 S    
C4    O15   1.417201 S    
C12   C56   1.500627 S    
C63   O53   1.222485 D    
P3    O8    1.785524 S    
O2    Ba2   2.868106 S    
C7    H25   1.100248 S    
C14   H38   1.108327 S    
P8    O23   1.541413 D    
C31   H18   1.082638 S    
C61   O49   1.223858 D    
C57   O42   1.398725 S    
C37   C42   1.398673 A    
O28   H20   1.013869 S    
C43   C44   1.392352 A    
C54   O35   1.221895 D    
C14   H8    1.109547 S    
C60   O47   1.216026 D    
C35   C63   1.486900 S    
C13   C57   1.506659 S    
C24   H13   1.083529 S    
Ba2   O21   2.826125 S    
C6    C51   1.514767 S    
O4    P6    1.546897 D    
O46   H42   1.013104 S    
C31   C32   1.393725 A    
C25   H46   1.084188 S    
C33   C34   1.403299 A    
C9    C52   1.499138 S    
C3    H54   1.107453 S    
C27   C30   1.410821 A    
C5    H21   1.106246 S    
O40   H34   1.012110 S    
C11   H31   1.102866 S    
C62   O52   1.380938 S    
Ba1   O16   2.776531 S    
C50   O27   1.223213 D    
P2    Ba1   3.415904 S    
C8    C9    1.539364 S    
C15   C16   1.543353 S    
O42   H36   1.012782 S    
P1    C29   1.854830 S    
O8    Ba1   2.768669 S    
O36   H30   1.006276 S    
C5    C49   1.517980 S    
O58   H55   1.009852 S    
C21   C22   1.518617 S    
C9    H27   1.108555 S    
C58   O43   1.217227 D    
C6    H23   1.106567 S    
C12   H32   1.110502 S    
P2    O7    1.531197 D    
C3    H7    1.108921 S    
C65   O57   1.220381 D    
O34   H29   1.012980 S    
C46   C60   1.481301 S    
C11   C54   1.514031 S    
O5    C6    1.403533 S    
C45   C46   1.433762 A    
C1    C53   1.499526 S    
C15   O24   1.409147 S    
O7    Ba1   2.825940 S    
O13   Ba2   2.958937 S    
C51   O30   1.402728 S    
C65   O58   1.399571 S    
C44   C48   1.394798 A    
C32   C33   1.397462 A    
C41   H16   1.083156 S    
C11   C12   1.564933 S    
P1    Ba1   3.428137 S    
C4    C5    1.556599 S    
C7    H24   1.104157 S    
C35   C36   1.420688 A    
C10   H6    1.101632 S    
P8    O24   1.754999 S    
O26   H19   1.013845 S    
C55   O38   1.396456 S    
C57   O41   1.222482 D    
C18   C30   1.410744 A    
O2    Ba1   2.958073 S    
C26   C28   1.399262 A    
C40   H15   1.075517 S    
C15   C58   1.499362 S    
C3    C64   1.497284 S    
C5    C50   1.514070 S    
C12   C55   1.517148 S    
P5    C44   1.840326 S    
