data_mof_unit_31564.cif
_audit_creation_date              2012-12-11T15:37:35-0500
_audit_creation_method            fapswitch 2.2
_symmetry_space_group_name_H-M    P1
_symmetry_Int_Tables_number       1
_space_group_crystal_system       triclinic
_cell_length_a                    17.469485
_cell_length_b                    24.524304
_cell_length_c                    14.826862
_cell_angle_alpha                 89.615128
_cell_angle_beta                  126.245458
_cell_angle_gamma                 90.971597
_cell_volume                      5122.23759736

loop_
_atom_site_label
_atom_site_type_symbol
_atom_type_description
_atom_site_fract_x
_atom_site_fract_y
_atom_site_fract_z
_atom_type_partial_charge
C1    C     C_R   0.846669 0.650760 0.908567 -0.169124
C2    C     C_3   0.576109 0.498003 0.643484 0.154641
C3    C     C_3   0.047926 0.014155 0.527421 -0.108630
C4    C     C_3   0.983078 0.332390 0.208042 -0.466733
C5    C     C_3   0.088486 0.318891 0.269740 -0.261622
C6    C     C_3   0.131152 0.297074 0.386833 -0.862920
C7    C     C_3   0.023835 0.675071 0.810585 -0.489464
C8    C     C_3   0.038554 0.734241 0.851034 -0.206630
C9    C     C_3   0.976544 0.772766 0.752993 -0.809293
C10   C     C_3   0.004686 0.322523 0.793847 -0.451497
C11   C     C_3   0.900155 0.338332 0.711050 -0.248614
C12   C     C_3   0.867700 0.336343 0.590199 -0.882326
C13   C     C_3   0.903635 0.000393 0.464229 0.155947
C14   C     C_3   0.024752 0.674992 0.205802 -0.476355
C15   C     C_3   0.056792 0.731873 0.195062 -0.218617
C16   C     C_3   0.145533 0.751541 0.306903 -0.890747
C17   C     C_3   0.483078 0.832390 0.208042 -0.466734
C18   C     C_3   0.588486 0.818891 0.269741 -0.261621
C19   C     C_3   0.631152 0.797074 0.386833 -0.862921
C20   C     C_3   0.523835 0.175071 0.810584 -0.489465
C21   C     C_3   0.538554 0.234241 0.851034 -0.206630
C22   C     C_3   0.476543 0.272766 0.752993 -0.809291
C23   C     C_3   0.504686 0.822523 0.793847 -0.451497
C24   C     C_3   0.076109 0.998003 0.643484 0.154641
C25   C     C_3   0.400155 0.838332 0.711050 -0.248614
C26   C     C_3   0.367700 0.836342 0.590199 -0.882325
C27   C     C_3   0.524751 0.174992 0.205802 -0.476357
C28   C     C_3   0.556792 0.231873 0.195062 -0.218617
C29   C     C_3   0.645533 0.251541 0.306903 -0.890747
C30   C     C_R   0.772027 0.231160 0.880623 0.200158
C31   C     C_R   0.350493 0.679883 0.086474 0.216376
C32   C     C_R   0.205201 0.232395 0.045940 0.215538
C33   C     C_R   0.805556 0.770536 0.962927 0.199739
C34   C     C_R   0.272029 0.731159 0.880623 0.200159
C35   C     C_R   0.850493 0.179883 0.086473 0.216376
C36   C     C_R   0.705201 0.732395 0.045940 0.215538
C37   C     C_R   0.159909 0.351991 0.095291 -0.160292
C38   C     C_R   0.305556 0.270536 0.962927 0.199738
C39   C     C_R   0.234197 0.683033 0.889163 -0.207301
C40   C     C_R   0.898072 0.222997 0.076976 -0.223750
C41   C     C_R   0.769056 0.699102 0.048192 -0.235760
C42   C     C_R   0.242902 0.303914 0.962178 -0.237891
C43   C     C_R   0.734196 0.183033 0.889163 -0.207301
C44   C     C_R   0.398072 0.722997 0.076976 -0.223750
C45   C     C_R   0.269056 0.199102 0.048192 -0.235761
C46   C     C_R   0.742902 0.803914 0.962177 -0.237891
C47   C     C_R   0.257841 0.667187 0.992805 0.019264
C48   C     C_R   0.189036 0.628460 0.092610 -0.145533
C49   C     C_R   0.849667 0.256346 0.981613 0.037631
C50   C     C_R   0.818782 0.718141 0.006761 0.012408
C51   C     C_R   0.192988 0.284787 0.002811 0.005693
C52   C     C_R   0.757841 0.167187 0.992804 0.019265
C53   C     C_R   0.349668 0.756346 0.981613 0.037631
C54   C     C_R   0.318782 0.218141 0.006761 0.012408
C55   C     C_R   0.692989 0.784787 0.002811 0.005693
C56   C     C_R   0.108637 0.452851 0.631615 -0.142607
C57   C     C_R   0.115445 0.551737 0.542482 -0.150852
C58   C     C_R   0.115001 0.453027 0.543095 -0.154669
C59   C     C_R   0.848824 0.348544 0.904332 -0.166821
C60   C     C_R   0.108874 0.551537 0.631066 -0.137959
C61   C     C_R   0.608637 0.952851 0.631615 -0.142606
C62   C     C_R   0.615445 0.051737 0.542482 -0.150854
C63   C     C_R   0.615001 0.953027 0.543095 -0.154670
C64   C     C_R   0.608874 0.051537 0.631066 -0.137959
C65   C     C_R   0.107302 0.502340 0.490098 0.112741
C66   C     C_R   0.093844 0.501986 0.666530 0.127997
C67   C     C_R   0.607302 0.002340 0.490098 0.112742
C68   C     C_R   0.593844 0.001986 0.666530 0.127996
C69   C     C_R   0.938874 0.347938 0.088748 0.172712
C70   C     C_R   0.346669 0.150759 0.908567 -0.169125
C71   C     C_R   0.085916 0.635926 0.906571 0.137979
C72   C     C_R   0.061010 0.349489 0.908973 0.144316
C73   C     C_R   0.945771 0.650446 0.094723 0.143140
C74   C     C_R   0.438874 0.847937 0.088748 0.172713
C75   C     C_R   0.585916 0.135926 0.906571 0.137979
C76   C     C_R   0.561010 0.849489 0.908973 0.144316
C77   C     C_R   0.445771 0.150446 0.094723 0.143140
C78   C     C_R   0.049303 0.546330 0.305278 -0.121430
C79   C     C_R   0.021080 0.455464 0.752951 -0.127613
C80   C     C_R   0.011487 0.546000 0.741425 -0.117652
C81   C     C_R   0.659909 0.851991 0.095291 -0.160293
C82   C     C_R   0.058471 0.456342 0.310695 -0.152748
C83   C     C_R   0.549303 0.046330 0.305278 -0.121430
C84   C     C_R   0.521080 0.955464 0.752950 -0.127614
C85   C     C_R   0.511487 0.046000 0.741425 -0.117653
C86   C     C_R   0.558471 0.956342 0.310695 -0.152748
C87   C     C_R   0.731741 0.453684 0.752240 -0.127302
C88   C     C_R   0.261695 0.545585 0.300393 -0.100876
C89   C     C_R   0.261404 0.454803 0.299294 -0.142415
C90   C     C_R   0.732008 0.544455 0.753799 -0.126908
C91   C     C_R   0.231741 0.953684 0.752241 -0.127303
C92   C     C_R   0.689036 0.128460 0.092610 -0.145533
C93   C     C_R   0.761695 0.045585 0.300393 -0.100876
C94   C     C_R   0.761404 0.954803 0.299294 -0.142414
C95   C     C_R   0.232009 0.044455 0.753800 -0.126908
C96   C     C_R   0.877470 0.680129 0.002966 0.074516
C97   C     C_R   0.132552 0.322503 0.003140 0.062039
C98   C     C_R   0.181479 0.644873 0.997897 0.051051
C99   C     C_R   0.876579 0.315256 0.992476 0.047556
C100  C     C_R   0.377470 0.180129 0.002966 0.074516
C101  C     C_R   0.632552 0.822503 0.003140 0.062040
C102  C     C_R   0.681479 0.144873 0.997897 0.051051
C103  C     C_R   0.348824 0.848544 0.904332 -0.166822
C104  C     C_R   0.376580 0.815256 0.992476 0.047556
C105  C     C_R   0.071852 0.501791 0.372746 0.052319
C106  C     C_R   0.047023 0.501351 0.721862 0.041115
C107  C     C_R   0.571852 0.001790 0.372746 0.052319
C108  C     C_R   0.547023 0.001351 0.721862 0.041117
C109  C     C_R   0.676753 0.498429 0.729068 0.042069
C110  C     C_R   0.312173 0.500398 0.358187 0.056057
C111  C     C_R   0.176753 0.998429 0.729068 0.042070
C112  C     C_R   0.812174 0.000398 0.358187 0.056058
C113  C     C_3   0.509372 0.448163 0.595133 -0.160896
C114  C     C_3   0.403635 0.500393 0.464229 0.155946
C115  C     C_3   0.470287 0.550148 0.512747 -0.147482
C116  C     C_3   0.480720 0.464485 0.478513 -0.134475
C117  C     C_3   0.499433 0.534067 0.630016 -0.156166
C118  C     C_3   0.009372 0.948163 0.595134 -0.160895
C119  C     C_3   0.970289 0.050148 0.512746 -0.147483
C120  C     C_3   0.980720 0.964484 0.478514 -0.134478
C121  C     C_3   0.999434 0.034068 0.630015 -0.156168
C122  C     C_3   0.430100 0.484107 0.579183 -0.139701
C123  C     C_3   0.547925 0.514156 0.527421 -0.108632
C124  C     C_3   0.930100 0.984108 0.579182 -0.139701
H1    H     H_    0.798287 0.664006 0.822824 0.130802
H2    H     H_    0.038947 0.414898 0.749322 0.119624
H3    H     H_    0.544560 0.827939 0.757506 0.188572
H4    H     H_    0.505083 0.777648 0.805825 0.202775
H5    H     H_    0.631596 0.253297 0.370862 0.276305
H6    H     H_    0.705463 0.223703 0.336010 0.254718
H7    H     H_    0.666126 0.293015 0.297052 0.257127
H8    H     H_    0.572641 0.230666 0.132642 0.209336
H9    H     H_    0.499601 0.261628 0.166862 0.223575
H10   H     H_    0.501192 0.177178 0.260762 0.198314
H11   H     H_    0.587366 0.148313 0.244235 0.193436
H12   H     H_    0.010637 0.586668 0.715462 0.094118
H13   H     H_    0.091284 0.418254 0.347879 0.112637
H14   H     H_    0.562899 0.087994 0.332502 0.087576
H15   H     H_    0.538947 0.914898 0.749322 0.119624
H16   H     H_    0.510637 0.086668 0.715462 0.094118
H17   H     H_    0.591284 0.918254 0.347879 0.112637
H18   H     H_    0.708734 0.411487 0.734470 0.124714
H19   H     H_    0.276485 0.587192 0.330610 0.091381
H20   H     H_    0.276568 0.412922 0.327103 0.096393
H21   H     H_    0.211997 0.341528 0.182104 0.121100
H22   H     H_    0.708633 0.586150 0.736371 0.107421
H23   H     H_    0.208734 0.911487 0.734470 0.124713
H24   H     H_    0.776485 0.087192 0.330610 0.091381
H25   H     H_    0.776568 0.912922 0.327102 0.096392
H26   H     H_    0.208633 0.086150 0.736371 0.107421
H27   H     H_    0.378287 0.472012 0.596272 0.130943
H28   H     H_    0.597767 0.526389 0.507289 0.141020
H29   H     H_    0.878287 0.972014 0.596271 0.130944
H30   H     H_    0.097768 0.026387 0.507289 0.141019
H31   H     H_    0.527326 0.406558 0.631405 0.136666
H32   H     H_    0.247635 0.634255 0.178690 0.145171
H33   H     H_    0.453067 0.591886 0.477166 0.142072
H34   H     H_    0.471320 0.436298 0.414223 0.132433
H35   H     H_    0.510044 0.562147 0.695065 0.134511
H36   H     H_    0.027325 0.906559 0.631407 0.136665
H37   H     H_    0.953069 0.091885 0.477164 0.142074
H38   H     H_    0.971319 0.936296 0.414225 0.132433
H39   H     H_    0.010045 0.062148 0.695063 0.134511
H40   H     H_    0.178387 0.662097 0.814436 0.149817
H41   H     H_    0.970518 0.231196 0.145951 0.187689
H42   H     H_    0.778223 0.657850 0.079466 0.163625
H43   H     H_    0.812836 0.337799 0.819339 0.141885
H44   H     H_    0.233240 0.345115 0.930393 0.163216
H45   H     H_    0.678386 0.162097 0.814436 0.149817
H46   H     H_    0.470518 0.731195 0.145952 0.187689
H47   H     H_    0.278222 0.157850 0.079465 0.163625
H48   H     H_    0.733240 0.845115 0.930392 0.163216
H49   H     H_    0.104830 0.413768 0.662896 0.112242
H50   H     H_    0.116745 0.590706 0.508951 0.124057
H51   H     H_    0.114779 0.414066 0.509569 0.109649
H52   H     H_    0.105810 0.590310 0.662911 0.115693
H53   H     H_    0.604830 0.913768 0.662896 0.112242
H54   H     H_    0.298287 0.164006 0.822824 0.130801
H55   H     H_    0.616745 0.090706 0.508951 0.124057
H56   H     H_    0.614779 0.914066 0.509569 0.109649
H57   H     H_    0.605810 0.090310 0.662911 0.115693
H58   H     H_    0.123608 0.327087 0.436646 0.246658
H59   H     H_    0.095050 0.258245 0.381703 0.279535
H60   H     H_    0.207792 0.289195 0.430059 0.253596
H61   H     H_    0.096979 0.287833 0.222561 0.228486
H62   H     H_    0.129267 0.355459 0.275278 0.186276
H63   H     H_    0.971473 0.365331 0.248494 0.189296
H64   H     H_    0.943717 0.298540 0.213847 0.197042
H65   H     H_    0.711997 0.841528 0.182104 0.121100
H66   H     H_    0.994891 0.770649 0.693060 0.267289
H67   H     H_    0.900304 0.761768 0.708697 0.268209
H68   H     H_    0.988578 0.815330 0.784268 0.263489
H69   H     H_    0.021363 0.737185 0.911778 0.220795
H70   H     H_    0.113566 0.747537 0.894597 0.208126
H71   H     H_    0.034691 0.672908 0.744498 0.196443
H72   H     H_    0.948241 0.663352 0.769933 0.200898
H73   H     H_    0.907830 0.366809 0.576861 0.253650
H74   H     H_    0.878519 0.295011 0.569669 0.266853
H75   H     H_    0.790980 0.345793 0.532747 0.259414
H76   H     H_    0.747636 0.134255 0.178690 0.145171
H77   H     H_    0.856142 0.308186 0.718065 0.225443
H78   H     H_    0.886055 0.379216 0.728243 0.207962
H79   H     H_    0.044560 0.327939 0.757506 0.188572
H80   H     H_    0.005083 0.277648 0.805825 0.202774
H81   H     H_    0.131597 0.753297 0.370862 0.276305
H82   H     H_    0.205463 0.723703 0.336010 0.254719
H83   H     H_    0.166126 0.793015 0.297052 0.257126
H84   H     H_    0.072641 0.730666 0.132642 0.209336
H85   H     H_    0.999602 0.761628 0.166861 0.223575
H86   H     H_    0.001192 0.677178 0.260762 0.198314
H87   H     H_    0.312835 0.837799 0.819339 0.141885
H88   H     H_    0.087366 0.648313 0.244235 0.193435
H89   H     H_    0.623608 0.827087 0.436646 0.246659
H90   H     H_    0.595050 0.758245 0.381703 0.279535
H91   H     H_    0.707792 0.789195 0.430059 0.253596
H92   H     H_    0.596979 0.787833 0.222561 0.228486
H93   H     H_    0.629268 0.855459 0.275278 0.186276
H94   H     H_    0.471473 0.865331 0.248494 0.189296
H95   H     H_    0.443717 0.798541 0.213847 0.197043
H96   H     H_    0.494889 0.270649 0.693060 0.267289
H97   H     H_    0.400303 0.261767 0.708698 0.268209
H98   H     H_    0.062899 0.587994 0.332502 0.087576
H99   H     H_    0.488577 0.315330 0.784268 0.263489
H100  H     H_    0.521362 0.237185 0.911778 0.220795
H101  H     H_    0.613565 0.247537 0.894597 0.208126
H102  H     H_    0.534690 0.172908 0.744498 0.196444
H103  H     H_    0.448240 0.163352 0.769933 0.200898
H104  H     H_    0.407830 0.866808 0.576861 0.253649
H105  H     H_    0.378519 0.795010 0.569670 0.266853
H106  H     H_    0.290980 0.845792 0.532747 0.259414
H107  H     H_    0.356142 0.808186 0.718066 0.225444
H108  H     H_    0.386055 0.879216 0.728243 0.207962
I1    I     I_    0.691621 0.256989 0.710303 -0.562889
I2    I     I_    0.430009 0.633117 0.235468 -0.472651
I3    I     I_    0.126296 0.200520 0.101385 -0.449682
I4    I     I_    0.877899 0.803312 0.900567 -0.531213
I5    I     I_    0.191624 0.756988 0.710303 -0.562888
I6    I     I_    0.930009 0.133117 0.235467 -0.472651
I7    I     I_    0.626297 0.700520 0.101386 -0.449683
I8    I     I_    0.377900 0.303312 0.900569 -0.531213
N1    N     N_R   0.892620 0.603790 0.941800 -0.053651
N2    N     N_R   0.047790 0.602400 0.942090 -0.055642
N3    N     N_R   0.047790 0.397600 0.942090 -0.057726
N4    N     N_R   0.952210 0.602400 0.057910 -0.060949
N5    N     N_R   0.452210 0.897600 0.057910 -0.055312
N6    N     N_R   0.547790 0.102400 0.942090 -0.055642
N7    N     N_R   0.547790 0.897600 0.942090 -0.057726
N8    N     N_R   0.452210 0.102400 0.057910 -0.060949
N9    N     N_R   0.026300 0.529110 0.206760 -0.041825
N10   N     N_R   0.973700 0.470890 0.793240 -0.046220
N11   N     N_R   0.973700 0.529110 0.793240 -0.042422
N12   N     N_R   0.107380 0.396210 0.058200 -0.054081
N13   N     N_R   0.026300 0.470890 0.206760 -0.037762
N14   N     N_R   0.526300 0.029110 0.206760 -0.041825
N15   N     N_R   0.473700 0.970890 0.793240 -0.046220
N16   N     N_R   0.473700 0.029110 0.793240 -0.042422
N17   N     N_R   0.526300 0.970890 0.206760 -0.037762
N18   N     N_R   0.818530 0.472270 0.792960 -0.047420
N19   N     N_R   0.181470 0.527730 0.207040 -0.038032
N20   N     N_R   0.181470 0.472270 0.207040 -0.036435
N21   N     N_R   0.818530 0.527730 0.792960 -0.040945
N22   N     N_R   0.318530 0.972270 0.792960 -0.047420
N23   N     N_R   0.107380 0.603790 0.058200 -0.056160
N24   N     N_R   0.681470 0.027730 0.207040 -0.038032
N25   N     N_R   0.681470 0.972270 0.207040 -0.036435
N26   N     N_R   0.318530 0.027730 0.792960 -0.040945
N27   N     N_R   0.892620 0.396210 0.941800 -0.058858
N28   N     N_R   0.392620 0.103790 0.941800 -0.053651
N29   N     N_R   0.607380 0.896210 0.058200 -0.054080
N30   N     N_R   0.607380 0.103790 0.058200 -0.056160
N31   N     N_R   0.392620 0.896210 0.941800 -0.058858
N32   N     N_R   0.952210 0.397600 0.057910 -0.055313
Ni1   Ni    Ni4+2 0.934150 0.565840 0.869060 0.212264
Ni2   Ni    Ni4+2 0.065850 0.434160 0.130940 0.208514
Ni3   Ni    Ni4+2 0.065850 0.565840 0.130940 0.205061
Ni4   Ni    Ni4+2 0.934150 0.434160 0.869060 0.212633
Ni5   Ni    Ni4+2 0.434150 0.065840 0.869060 0.212264
Ni6   Ni    Ni4+2 0.565850 0.934160 0.130940 0.208514
Ni7   Ni    Ni4+2 0.565850 0.065840 0.130940 0.205061
Ni8   Ni    Ni4+2 0.434150 0.934160 0.869060 0.212633

loop_
_geom_bond_atom_site_label_1
_geom_bond_atom_site_label_2
_ccdc_geom_bond_type
C51   C97   S    
N18   N21   A    
C49   C99   S    
C25   H108  S    
N9    N13   A    
C21   H100  S    
N15   Ni8   S    
C117  H35   S    
C59   C99   A    
C32   C45   A    
C118  H36   S    
C58   H51   S    
C5    H61   S    
C23   C76   S    
C16   H83   S    
C67   C107  S    
C119  H37   S    
C91   H23   S    
C114  C115  S    
C43   H45   S    
C7    C8    S    
C2    C109  S    
C81   C101  A    
C2    C123  S    
C26   H106  S    
C94   H25   S    
C61   H53   S    
C35   I6    S    
C52   C102  S    
C47   C98   S    
C62   C67   A    
C6    H58   S    
C78   C105  A    
C64   C68   A    
C4    H63   S    
C39   C47   A    
C28   C29   S    
C116  C123  S    
C1    H1    S    
C38   C42   A    
C13   C112  S    
C16   H82   S    
N13   Ni2   S    
C7    C71   S    
C5    C6    S    
N7    N29   A    
C2    C113  S    
N25   Ni6   S    
N21   Ni1   S    
C53   C104  S    
C91   C111  A    
C15   C16   S    
C121  H39   S    
C80   C106  A    
N15   N16   A    
N24   Ni7   S    
C20   H102  S    
C93   H24   S    
C18   C19   S    
C11   H77   S    
C82   C105  A    
N1    Ni1   S    
N7    Ni8   S    
C61   C63   A    
C90   N21   A    
C121  C124  S    
C62   C64   A    
C88   N19   A    
C44   C53   A    
C29   H5    S    
C113  C122  S    
C86   C107  A    
C84   H15   S    
C26   H104  S    
N24   N25   A    
C115  C117  S    
C80   N11   A    
C46   C55   A    
C75   C102  A    
N2    N23   A    
N9    Ni3   S    
C82   N13   A    
C8    H70   S    
N5    Ni6   S    
C90   C109  A    
N10   Ni4   S    
C56   C58   A    
C87   H18   S    
C9    H68   S    
C10   H79   S    
C110  C114  S    
C88   H19   S    
C15   H84   S    
C17   H95   S    
C120  H38   S    
C42   C51   A    
C93   N24   A    
C88   C110  A    
C36   I7    S    
C77   N8    A    
C48   H32   S    
C60   C66   A    
N17   Ni6   S    
N26   Ni5   S    
C31   C47   A    
C124  H29   S    
C33   C46   A    
C72   N3    A    
C54   C100  S    
C36   C41   A    
C89   N20   A    
C5    H62   S    
C66   C106  S    
C68   C108  S    
C45   H47   S    
C87   N18   A    
C65   C105  S    
C4    C69   S    
C13   C119  S    
C2    C117  S    
C70   C100  A    
C56   H49   S    
C118  C120  S    
C72   C97   A    
C119  C121  S    
C26   H105  S    
C71   C98   A    
C63   C67   A    
N27   Ni4   S    
C115  C123  S    
C31   C44   A    
C14   H86   S    
C83   N14   A    
N18   Ni4   S    
C34   C39   A    
C14   C73   S    
N16   Ni5   S    
C3    C119  S    
C71   N2    A    
C16   H81   S    
C10   C11   S    
C103  H87   S    
C62   H55   S    
C13   C124  S    
C70   H54   S    
C57   C60   A    
N14   N17   A    
N6    N30   A    
C25   C26   S    
N28   Ni5   S    
C3    H30   S    
C63   H56   S    
C28   H9    S    
C20   C75   S    
C6    H60   S    
C28   H8    S    
C11   H78   S    
C103  N31   A    
N30   Ni7   S    
N6    Ni5   S    
C117  C122  S    
C32   C51   A    
C116  H34   S    
N4    Ni3   S    
C92   N30   A    
N14   Ni7   S    
C58   C65   A    
C31   I2    S    
C29   H6    S    
C38   C54   A    
C12   H73   S    
N22   Ni8   S    
C41   H42   S    
C15   H85   S    
C84   N15   A    
C81   N29   A    
C17   C18   S    
C8    C9    S    
C8    H69   S    
C95   H26   S    
C118  C124  S    
N19   Ni3   S    
C91   N22   A    
C85   H16   S    
C81   H65   S    
C40   H41   S    
C33   I4    S    
C1    N1    A    
C78   H98   S    
N8    N28   A    
C64   H57   S    
C69   C99   A    
N31   Ni8   S    
C30   C49   A    
C115  H33   S    
C45   C54   A    
N23   Ni3   S    
C37   H21   S    
C17   C74   S    
C60   H52   S    
C79   N10   A    
N20   Ni2   S    
C30   C43   A    
C42   H44   S    
C76   N7    A    
C24   C111  S    
C7    H71   S    
C9    H66   S    
C85   C108  A    
C37   N12   A    
C41   C50   A    
C27   C28   S    
C13   C120  S    
C59   H43   S    
C74   C104  A    
C76   C101  A    
C74   N5    A    
C94   N25   A    
C22   H96   S    
C123  H28   S    
C25   H107  S    
C85   N16   A    
N3    N12   A    
C48   N23   A    
N27   N32   A    
N5    N31   A    
C37   C97   A    
C27   H10   S    
C79   H2    S    
C18   H92   S    
C22   H97   S    
N11   Ni1   S    
N2    Ni1   S    
C3    C24   S    
C4    C5    S    
C27   C77   S    
N22   N26   A    
C46   H48   S    
C114  C116  S    
C11   C12   S    
C9    H67   S    
C70   N28   A    
C87   C109  A    
C92   C102  A    
C77   C100  A    
C82   H13   S    
C89   H20   S    
C21   H101  S    
C22   H99   S    
C55   C101  S    
C23   H3    S    
C24   C118  S    
C80   H12   S    
C59   N27   A    
C6    H59   S    
N1    N4    A    
C27   H11   S    
C122  H27   S    
C113  C116  S    
C35   C40   A    
C33   C50   A    
C20   H103  S    
C14   H88   S    
C90   H22   S    
C36   C55   A    
C95   C111  A    
C69   N32   A    
C35   C52   A    
C61   C68   A    
C50   C96   S    
C40   C49   A    
C29   H7    S    
C73   N4    A    
N12   Ni2   S    
C75   N6    A    
N8    Ni7   S    
C1    C96   A    
C56   C66   A    
C4    H64   S    
C89   C110  A    
C94   C112  A    
C24   C121  S    
C84   C108  A    
C12   H75   S    
C83   C107  A    
N29   Ni6   S    
C86   N17   A    
C19   H91   S    
C48   C98   A    
C23   C25   S    
C30   I1    S    
C43   C52   A    
C44   H46   S    
N10   N11   A    
C19   H90   S    
C3    C120  S    
C93   C112  A    
C38   I8    S    
C57   H50   S    
C114  C122  S    
C20   C21   S    
C79   C106  A    
C34   C53   A    
N32   Ni2   S    
C7    H72   S    
C92   H76   S    
C103  C104  A    
C78   N9    A    
C12   H74   S    
C14   C15   S    
C113  H31   S    
C34   I5    S    
C95   N26   A    
C19   H89   S    
C39   H40   S    
C21   C22   S    
C18   H93   S    
C10   H80   S    
N3    Ni4   S    
C83   H14   S    
C17   H94   S    
N19   N20   A    
C86   H17   S    
C10   C72   S    
C23   H4    S    
C57   C65   A    
C32   I3    S    
C73   C96   A    
