data_mof_unit_64536.cif
_audit_creation_date              2012-12-10T16:52:01-0500
_audit_creation_method            fapswitch 2.2
_symmetry_space_group_name_H-M    P1
_symmetry_Int_Tables_number       1
_space_group_crystal_system       triclinic
_cell_length_a                    18.383488
_cell_length_b                    18.350057
_cell_length_c                    18.413631
_cell_angle_alpha                 90.836425
_cell_angle_beta                  119.61328
_cell_angle_gamma                 119.458345
_cell_volume                      4421.41656116

loop_
_atom_site_label
_atom_site_type_symbol
_atom_type_description
_atom_site_fract_x
_atom_site_fract_y
_atom_site_fract_z
_atom_type_partial_charge
C1    C     C_R   0.776971 0.638157 0.638555 0.511922
C2    C     C_2   0.112264 0.307693 0.303174 -0.090336
C3    C     C_2   0.450808 0.162115 0.719731 -0.120442
C4    C     C_R   0.222952 0.361544 0.361166 0.511494
C5    C     C_2   0.507952 0.195915 0.808424 -0.134689
C6    C     C_2   0.458637 0.217632 0.663673 0.212458
C7    C     C_2   0.497057 0.304709 0.693019 -0.060972
C8    C     C_2   0.056181 0.775864 0.718838 -0.157782
C9    C     C_2   0.112373 0.808997 0.807745 -0.093834
C10   C     C_2   0.943786 0.722171 0.662663 -0.155920
C11   C     C_2   0.887731 0.691005 0.695469 -0.092171
C12   C     C_3   0.593819 0.826956 0.801968 -0.139148
C13   C     C_2   0.440970 0.160976 0.224093 -0.153979
C14   C     C_2   0.491689 0.195491 0.187389 -0.088267
C15   C     C_2   0.436405 0.216540 0.275312 -0.146171
C16   C     C_R   0.499613 0.638545 0.361321 0.523705
C17   C     C_2   0.508077 0.304041 0.312961 -0.082337
C18   C     C_2   0.439994 0.777898 0.220606 -0.155619
C19   C     C_2   0.494941 0.799402 0.186995 -0.141937
C20   C     C_2   0.428948 0.712105 0.267005 0.246128
C21   C     C_2   0.502539 0.697567 0.309068 -0.054671
C22   C     C_R   0.500977 0.138785 0.861804 0.516644
C23   C     C_3   0.525744 0.792670 0.698914 -0.156032
C24   C     C_R   0.499700 0.860916 0.137940 0.516606
C25   C     C_R   0.777134 0.138639 0.138866 0.513448
C26   C     C_R   0.223119 0.861860 0.861626 0.509729
C27   C     C_R   0.498867 0.140957 0.139765 0.519293
C28   C     C_R   0.500585 0.361005 0.638197 0.539061
C29   C     C_R   0.500120 0.858365 0.858309 0.506341
C30   C     C_R   0.501121 0.358953 0.360349 0.517555
C31   C     C_R   0.500011 0.641729 0.641737 0.535234
C32   C     C_3   0.568805 0.732961 0.801695 -0.142260
C33   C     C_3   0.474990 0.707681 0.801748 -0.120031
C34   C     C_3   0.431584 0.767884 0.698144 -0.099969
C35   C     C_3   0.499819 0.800972 0.800755 0.019089
C36   C     C_3   0.254248 0.628641 0.190858 -0.100962
C37   C     C_3   0.242336 0.588927 0.656509 -0.110778
C38   C     C_3   0.408616 0.675415 0.699559 0.293413
C39   C     C_3   0.500649 0.699452 0.699360 0.080316
C40   C     C_2   0.943871 0.162459 0.219869 -0.155621
C41   C     C_2   0.887830 0.195491 0.196861 -0.092436
C42   C     C_2   0.056219 0.218638 0.278649 -0.153434
Cl1   Cl    Cl    0.414360 0.162116 0.556566 -0.563493
H1    H     H_    0.453885 0.673534 0.844284 0.109521
H2    H     H_    0.401026 0.090645 0.216013 0.167890
H3    H     H_    0.625464 0.718486 0.843349 0.137658
H4    H     H_    0.526623 0.264059 0.189597 0.105477
H5    H     H_    0.373653 0.184523 0.282551 0.174462
H6    H     H_    0.574858 0.336855 0.311554 0.106744
H7    H     H_    0.398817 0.807443 0.212047 0.165768
H8    H     H_    0.534082 0.768951 0.191525 0.103210
H9    H     H_    0.568999 0.730812 0.307268 0.058188
H10   H     H_    0.670544 0.890691 0.845396 0.129098
H11   H     H_    0.547120 0.826704 0.656454 0.129562
H12   H     H_    0.078314 0.343972 0.280019 0.109203
H13   H     H_    0.375109 0.782468 0.656264 0.131641
H14   H     H_    0.906524 0.091104 0.195855 0.159931
H15   H     H_    0.921794 0.265756 0.221310 0.109393
H16   H     H_    0.093562 0.184648 0.301371 0.166631
H17   H     H_    0.250854 0.586365 0.143596 0.106430
H18   H     H_    0.239330 0.676985 0.163343 0.116070
H19   H     H_    0.191913 0.583991 0.198008 0.148580
H20   H     H_    0.230538 0.641954 0.640076 0.117416
H21   H     H_    0.266286 0.592667 0.725741 0.107578
H22   H     H_    0.167636 0.523942 0.611518 0.149731
H23   H     H_    0.398601 0.090420 0.686386 0.190019
H24   H     H_    0.565175 0.266683 0.844200 0.105814
H25   H     H_    0.524229 0.336722 0.759301 0.061294
H26   H     H_    0.093436 0.789183 0.684953 0.157845
H27   H     H_    0.078483 0.799376 0.843918 0.107716
H28   H     H_    0.906406 0.707181 0.591457 0.159686
H29   H     H_    0.921728 0.702243 0.765593 0.107287
O1    O     O_3   0.500000 0.500000 0.500000 -0.463449
O2    O     O_R   0.270900 0.886160 0.946260 -0.542766
O3    O     O_R   0.560160 0.177420 0.117340 -0.540870
O4    O     O_R   0.729180 0.615300 0.675360 -0.541925
O5    O     O_R   0.440020 0.882760 0.822680 -0.547419
O6    O     O_R   0.439990 0.057240 0.117340 -0.542906
O7    O     O_R   0.560190 0.882760 0.942820 -0.540392
O8    O     O_R   0.729270 0.053840 0.113900 -0.539626
O9    O     O_R   0.270910 0.884750 0.824690 -0.542041
O10   O     O_R   0.560170 0.175430 0.946260 -0.537173
O11   O     O_R   0.440000 0.886160 0.115330 -0.542082
O12   O     O_R   0.439910 0.615300 0.386140 -0.478856
O13   O     O_R   0.270820 0.446200 0.386140 -0.530644
O14   O     O_R   0.560090 0.613880 0.384720 -0.557176
O15   O     O_R   0.439920 0.324620 0.553780 -0.469433
O16   O     O_R   0.560100 0.442800 0.382710 -0.545262
O17   O     O_R   0.560070 0.617290 0.677370 -0.554512
O18   O     O_R   0.439930 0.322630 0.382710 -0.526724
O19   O     O_R   0.439900 0.617290 0.557220 -0.513769
O20   O     O_3   0.348029 0.672531 0.275467 -0.521609
O21   O     O_3   0.312966 0.593170 0.642717 -0.550590
O22   O     O_R   0.560080 0.446200 0.675360 -0.551583
O23   O     O_R   0.729180 0.613880 0.553780 -0.540267
O24   O     O_R   0.270820 0.324620 0.384720 -0.538514
O25   O     O_3   0.500090 0.000040 0.000040 -0.445622
O26   O     O_R   0.440010 0.053840 0.824690 -0.537705
O27   O     O_R   0.560180 0.884750 0.113900 -0.537114
O28   O     O_R   0.729260 0.175430 0.115330 -0.539226
Zn1   Zn    Zn3+2 0.414150 0.543930 0.458110 0.985867
Zn2   Zn    Zn3+2 0.585850 0.541910 0.456060 0.934160
Zn3   Zn    Zn3+2 0.414160 0.370220 0.456060 0.987738
Zn4   Zn    Zn3+2 0.585840 0.543930 0.629770 0.941765
Zn5   Zn    Zn3+2 0.585940 0.956110 0.041940 0.939812
Zn6   Zn    Zn3+2 0.585930 0.129820 0.043980 0.947692
Zn7   Zn    Zn3+2 0.414240 0.958130 0.043980 0.936556
Zn8   Zn    Zn3+2 0.414250 0.956110 0.870280 0.936677

loop_
_geom_bond_atom_site_label_1
_geom_bond_atom_site_label_2
_ccdc_geom_bond_type
O4    Zn4   S    
C34   H13   S    
C16   C21   S    
C22   O26   A    
C25   O8    A    
C1    C11   S    
C5    H24   S    
C27   O6    A    
C20   O20   S    
C12   C23   S    
C8    H26   S    
C17   C30   S    
C22   O10   A    
C24   O11   A    
C41   H15   S    
C18   C19   D    
C2    H12   S    
C38   C39   S    
C36   H19   S    
C24   O27   A    
C16   O12   A    
O26   Zn8   S    
O7    Zn5   S    
C28   O22   A    
C34   C35   S    
C32   C39   S    
C33   C35   S    
C7    H25   S    
C4    O24   A    
O25   Zn8   S    
O1    Zn4   S    
C5    C22   S    
C31   C39   S    
C8    C9    D    
C31   O17   A    
C37   H22   S    
C14   C27   S    
C12   H10   S    
O23   Zn2   S    
C30   O18   A    
O25   Zn5   S    
C10   H28   S    
C3    C6    S    
O1    Zn1   S    
O2    Zn7   S    
O9    Zn8   S    
O22   Zn4   S    
C13   C14   D    
C12   C32   S    
C16   O14   A    
O12   Zn1   S    
C33   H1    S    
C15   H5    S    
O19   Zn1   S    
C27   O3    A    
C37   H20   S    
C9    C26   S    
O27   Zn5   S    
C9    H27   S    
C25   C41   S    
C11   H29   S    
C4    O13   A    
C3    C5    D    
O8    Zn5   S    
C7    C28   S    
O6    Zn7   S    
C2    C4    S    
C25   O28   A    
C29   O7    A    
C1    O23   A    
C23   C34   S    
C28   O15   A    
C37   O21   S    
C12   C35   S    
C6    C7    D    
O15   Zn3   S    
O25   Zn6   S    
C40   C41   D    
C26   O9    A    
C31   O19   A    
C6    Cl1   S    
C13   C15   S    
O17   Zn4   S    
C3    H23   S    
C17   H6    S    
C36   H18   S    
O14   Zn2   S    
C37   H21   S    
O13   Zn1   S    
C18   H7    S    
C23   H11   S    
C15   C17   D    
O1    Zn2   S    
C40   H14   S    
C34   C38   S    
C1    O4    A    
C32   H3    S    
O5    Zn8   S    
C36   H17   S    
C42   H16   S    
O16   Zn2   S    
C14   H4    S    
C29   C35   S    
O28   Zn6   S    
C33   C38   S    
C32   C33   S    
C19   C24   S    
C13   H2    S    
C36   O20   S    
C2    C42   D    
C23   C39   S    
C38   O21   S    
C40   C42   S    
C26   O2    A    
O11   Zn7   S    
C18   C20   S    
O10   Zn6   S    
O18   Zn3   S    
C10   C11   D    
O25   Zn7   S    
C19   H8    S    
O1    Zn3   S    
C29   O5    A    
C20   C21   D    
O3    Zn6   S    
C8    C10   S    
O24   Zn3   S    
C30   O16   A    
C21   H9    S    
