data_mof_unit_19806.cif
_audit_creation_date              2012-12-10T19:47:21-0500
_audit_creation_method            fapswitch 2.2
_symmetry_space_group_name_H-M    P1
_symmetry_Int_Tables_number       1
_space_group_crystal_system       triclinic
_cell_length_a                    15.002525
_cell_length_b                    14.137385
_cell_length_c                    10.960579
_cell_angle_alpha                 89.838928
_cell_angle_beta                  90.09855
_cell_angle_gamma                 89.701988
_cell_volume                      2324.65600683

loop_
_atom_site_label
_atom_site_type_symbol
_atom_type_description
_atom_site_fract_x
_atom_site_fract_y
_atom_site_fract_z
_atom_type_partial_charge
C1    C     C_R   0.327495 0.500064 0.500231 0.805269
C2    C     C_R   0.672157 0.499809 0.500490 0.872780
C3    C     C_R   0.231279 0.500307 0.503640 0.022118
C4    C     C_R   0.767661 0.499539 0.503810 -0.024068
C5    C     C_R   0.186303 0.418284 0.539189 -0.203472
C6    C     C_R   0.814694 0.424334 0.451638 -0.214049
C7    C     C_R   0.094424 0.418394 0.543222 -0.186802
C8    C     C_R   0.906669 0.424410 0.454698 -0.183227
C9    C     C_R   0.047426 0.500421 0.511236 0.116838
C10   C     C_R   0.951322 0.499385 0.510703 0.120126
C11   C     C_R   0.451652 0.104637 0.411240 -0.092010
C12   C     C_R   0.548293 0.103667 0.588527 -0.089518
C13   C     C_R   0.449436 0.205082 0.416271 0.560841
C14   C     C_R   0.550837 0.203942 0.583161 0.561187
C15   C     C_R   0.499776 0.052807 0.500091 -0.110785
C16   C     C_R   0.558468 0.895175 0.425109 -0.295897
C17   C     C_R   0.441254 0.895367 0.574948 -0.292171
C18   C     C_R   0.557465 0.795602 0.426394 0.013808
C19   C     C_R   0.442405 0.795786 0.573573 0.010625
C20   C     C_R   0.499827 0.946424 0.500054 0.191581
C21   C     C_R   0.495650 0.500285 0.260028 0.908972
C22   C     C_R   0.495813 0.500077 0.740126 0.852917
C23   C     C_R   0.322522 0.539034 0.124785 0.084922
C24   C     C_R   0.322468 0.537939 0.874656 0.081000
C25   C     C_R   0.245404 0.560327 0.061299 -0.158457
C26   C     C_R   0.245365 0.559724 0.937461 -0.156840
C27   C     C_R   0.406070 0.520357 0.935054 0.014852
C28   C     C_R   0.406004 0.520807 0.064799 0.005526
C29   C     C_R   0.487896 0.500741 0.127747 -0.133030
C30   C     C_R   0.488199 0.500243 0.872673 -0.147876
C31   C     C_R   0.566707 0.480975 0.064309 0.096626
C32   C     C_R   0.567206 0.481167 0.937738 0.056861
C33   C     C_R   0.092257 0.582897 0.477335 -0.190380
C34   C     C_R   0.904122 0.574200 0.563783 -0.180959
C35   C     C_R   0.184225 0.583066 0.474424 -0.172875
C36   C     C_R   0.812170 0.574512 0.559790 -0.203465
H1    H     H_    0.604663 0.931976 0.366134 0.140227
H2    H     H_    0.394994 0.932314 0.633937 0.139955
H3    H     H_    0.602789 0.756635 0.368367 0.132333
H4    H     H_    0.397092 0.756978 0.631506 0.122093
H5    H     H_    0.183662 0.574673 0.109287 0.155319
H6    H     H_    0.183575 0.573593 0.888971 0.156949
H7    H     H_    0.056126 0.646395 0.451342 0.129472
H8    H     H_    0.938393 0.631834 0.608476 0.129530
H9    H     H_    0.218339 0.647143 0.447490 0.150681
H10   H     H_    0.775901 0.632456 0.601487 0.150013
H11   H     H_    0.222033 0.354797 0.565780 0.143908
H12   H     H_    0.780456 0.366795 0.406738 0.144452
H13   H     H_    0.060024 0.354868 0.571683 0.128522
H14   H     H_    0.942952 0.367037 0.411780 0.129361
N1    N     N_R   0.500000 0.252470 0.500000 -0.208995
N2    N     N_R   0.500000 0.747550 0.500000 -0.094817
O1    O     O_R   0.369060 0.579480 0.500010 -0.654366
O2    O     O_R   0.630940 0.579480 0.499990 -0.627322
O3    O     O_R   0.369050 0.420520 0.500010 -0.614565
O4    O     O_R   0.630950 0.420520 0.499990 -0.604156
O5    O     O_R   0.500000 0.579490 0.316770 -0.640462
O6    O     O_R   0.500000 0.579490 0.683230 -0.634267
O7    O     O_R   0.499990 0.420540 0.316770 -0.558021
O8    O     O_R   0.500010 0.420540 0.683230 -0.571648
Zn1   Zn    Zn3+2 0.500000 0.606140 0.500000 0.929418
Zn2   Zn    Zn3+2 0.500000 0.393860 0.500000 1.008913
N3    N     N_3   0.647670 0.461646 0.130500 -0.461290
H15   H     H_    0.671055 0.394659 0.105497 0.206213
H16   H     H_    0.695312 0.511744 0.105346 0.195235
N4    N     N_3   0.650082 0.463032 0.876175 -0.477996
H17   H     H_    0.664789 0.520559 0.819645 0.177063
H18   H     H_    0.643045 0.402642 0.822484 0.236129
N5    N     N_3   0.310306 0.533094 0.251070 -0.486215
H19   H     H_    0.343854 0.590082 0.288902 0.221579
H20   H     H_    0.331898 0.466067 0.278016 0.204169
N6    N     N_3   0.310119 0.530916 0.748608 -0.474286
H21   H     H_    0.332107 0.463776 0.723018 0.191552
H22   H     H_    0.343295 0.587926 0.710049 0.218466
N7    N     N_3   0.405481 0.056828 0.315030 -0.434595
H23   H     H_    0.451748 0.016965 0.265553 0.202492
H24   H     H_    0.359397 0.010568 0.354088 0.186664
N8    N     N_3   0.595167 0.055082 0.684233 -0.430651
H25   H     H_    0.549248 0.015487 0.734287 0.201758
H26   H     H_    0.640998 0.008467 0.644659 0.186187
O9    O     O_3   0.400987 0.257124 0.331810 -0.560027
C37   C     C_3   0.308744 0.243223 0.350238 -0.249923
H27   H     H_    0.272513 0.307448 0.319041 0.178297
H28   H     H_    0.290680 0.231416 0.447720 0.119813
H29   H     H_    0.284592 0.183560 0.293852 0.175387
O10   O     O_3   0.601342 0.254477 0.665715 -0.567480
C38   C     C_3   0.692639 0.243897 0.636905 -0.264104
H30   H     H_    0.729672 0.304131 0.676679 0.176763
H31   H     H_    0.705674 0.244477 0.536779 0.135334
H32   H     H_    0.720239 0.178286 0.678289 0.169969

loop_
_geom_bond_atom_site_label_1
_geom_bond_atom_site_label_2
_ccdc_geom_bond_type
N4    H18   S    
C38   H30   S    
N3    H16   S    
C23   N5    S    
C24   C27   A    
N7    H23   S    
C4    C36   A    
O9    C37   S    
C18   N2    A    
C5    H11   S    
C26   H6    S    
C6    H12   S    
C28   C29   A    
C24   C26   A    
C21   O7    A    
N2    Zn1   S    
C22   O8    A    
N8    H26   S    
O3    Zn2   S    
C13   O9    S    
C17   C20   A    
O8    Zn2   S    
N5    H20   S    
C1    O1    A    
C17   C19   A    
C13   N1    A    
O1    Zn1   S    
C19   N2    A    
C31   C32   A    
C12   N8    S    
C36   H10   S    
C9    C10   S    
C16   H1    S    
O6    Zn1   S    
N4    H17   S    
C27   C30   A    
C9    C33   A    
N1    Zn2   S    
C11   C15   A    
C15   C20   S    
C33   H7    S    
C31   N3    S    
C34   H8    S    
C14   O10   S    
N6    H22   S    
C2    O2    A    
C25   H5    S    
C5    C7    A    
O10   C38   S    
C6    C8    A    
C25   C26   A    
C21   C29   S    
C1    C3    S    
C2    C4    S    
C18   H3    S    
C21   O5    A    
C14   N1    A    
C12   C15   A    
C3    C35   A    
C16   C20   A    
C10   C34   A    
C16   C18   A    
C23   C28   A    
N7    H24   S    
C7    H13   S    
C4    C6    A    
C12   C14   A    
C37   H28   S    
C38   H31   S    
O4    Zn2   S    
C35   H9    S    
C8    H14   S    
C24   N6    S    
C32   N4    S    
C7    C9    A    
O7    Zn2   S    
C22   C30   S    
N8    H25   S    
N6    H21   S    
C3    C5    A    
C22   O6    A    
O5    Zn1   S    
O2    Zn1   S    
C37   H29   S    
C1    O3    A    
C29   C31   A    
C11   N7    S    
C30   C32   A    
C11   C13   A    
C33   C35   A    
C34   C36   A    
C17   H2    S    
C23   C25   A    
N5    H19   S    
C19   H4    S    
N3    H15   S    
C8    C10   A    
C37   H27   S    
C38   H32   S    
C27   C28   A    
C2    O4    A    
