data_mof_unit_31540.cif
_audit_creation_date              2012-10-26T18:56:59-0400
_audit_creation_method            fapswitch 2.2
_symmetry_space_group_name_H-M    P1
_symmetry_Int_Tables_number       1
_space_group_crystal_system       triclinic
_cell_length_a                    23.51698
_cell_length_b                    15.833562
_cell_length_c                    14.645611
_cell_angle_alpha                 90.215402
_cell_angle_beta                  89.774972
_cell_angle_gamma                 88.96999
_cell_volume                      5452.44075289

loop_
_atom_site_label
_atom_site_type_symbol
_atom_type_description
_atom_site_fract_x
_atom_site_fract_y
_atom_site_fract_z
_atom_type_partial_charge
C1    C     C_R   0.499458 0.339549 0.499791 0.571733
C2    C     C_R   0.699813 0.555926 0.438594 0.177586
C3    C     C_R   0.241165 0.430993 0.446346 0.246430
C4    C     C_R   0.759495 0.564478 0.441586 0.253958
C5    C     C_R   0.209156 0.477650 0.511053 0.152766
C6    C     C_R   0.790903 0.521467 0.509211 0.154618
C7    C     C_3   0.547305 0.972389 0.542878 0.213293
C8    C     C_3   0.451757 0.027659 0.455940 0.222984
C9    C     C_3   0.546050 0.026333 0.455264 0.202991
C10   C     C_3   0.453026 0.973631 0.543549 0.204070
C11   C     C_1   0.499168 0.250017 0.499283 0.060041
C12   C     C_R   0.500652 0.660446 0.500119 0.576731
C13   C     C_1   0.500652 0.749989 0.500319 0.061523
C14   C     C_3   0.499777 0.028291 0.585937 0.200613
C15   C     C_3   0.499287 0.971696 0.412887 0.203133
C16   C     C_R   0.390598 0.500564 0.500404 0.641071
C17   C     C_R   0.609410 0.499522 0.500117 0.637617
C18   C     C_3   0.498717 0.082900 0.498464 -0.026642
C19   C     C_3   0.500409 0.917121 0.500368 -0.027524
C20   C     C_1   0.498989 0.174541 0.498836 0.107572
C21   C     C_1   0.500478 0.825472 0.500363 0.105545
C22   C     C_3   0.529210 0.567581 0.968795 0.204308
C23   C     C_R   0.236735 0.526204 0.578221 0.251409
C24   C     C_3   0.473443 0.431898 0.029478 0.199790
C25   C     C_3   0.475868 0.570656 0.031026 0.200355
C26   C     C_3   0.526789 0.428990 0.967482 0.212117
C27   C     C_3   0.555718 0.496078 0.027492 0.199585
C28   C     C_3   0.446998 0.503437 0.970971 0.203540
C29   C     C_3   0.502251 0.499037 0.091589 -0.037110
C30   C     C_3   0.500253 0.500320 0.907452 -0.033616
C31   C     C_1   0.501120 0.499452 0.194245 0.196049
C32   C     C_1   0.499993 0.500199 0.805491 0.277657
C33   C     C_R   0.883830 0.587883 0.512182 0.492345
C34   C     C_R   0.762651 0.477585 0.579354 0.252161
C35   C     C_R   0.116218 0.411240 0.517665 0.494711
C36   C     C_R   0.877827 0.438857 0.490986 0.456154
C37   C     C_R   0.122321 0.558583 0.486570 0.456674
C38   C     C_R   0.937088 0.429995 0.495650 -0.004689
C39   C     C_R   0.063049 0.567728 0.490880 -0.004519
C40   C     C_R   0.970148 0.502936 0.498827 -0.083294
C41   C     C_R   0.029968 0.495146 0.498945 -0.083454
C42   C     C_R   0.943496 0.583524 0.502475 0.044191
C43   C     C_R   0.056606 0.414956 0.507656 0.045307
C44   C     C_R   0.963740 0.350060 0.497893 -0.097044
C45   C     C_R   0.295359 0.543096 0.568175 0.174241
C46   C     C_R   0.036418 0.647653 0.488214 -0.096467
C47   C     C_R   0.022849 0.341877 0.508538 0.247931
C48   C     C_R   0.977284 0.656500 0.498704 0.246933
C49   C     C_3   0.433710 0.701213 0.001365 -0.006829
C50   C     C_3   0.394454 0.768798 0.042323 -0.374534
C51   C     C_3   0.570014 0.298912 0.995783 -0.010955
C52   C     C_3   0.607737 0.230494 0.952829 -0.363515
C53   C     C_3   0.583991 0.685443 0.996554 -0.012675
C54   C     C_3   0.596791 0.772489 0.958719 -0.363577
C55   C     C_3   0.420041 0.314708 0.993449 -0.009325
C56   C     C_R   0.704231 0.459887 0.569650 0.172249
C57   C     C_3   0.406539 0.226161 0.026359 -0.386412
C58   C     C_3   0.351625 0.518193 0.008816 -0.004677
C59   C     C_3   0.292706 0.493520 0.977191 -0.345255
C60   C     C_3   0.651328 0.483669 0.988729 0.006214
C61   C     C_3   0.710640 0.501003 0.024472 -0.377668
C62   C     C_3   0.036804 0.223632 0.594300 0.015378
C63   C     C_3   0.071254 0.141653 0.600410 -0.346281
C64   C     C_3   0.963106 0.779386 0.577589 0.014845
C65   C     C_3   0.928649 0.861583 0.579226 -0.342508
C66   C     C_3   0.328459 0.418546 0.292985 -0.008056
C67   C     C_R   0.327754 0.496864 0.502228 -0.067507
C68   C     C_3   0.358181 0.354002 0.231454 -0.331164
C69   C     C_3   0.668366 0.575339 0.292312 0.016664
C70   C     C_3   0.631498 0.633275 0.234018 -0.361821
C71   C     C_3   0.227327 0.294144 0.397681 0.043229
C72   C     C_3   0.181667 0.239653 0.355397 -0.349309
C73   C     C_3   0.775703 0.696491 0.380940 0.037225
C74   C     C_3   0.823329 0.745418 0.336047 -0.352196
C75   C     C_3   0.631133 0.004957 0.376677 0.035301
C76   C     C_3   0.661189 0.039936 0.293197 -0.383757
C77   C     C_3   0.367794 0.993733 0.622041 0.032218
C78   C     C_R   0.672269 0.503110 0.501612 -0.066358
C79   C     C_3   0.337252 0.957363 0.704350 -0.374777
C80   C     C_3   0.497258 0.988238 0.255254 0.033139
C81   C     C_3   0.525054 0.949326 0.170625 -0.399624
C82   C     C_3   0.501643 0.011645 0.743608 0.033122
C83   C     C_3   0.473251 0.050171 0.827949 -0.397550
C84   C     C_R   0.300678 0.441440 0.441316 0.176439
Cu1   Cu    Cu3+1 0.500010 0.500000 0.590220 1.156190
Cu2   Cu    Cu3+1 0.499990 0.500000 0.409780 1.056052
H1    H     H_    0.938726 0.293401 0.493841 0.172812
H2    H     H_    0.646334 0.258939 0.922789 0.190675
H3    H     H_    0.620881 0.183961 0.005581 0.094012
H4    H     H_    0.584156 0.197251 0.898279 0.175150
H5    H     H_    0.625158 0.654856 0.014116 0.152722
H6    H     H_    0.557955 0.693816 0.059748 0.156397
H7    H     H_    0.556799 0.806293 0.939919 0.150508
H8    H     H_    0.619177 0.810213 0.011103 0.090369
H9    H     H_    0.624351 0.766356 0.897196 0.198817
H10   H     H_    0.447816 0.308276 0.932009 0.176098
H11   H     H_    0.379579 0.346098 0.973195 0.170768
H12   H     H_    0.061466 0.703951 0.480555 0.173372
H13   H     H_    0.376163 0.229313 0.084464 0.164553
H14   H     H_    0.387099 0.189644 0.970001 0.103315
H15   H     H_    0.445957 0.192674 0.048541 0.153396
H16   H     H_    0.349376 0.585476 0.029656 0.169098
H17   H     H_    0.362720 0.479903 0.069705 0.143577
H18   H     H_    0.292948 0.426807 0.953639 0.158420
H19   H     H_    0.261911 0.500892 0.034477 0.100996
H20   H     H_    0.278947 0.535070 0.920352 0.232172
H21   H     H_    0.642176 0.528402 0.932055 0.193732
H22   H     H_    0.651660 0.418602 0.960612 0.195709
H23   H     H_    0.411197 0.670642 0.943676 0.186541
H24   H     H_    0.721462 0.456271 0.080269 0.162058
H25   H     H_    0.742261 0.492917 0.968465 0.167711
H26   H     H_    0.712710 0.566624 0.051065 0.136951
H27   H     H_    0.990972 0.208354 0.600960 0.126936
H28   H     H_    0.049407 0.265082 0.652284 0.164398
H29   H     H_    0.117368 0.154850 0.594783 0.187972
H30   H     H_    0.062982 0.110645 0.666914 0.100722
H31   H     H_    0.059073 0.098195 0.544376 0.158999
H32   H     H_    0.008917 0.795002 0.583106 0.125826
H33   H     H_    0.950302 0.741251 0.637922 0.165409
H34   H     H_    0.471560 0.733105 0.973959 0.170262
H35   H     H_    0.882553 0.848093 0.574670 0.193192
H36   H     H_    0.936728 0.896267 0.643795 0.102203
H37   H     H_    0.941003 0.901826 0.520712 0.159010
H38   H     H_    0.144084 0.665915 0.714762 0.355405
H39   H     H_    0.853855 0.348650 0.727720 0.356054
H40   H     H_    0.389445 0.722700 0.600481 0.370097
H41   H     H_    0.608866 0.283336 0.611109 0.373650
H42   H     H_    0.348782 0.480895 0.283887 0.156593
H43   H     H_    0.283378 0.423987 0.270850 0.166676
H44   H     H_    0.343589 0.289420 0.247573 0.181426
H45   H     H_    0.416354 0.802005 0.098705 0.171069
H46   H     H_    0.347703 0.367183 0.159270 0.106582
H47   H     H_    0.404928 0.356359 0.241320 0.213696
H48   H     H_    0.651268 0.510300 0.288903 0.170897
H49   H     H_    0.712117 0.574456 0.263266 0.164190
H50   H     H_    0.647107 0.698985 0.237624 0.136859
H51   H     H_    0.633473 0.611924 0.162425 0.137248
H52   H     H_    0.586685 0.632352 0.258088 0.190378
H53   H     H_    0.231357 0.277433 0.471282 0.185445
H54   H     H_    0.267875 0.277537 0.362745 0.191023
H55   H     H_    0.179073 0.251731 0.280864 0.148970
H56   H     H_    0.382418 0.815520 0.989108 0.106993
H57   H     H_    0.192309 0.171837 0.366363 0.113524
H58   H     H_    0.139654 0.254211 0.386964 0.226936
H59   H     H_    0.770626 0.719020 0.452780 0.192286
H60   H     H_    0.736225 0.712175 0.343092 0.169573
H61   H     H_    0.826824 0.727834 0.262727 0.148644
H62   H     H_    0.814138 0.814296 0.341532 0.104104
H63   H     H_    0.864494 0.731110 0.369819 0.229415
H64   H     H_    0.611737 0.943837 0.357031 0.168711
H65   H     H_    0.663690 0.993550 0.430041 0.218722
H66   H     H_    0.683764 0.098568 0.311666 0.186420
H67   H     H_    0.355288 0.739685 0.069469 0.166278
H68   H     H_    0.692626 0.992633 0.266741 0.098562
H69   H     H_    0.629839 0.054665 0.238799 0.147020
H70   H     H_    0.335609 0.005772 0.568249 0.220451
H71   H     H_    0.386998 0.054594 0.643067 0.171822
H72   H     H_    0.368241 0.942501 0.759249 0.148202
H73   H     H_    0.305275 0.003893 0.730726 0.106009
H74   H     H_    0.315258 0.898572 0.684587 0.206702
H75   H     H_    0.681440 0.974368 0.668371 0.368749
H76   H     H_    0.316983 0.027423 0.331910 0.359348
H77   H     H_    0.518603 0.048963 0.270330 0.172452
H78   H     H_    0.532602 0.267946 0.026040 0.169206
H79   H     H_    0.451844 0.000891 0.239271 0.212818
H80   H     H_    0.502935 0.890624 0.151001 0.163884
H81   H     H_    0.522530 0.994639 0.113016 0.091353
H82   H     H_    0.570421 0.933644 0.184300 0.148804
H83   H     H_    0.547030 0.999468 0.760171 0.212072
H84   H     H_    0.480668 0.950689 0.728209 0.172800
H85   H     H_    0.427834 0.065109 0.813811 0.151686
H86   H     H_    0.475859 0.004910 0.885603 0.091255
H87   H     H_    0.494888 0.109223 0.847806 0.164725
H88   H     H_    0.594256 0.329465 0.051554 0.167504
N1    N     N_R   0.852155 0.516577 0.502867 -0.349111
N2    N     N_R   0.147946 0.481859 0.503843 -0.348009
N3    N     N_1   0.499980 0.500000 0.274190 -0.208658
N4    N     N_1   0.500020 0.500000 0.725810 -0.155711
O1    O     O_R   0.500010 0.379080 0.576170 -0.489488
O2    O     O_2   0.142042 0.338958 0.544408 -0.468591
O3    O     O_2   0.845923 0.370108 0.476405 -0.453662
O4    O     O_2   0.154284 0.626207 0.467097 -0.451925
O5    O     O_3   0.449443 0.643105 0.070186 -0.575508
O6    O     O_3   0.553141 0.356864 0.927525 -0.555659
O7    O     O_3   0.556275 0.637588 0.929070 -0.560667
O8    O     O_3   0.445812 0.360484 0.064854 -0.592437
O9    O     O_3   0.390958 0.506398 0.936432 -0.545157
O10   O     O_3   0.611812 0.491704 0.061412 -0.605812
O11   O     O_3   0.047931 0.262167 0.509441 -0.540521
O12   O     O_R   0.499990 0.620920 0.423830 -0.493653
O13   O     O_3   0.952262 0.736170 0.495123 -0.541460
O14   O     O_2   0.150622 0.497625 0.696158 -0.296549
O15   O     O_2   0.235644 0.561029 0.759153 -0.241608
O16   O     O_3   0.168523 0.655210 0.660565 -0.455273
O17   O     O_2   0.846848 0.515226 0.696693 -0.292919
O18   O     O_2   0.761240 0.455247 0.762515 -0.239230
O19   O     O_3   0.830263 0.355365 0.672257 -0.454105
O20   O     O_2   0.283495 0.694489 0.655673 -0.200268
O21   O     O_2   0.354968 0.594143 0.714152 -0.236773
O22   O     O_3   0.376103 0.674322 0.563742 -0.535832
O23   O     O_R   0.500000 0.379080 0.423800 -0.488879
O24   O     O_2   0.716216 0.312809 0.663757 -0.182579
O25   O     O_2   0.643974 0.414895 0.717780 -0.246270
O26   O     O_3   0.623995 0.327916 0.570935 -0.534213
O27   O     O_3   0.333752 0.390892 0.384118 -0.543364
O28   O     O_3   0.667158 0.607070 0.382380 -0.555358
O29   O     O_3   0.212745 0.380442 0.384364 -0.553483
O30   O     O_3   0.788601 0.608858 0.374984 -0.552551
O31   O     O_3   0.591165 0.065545 0.408851 -0.541284
O32   O     O_3   0.408092 0.933769 0.589719 -0.549638
O33   O     O_2   0.588990 0.873326 0.677140 -0.317424
O34   O     O_R   0.500000 0.620920 0.576200 -0.479476
O35   O     O_2   0.640533 0.870994 0.532114 -0.315327
O36   O     O_3   0.649935 0.003855 0.636205 -0.495854
O37   O     O_2   0.358763 0.129541 0.467231 -0.326423
O38   O     O_2   0.410339 0.127741 0.322243 -0.334583
O39   O     O_3   0.348997 0.997411 0.362232 -0.501040
O40   O     O_3   0.500961 0.929895 0.327494 -0.547503
O41   O     O_3   0.498061 0.070029 0.671376 -0.549137
O42   O     O_R   0.417890 0.499980 0.576200 -0.454460
O43   O     O_R   0.582110 0.500020 0.423800 -0.489072
O44   O     O_R   0.417870 0.499970 0.423830 -0.478529
O45   O     O_R   0.582130 0.500030 0.576170 -0.445580
O46   O     O_2   0.857858 0.661698 0.534166 -0.463965
S1    S     S_3+6 0.197451 0.558623 0.677296 0.081489
S2    S     S_3+6 0.800591 0.452475 0.681404 0.083568
S3    S     S_3+6 0.326995 0.628035 0.629406 0.085370
S4    S     S_3+6 0.672545 0.377528 0.634572 0.092902
S5    S     S_3+6 0.608027 0.926435 0.598285 -0.010160
S6    S     S_3+6 0.391146 0.074285 0.400725 -0.024046

loop_
_geom_bond_atom_site_label_1
_geom_bond_atom_site_label_2
_ccdc_geom_bond_type
C72   H57   S    
C66   C68   S    
H75   O36   S    
C82   H84   S    
C34   C56   A    
C69   H48   S    
C23   C45   A    
C27   C29   S    
O37   S6    D    
C73   C74   S    
C14   C18   S    
C16   O44   A    
C1    C11   S    
C59   H18   S    
C1    O23   A    
C79   H72   S    
C56   C78   A    
C39   C41   A    
Cu1   Cu2   S    
C25   C28   S    
C15   C19   S    
C26   C27   S    
C59   H19   S    
C64   H33   S    
C31   N3    T    
C17   O45   A    
C33   C42   A    
O16   S1    S    
C74   H62   S    
C68   H47   S    
C34   S2    S    
Cu1   O42   S    
C24   C26   S    
C62   H28   S    
C77   H70   S    
C79   H73   S    
C63   H31   S    
C49   H34   S    
C6    N1    S    
C76   H66   S    
C75   H64   S    
C57   H13   S    
C64   H32   S    
C24   O8    S    
C45   S3    S    
C55   O8    S    
C76   H68   S    
C68   H46   S    
C53   O7    S    
C24   C29   S    
C54   H7    S    
C49   O5    S    
C8    S6    S    
C84   O27   S    
C10   O32   S    
C7    C14   S    
C82   O41   S    
C75   H65   S    
Cu1   N4    S    
C48   O13   S    
C22   C25   S    
C83   H85   S    
C53   H5    S    
O38   S6    D    
C81   H80   S    
C74   H63   S    
C2    O28   S    
Cu2   O43   S    
C65   H35   S    
O26   S4    S    
C44   H1    S    
C35   C43   A    
H41   O26   S    
C60   H22   S    
C44   C47   A    
C27   O10   S    
C66   H43   S    
C63   H29   S    
O19   S2    S    
C71   O29   S    
C46   H12   S    
C82   H83   S    
H39   O19   S    
C67   C84   A    
C69   H49   S    
C38   C40   A    
C70   H50   S    
C41   C43   A    
C32   N4    T    
C52   H3    S    
C61   H24   S    
O25   S4    D    
C23   S1    S    
C4    O30   S    
C62   O11   S    
O18   S2    D    
C77   C79   S    
C25   C29   S    
C72   H55   S    
C46   C48   A    
C11   C20   T    
Cu2   O12   S    
C59   H20   S    
C54   H8    S    
C56   S4    S    
C51   C52   S    
C74   H61   S    
C52   H2    S    
C12   O34   A    
C62   H27   S    
C4    C6    A    
C51   O6    S    
C10   C14   S    
C28   O9    S    
C9    O31   S    
C79   H74   S    
C66   O27   S    
C55   H10   S    
O24   S4    D    
C58   C59   S    
C53   C54   S    
C57   H14   S    
C82   C83   S    
Cu2   N3    S    
C8    C18   S    
C6    C34   A    
C73   H59   S    
C60   C61   S    
O22   S3    S    
C47   O11   S    
C51   H88   S    
C2    C4    A    
C75   C76   S    
C80   H77   S    
C38   C44   A    
C62   C63   S    
C2    C78   A    
O39   S6    S    
Cu1   O45   S    
C5    C23   A    
C10   C19   S    
Cu1   O1    S    
C83   H86   S    
C55   H11   S    
C53   H6    S    
C50   H67   S    
C69   O28   S    
C13   C21   T    
C51   H78   S    
C16   C67   S    
C42   C48   A    
C65   H36   S    
C15   O40   S    
C68   H44   S    
C81   H81   S    
Cu2   O23   S    
C54   H9    S    
C71   H54   S    
C60   H21   S    
C25   O5    S    
C77   O32   S    
C70   H51   S    
C39   C46   A    
C58   H16   S    
C63   H30   S    
C8    C10   S    
C40   C41   A    
C73   O30   S    
C70   H52   S    
C8    C15   S    
C7    C19   S    
C22   C27   S    
C83   H87   S    
C5    N2    S    
C14   O41   S    
C35   N2    A    
C61   H25   S    
Cu1   O34   S    
C80   H79   S    
C64   O13   S    
O35   S5    D    
O20   S3    D    
C49   H23   S    
C7    S5    S    
H40   O22   S    
C35   O2    S    
C72   H58   S    
C52   H4    S    
C75   O31   S    
O33   S5    D    
O17   S2    D    
C19   C21   S    
C58   O9    S    
C24   C28   S    
C80   C81   S    
C3    C5    A    
C71   H53   S    
C26   C30   S    
C45   C67   A    
C58   H17   S    
C80   O40   S    
C55   C57   S    
C57   H15   S    
C76   H69   S    
C73   H60   S    
C3    O29   S    
C64   C65   S    
C22   O7    S    
C36   C38   A    
C9    C15   S    
O15   S1    D    
C28   C30   S    
C29   C31   S    
C22   C30   S    
C37   N2    A    
C30   C32   S    
C1    O1    A    
C43   C47   A    
C37   O4    S    
C40   C42   A    
C17   C78   S    
C81   H82   S    
C66   H42   S    
C16   O42   A    
C18   C20   S    
C12   O12   A    
C65   H37   S    
C69   C70   S    
C33   N1    A    
H76   O39   S    
C17   O43   A    
C50   H45   S    
C33   O46   S    
C7    C9    S    
C9    C18   S    
C71   C72   S    
C12   C13   S    
C36   N1    A    
C37   C39   A    
C49   C50   S    
H38   O16   S    
C3    C84   A    
O14   S1    D    
C36   O3    S    
Cu2   O44   S    
O36   S5    S    
C61   H26   S    
O21   S3    D    
C60   O10   S    
C50   H56   S    
C77   H71   S    
C26   O6    S    
