data_mof_unit_66272.cif
_audit_creation_date              2012-12-10T18:15:15-0500
_audit_creation_method            fapswitch 2.2
_symmetry_space_group_name_H-M    P1
_symmetry_Int_Tables_number       1
_space_group_crystal_system       triclinic
_cell_length_a                    18.354873
_cell_length_b                    18.354857
_cell_length_c                    39.662
_cell_angle_alpha                 90.000028
_cell_angle_beta                  90.000029
_cell_angle_gamma                 90.011998
_cell_volume                      13362.1699124

loop_
_atom_site_label
_atom_site_type_symbol
_atom_type_description
_atom_site_fract_x
_atom_site_fract_y
_atom_site_fract_z
_atom_type_partial_charge
C1    C     C_R   0.952926 0.453807 0.431286 -0.180205
C2    C     C_R   0.546827 0.046446 0.068725 -0.180129
C3    C     C_R   0.308683 0.744743 0.727653 -0.149255
C4    C     C_R   0.256503 0.309921 0.271559 -0.170789
C5    C     C_R   0.743497 0.690079 0.728441 -0.170758
C6    C     C_R   0.308680 0.744746 0.272349 -0.149287
C7    C     C_R   0.691317 0.255257 0.727653 -0.149254
C8    C     C_R   0.196300 0.696300 0.250000 -0.012833
C9    C     C_R   0.803700 0.303700 0.750000 -0.012719
C10   C     C_R   0.303697 0.196303 0.250000 0.000751
C11   C     C_R   0.696303 0.803697 0.750000 0.000755
C12   C     C_R   0.803700 0.303700 0.250000 -0.012833
C13   C     C_R   0.953552 0.453183 0.931269 -0.180121
C14   C     C_R   0.196300 0.696300 0.750000 -0.012719
C15   C     C_R   0.696303 0.803697 0.250000 0.000751
C16   C     C_R   0.303697 0.196303 0.750000 0.000755
C17   C     C_R   0.196303 0.303697 0.750000 0.000763
C18   C     C_R   0.803697 0.696303 0.250000 0.000729
C19   C     C_R   0.303700 0.803700 0.750000 -0.012747
C20   C     C_R   0.696300 0.196300 0.250000 -0.012747
C21   C     C_R   0.803697 0.696303 0.750000 0.000762
C22   C     C_R   0.196303 0.303697 0.250000 0.000729
C23   C     C_R   0.696300 0.196300 0.750000 -0.012748
C24   C     C_R   0.045774 0.547498 0.068700 -0.180364
C25   C     C_R   0.303700 0.803700 0.250000 -0.012747
C26   C     C_R   1.000000 0.500000 0.378081 -0.204483
C27   C     C_R   1.000000 0.500000 0.621926 -0.204206
C28   C     C_R   0.500000 0.000000 0.378075 -0.204216
C29   C     C_R   0.500000 1.000000 0.621923 -0.204317
C30   C     C_R   0.500000 1.000000 0.878081 -0.204475
C31   C     C_R   0.500000 0.000000 0.121926 -0.204234
C32   C     C_R   1.000000 0.500000 0.878071 -0.204198
C33   C     C_R   1.000000 0.500000 0.121909 -0.204901
C34   C     C_R   0.547054 0.046224 0.931285 -0.180209
C35   C     C_R   0.453173 0.953554 0.068725 -0.180129
C36   C     C_R   0.046448 0.546817 0.931270 -0.180121
C37   C     C_R   0.954225 0.452502 0.068700 -0.180364
C38   C     C_R   0.952548 0.453411 0.396090 0.342701
C39   C     C_R   0.047194 0.546840 0.603922 0.342530
C40   C     C_R   0.453168 0.952799 0.396080 0.342537
C41   C     C_R   0.046813 0.546453 0.568725 -0.180114
C42   C     C_R   0.546775 0.047269 0.603917 0.342585
C43   C     C_R   0.047452 0.546589 0.396090 0.342701
C44   C     C_R   0.952806 0.453160 0.603922 0.342530
C45   C     C_R   0.546832 0.047201 0.396081 0.342537
C46   C     C_R   0.453225 0.952731 0.603917 0.342585
C47   C     C_R   0.452568 0.953383 0.896089 0.342688
C48   C     C_R   0.547209 0.046831 0.103921 0.342539
C49   C     C_R   0.953164 0.452802 0.896074 0.342526
C50   C     C_R   0.046182 0.547870 0.103895 0.342976
C51   C     C_R   0.547432 0.046617 0.896089 0.342688
C52   C     C_R   0.453555 0.953179 0.431277 -0.180116
C53   C     C_R   0.452791 0.953169 0.103921 0.342539
C54   C     C_R   0.046836 0.547198 0.896074 0.342526
C55   C     C_R   0.953818 0.452130 0.103895 0.342975
C56   C     C_R   1.000000 0.500000 0.448794 -0.003726
C57   C     C_R   1.000000 0.500000 0.551217 -0.003759
C58   C     C_R   0.500000 0.000000 0.448786 -0.003756
C59   C     C_R   0.500000 0.000000 0.551211 -0.003718
C60   C     C_R   0.500000 1.000000 0.948793 -0.003698
C61   C     C_R   0.500000 1.000000 0.051216 -0.003736
C62   C     C_R   1.000000 0.500000 0.948777 -0.003766
C63   C     C_R   0.546388 0.046888 0.568720 -0.180145
C64   C     C_R   1.000000 0.500000 0.051193 -0.003664
C65   C     C_1   1.000000 0.500000 0.484871 0.021393
C66   C     C_1   1.000000 0.500000 0.515140 0.021370
C67   C     C_1   0.500000 0.000000 0.484864 0.021372
C68   C     C_1   0.500000 0.000000 0.515133 0.021382
C69   C     C_1   0.500000 1.000000 0.984870 0.021382
C70   C     C_1   0.500000 1.000000 0.015139 0.021359
C71   C     C_1   1.000000 0.500000 0.984851 0.021346
C72   C     C_1   1.000000 0.500000 0.015119 0.021410
C73   C     C_R   0.500000 0.000000 0.340979 0.909682
C74   C     C_R   0.047074 0.546194 0.431286 -0.180206
C75   C     C_R   0.500000 1.000000 0.659021 0.909567
C76   C     C_R   0.000000 0.500000 0.340981 0.909276
C77   C     C_R   1.000000 0.500000 0.659022 0.909699
C78   C     C_R   1.000000 0.500000 0.840977 0.909691
C79   C     C_R   1.000000 0.500000 0.159016 0.908476
C80   C     C_R   0.500000 1.000000 0.840980 0.909258
C81   C     C_R   0.500000 0.000000 0.159022 0.909635
C82   C     C_R   0.359800 0.140200 0.250000 0.793321
C83   C     C_R   0.640200 0.859800 0.750000 0.793278
C84   C     C_R   0.859803 0.359803 0.250000 0.819469
C85   C     C_R   0.953187 0.453547 0.568725 -0.180114
C86   C     C_R   0.140197 0.640197 0.750000 0.819784
C87   C     C_R   0.640200 0.859800 0.250000 0.793321
C88   C     C_R   0.359800 0.140200 0.750000 0.793278
C89   C     C_R   0.140197 0.640197 0.250000 0.819468
C90   C     C_R   0.859803 0.359803 0.750000 0.819784
C91   C     C_R   0.359803 0.859803 0.750000 0.819684
C92   C     C_R   0.640197 0.140197 0.250000 0.819765
C93   C     C_R   0.859800 0.640200 0.750000 0.793337
C94   C     C_R   0.140200 0.359800 0.250000 0.793146
C95   C     C_R   0.640197 0.140197 0.750000 0.819684
C96   C     C_R   0.546445 0.046820 0.431277 -0.180117
C97   C     C_R   0.359803 0.859803 0.250000 0.819765
C98   C     C_R   0.140200 0.359800 0.750000 0.793337
C99   C     C_R   0.859800 0.640200 0.250000 0.793146
C100  C     C_R   0.244746 0.808680 0.227651 -0.149264
C101  C     C_R   0.755257 0.191317 0.772347 -0.149245
C102  C     C_R   0.190079 0.243497 0.228441 -0.170754
C103  C     C_R   0.809920 0.756503 0.771559 -0.170750
C104  C     C_R   0.755254 0.191320 0.227651 -0.149264
C105  C     C_R   0.244743 0.808683 0.772347 -0.149245
C106  C     C_R   0.809921 0.756503 0.228441 -0.170754
C107  C     C_R   0.453612 0.953111 0.568720 -0.180145
C108  C     C_R   0.190080 0.243497 0.771559 -0.170751
C109  C     C_R   0.243498 0.190080 0.771559 -0.170747
C110  C     C_R   0.756503 0.809921 0.228441 -0.170763
C111  C     C_R   0.191317 0.755257 0.772347 -0.149247
C112  C     C_R   0.808680 0.244746 0.227651 -0.149262
C113  C     C_R   0.756502 0.809920 0.771559 -0.170747
C114  C     C_R   0.243497 0.190079 0.228441 -0.170763
C115  C     C_R   0.808683 0.244743 0.772347 -0.149247
C116  C     C_R   0.191320 0.755254 0.227651 -0.149262
C117  C     C_R   0.744743 0.308683 0.727653 -0.149257
C118  C     C_R   0.452946 0.953776 0.931285 -0.180210
C119  C     C_R   0.255254 0.691320 0.272349 -0.149283
C120  C     C_R   0.690079 0.743497 0.728441 -0.170761
C121  C     C_R   0.309920 0.256503 0.271559 -0.170782
C122  C     C_R   0.255257 0.691317 0.727653 -0.149257
C123  C     C_R   0.744746 0.308680 0.272349 -0.149282
C124  C     C_R   0.309920 0.256503 0.728441 -0.170761
C125  C     C_R   0.690079 0.743497 0.271559 -0.170782
C126  C     C_R   0.743497 0.690079 0.271559 -0.170789
C127  C     C_R   0.256503 0.309920 0.728441 -0.170758
C128  C     C_R   0.691320 0.255254 0.272349 -0.149288
Cl1   Cl    Cl    0.894053 0.391240 0.375684 -0.569748
Cl2   Cl    Cl    0.605390 0.109270 0.124340 -0.569991
Cl3   Cl    Cl    0.890716 0.394640 0.875655 -0.569984
Cl4   Cl    Cl    0.107896 0.606909 0.124278 -0.569442
Cl5   Cl    Cl    0.605900 0.108819 0.875681 -0.569778
Cl6   Cl    Cl    0.394610 0.890730 0.124340 -0.569991
Cl7   Cl    Cl    0.109284 0.605360 0.875655 -0.569984
Cl8   Cl    Cl    0.892104 0.393091 0.124278 -0.569442
Cl9   Cl    Cl    0.105352 0.609291 0.624341 -0.569969
Cl10  Cl    Cl    0.390725 0.894630 0.375661 -0.569970
Cl11  Cl    Cl    0.609149 0.105529 0.624333 -0.569893
Cl12  Cl    Cl    0.105947 0.608760 0.375684 -0.569748
Cl13  Cl    Cl    0.894647 0.390709 0.624341 -0.569969
Cl14  Cl    Cl    0.609275 0.105370 0.375662 -0.569970
Cl15  Cl    Cl    0.390851 0.894471 0.624332 -0.569893
Cl16  Cl    Cl    0.394100 0.891180 0.875681 -0.569778
H1    H     H_    0.916748 0.417714 0.444997 0.189942
H2    H     H_    0.582809 0.082734 0.055015 0.189935
H3    H     H_    0.917265 0.417208 0.944980 0.189938
H4    H     H_    0.081541 0.584009 0.054987 0.189948
H5    H     H_    0.583216 0.082339 0.944996 0.189938
H6    H     H_    0.417191 0.917266 0.055015 0.189935
H7    H     H_    0.082734 0.582792 0.944980 0.189938
H8    H     H_    0.918458 0.415990 0.054987 0.189948
H9    H     H_    0.239884 0.853714 0.210147 0.183882
H10   H     H_    0.760122 0.146280 0.789850 0.183899
H11   H     H_    0.144029 0.237603 0.211582 0.172899
H12   H     H_    0.082785 0.582744 0.555016 0.189939
H13   H     H_    0.855971 0.762397 0.788418 0.172810
H14   H     H_    0.760116 0.146286 0.210147 0.183882
H15   H     H_    0.239878 0.853720 0.789850 0.183899
H16   H     H_    0.855971 0.762397 0.211582 0.172899
H17   H     H_    0.144029 0.237603 0.788418 0.172810
H18   H     H_    0.237603 0.144029 0.788418 0.172833
H19   H     H_    0.762397 0.855971 0.211582 0.172833
H20   H     H_    0.146280 0.760122 0.789850 0.183839
H21   H     H_    0.853714 0.239884 0.210146 0.184055
H22   H     H_    0.762397 0.855971 0.788418 0.172833
H23   H     H_    0.417269 0.917201 0.444987 0.189939
H24   H     H_    0.237603 0.144029 0.211582 0.172833
H25   H     H_    0.853720 0.239878 0.789850 0.183839
H26   H     H_    0.146286 0.760116 0.210146 0.184055
H27   H     H_    0.739878 0.353720 0.710150 0.183823
H28   H     H_    0.260116 0.646286 0.289853 0.183914
H29   H     H_    0.644029 0.737603 0.711582 0.172808
H30   H     H_    0.355971 0.262397 0.288417 0.172808
H31   H     H_    0.260122 0.646280 0.710150 0.183823
H32   H     H_    0.739884 0.353714 0.289853 0.183914
H33   H     H_    0.355971 0.262397 0.711582 0.172808
H34   H     H_    0.582630 0.082920 0.555010 0.189937
H35   H     H_    0.644029 0.737603 0.288417 0.172808
H36   H     H_    0.737603 0.644029 0.288417 0.172836
H37   H     H_    0.262397 0.355971 0.711582 0.172800
H38   H     H_    0.646286 0.260116 0.289853 0.183842
H39   H     H_    0.353720 0.739878 0.710150 0.183844
H40   H     H_    0.262397 0.355971 0.288417 0.172836
H41   H     H_    0.737603 0.644029 0.711582 0.172800
H42   H     H_    0.353714 0.739884 0.289853 0.183843
H43   H     H_    0.646280 0.260122 0.710150 0.183844
H44   H     H_    0.083251 0.582286 0.444997 0.189943
H45   H     H_    0.917214 0.417256 0.555016 0.189939
H46   H     H_    0.582731 0.082799 0.444987 0.189939
H47   H     H_    0.417370 0.917080 0.555010 0.189937
H48   H     H_    0.416784 0.917660 0.944996 0.189938
O1    O     O_3   0.500000 0.000000 0.250000 -0.511165
O2    O     O_R   0.500000 0.939240 0.675070 -0.601483
O3    O     O_R   0.939240 0.500000 0.324930 -0.601350
O4    O     O_R   0.060760 0.500000 0.675070 -0.601534
O5    O     O_R   0.000000 0.439240 0.824930 -0.601536
O6    O     O_R   0.000000 0.560760 0.175070 -0.601116
O7    O     O_R   0.560760 0.000000 0.824930 -0.601393
O8    O     O_R   0.439240 0.000000 0.175070 -0.601524
O9    O     O_R   1.000000 0.560760 0.824930 -0.601536
O10   O     O_R   0.000000 0.439240 0.175070 -0.601117
O11   O     O_R   0.439240 0.000000 0.824930 -0.601392
O12   O     O_3   0.500000 0.000000 0.750000 -0.511187
O13   O     O_R   0.560760 0.000000 0.175070 -0.601524
O14   O     O_R   0.414510 0.146130 0.269710 -0.646260
O15   O     O_R   0.585490 0.853870 0.730290 -0.646256
O16   O     O_R   0.853870 0.414510 0.269710 -0.632448
O17   O     O_R   0.146130 0.585490 0.730290 -0.632483
O18   O     O_R   0.585490 0.853870 0.269710 -0.646260
O19   O     O_R   0.414510 0.146130 0.730290 -0.646256
O20   O     O_R   0.146130 0.585490 0.269710 -0.632448
O21   O     O_R   0.853870 0.414510 0.730290 -0.632484
O22   O     O_R   0.414510 0.853870 0.730290 -0.632475
O23   O     O_3   0.000000 0.500000 0.250000 -0.511237
O24   O     O_R   0.585490 0.146130 0.269710 -0.632485
O25   O     O_R   0.853870 0.585490 0.730290 -0.646258
O26   O     O_R   0.146130 0.414510 0.269710 -0.646246
O27   O     O_R   0.585490 0.146130 0.730290 -0.632475
O28   O     O_R   0.414510 0.853870 0.269710 -0.632485
O29   O     O_R   0.146130 0.414510 0.730290 -0.646258
O30   O     O_R   0.853870 0.585490 0.269710 -0.646246
O31   O     O_R   0.914510 0.646130 0.769710 -0.646253
O32   O     O_R   0.085490 0.353870 0.230290 -0.646158
O33   O     O_R   0.353870 0.914510 0.769710 -0.632426
O34   O     O_3   0.000000 0.500000 0.750000 -0.511167
O35   O     O_R   0.646130 0.085490 0.230290 -0.632467
O36   O     O_R   0.085490 0.353870 0.769710 -0.646253
O37   O     O_R   0.914510 0.646130 0.230290 -0.646158
O38   O     O_R   0.646130 0.085490 0.769710 -0.632426
O39   O     O_R   0.353870 0.914510 0.230290 -0.632467
O40   O     O_R   0.914510 0.353870 0.230290 -0.632327
O41   O     O_R   0.085490 0.646130 0.769710 -0.632475
O42   O     O_R   0.353870 0.085490 0.230290 -0.646246
O43   O     O_R   0.646130 0.914510 0.769710 -0.646223
O44   O     O_R   0.085490 0.646130 0.230290 -0.632327
O45   O     O_R   0.500000 0.939240 0.324930 -0.601524
O46   O     O_R   0.914510 0.353870 0.769710 -0.632475
O47   O     O_R   0.646130 0.914510 0.230290 -0.646246
O48   O     O_R   0.353870 0.085490 0.769710 -0.646222
O49   O     O_R   0.500000 0.060760 0.675070 -0.601483
O50   O     O_R   0.060760 0.500000 0.324930 -0.601351
O51   O     O_R   0.939240 0.500000 0.675070 -0.601535
O52   O     O_R   0.500000 0.060760 0.324930 -0.601525
Zn1   Zn    Zn3+2 0.413200 0.000000 0.222070 1.026889
Zn2   Zn    Zn3+2 0.086800 0.500000 0.277930 1.026775
Zn3   Zn    Zn3+2 0.500000 0.913200 0.722070 1.026850
Zn4   Zn    Zn3+2 0.500000 0.086800 0.277930 1.026876
Zn5   Zn    Zn3+2 0.086800 0.500000 0.722070 1.026886
Zn6   Zn    Zn3+2 0.913200 0.500000 0.277930 1.026775
Zn7   Zn    Zn3+2 0.500000 0.086800 0.722070 1.026850
Zn8   Zn    Zn3+2 0.500000 0.913200 0.277930 1.026876
Zn9   Zn    Zn3+2 0.586800 0.000000 0.777930 1.026887
Zn10  Zn    Zn3+2 0.000000 0.413200 0.222070 1.026872
Zn11  Zn    Zn3+2 1.000000 0.586800 0.777930 1.026893
Zn12  Zn    Zn3+2 0.586800 0.000000 0.222070 1.026889
Zn13  Zn    Zn3+2 0.413200 0.000000 0.777930 1.026887
Zn14  Zn    Zn3+2 1.000000 0.586800 0.222070 1.026872
Zn15  Zn    Zn3+2 1.000000 0.413200 0.777930 1.026893
Zn16  Zn    Zn3+2 0.913200 0.500000 0.722070 1.026886

loop_
_geom_bond_atom_site_label_1
_geom_bond_atom_site_label_2
_ccdc_geom_bond_type
C100  H9    S    
C33   C55   A    
O34   Zn5   S    
C94   O32   A    
C30   C51   A    
C39   Cl9   S    
C14   C122  A    
C104  H14   S    
C29   C42   A    
C35   C53   A    
C9    C117  A    
C7    C117  A    
C1    H1    S    
C100  C116  A    
C78   O9    A    
C5    H41   S    
C57   C66   S    
C115  H25   S    
C10   C121  A    
C81   O8    A    
C123  H32   S    
O36   Zn15  S    
O32   Zn10  S    
C39   C41   A    
C61   C70   S    
O10   Zn10  S    
C101  H10   S    
C49   Cl3   S    
C34   C51   A    
O50   Zn2   S    
O25   Zn16  S    
C23   C95   S    
C111  H20   S    
C102  C114  A    
C31   C81   S    
O26   Zn2   S    
C89   O44   A    
C7    H43   S    
C103  C113  A    
C77   O4    A    
C20   C128  A    
C91   O22   A    
C109  H18   S    
C52   H23   S    
C50   Cl4   S    
C106  H16   S    
C6    C25   A    
C28   C40   A    
C85   H45   S    
C122  H31   S    
C88   O48   A    
C98   O29   A    
C94   O26   A    
O11   Zn13  S    
C37   C55   A    
C108  C109  A    
C12   C84   S    
C84   O40   A    
C93   O25   A    
O1    Zn8   S    
C96   H46   S    
C58   C96   A    
C83   O15   A    
O12   Zn7   S    
C118  H48   S    
C27   C44   A    
C47   C118  A    
C13   C62   A    
C92   O35   A    
C27   C39   A    
C44   Cl13  S    
C88   O19   A    
O49   Zn7   S    
O4    Zn5   S    
C125  H35   S    
O23   Zn6   S    
C26   C76   S    
C86   O17   A    
O45   Zn8   S    
C126  H36   S    
O22   Zn3   S    
C45   C96   A    
C35   H6    S    
O48   Zn13  S    
C17   C98   S    
C98   O36   A    
C10   C114  A    
C3    C122  A    
O5    Zn15  S    
C119  H28   S    
C41   H12   S    
C30   C80   S    
O37   Zn14  S    
O38   Zn9   S    
C43   C74   A    
C125  C126  A    
C105  C111  A    
C99   O30   A    
C24   C64   A    
C79   O6    A    
O27   Zn7   S    
C91   O33   A    
C95   O38   A    
C34   C60   A    
C117  H27   S    
C22   C94   S    
C15   C110  A    
C48   Cl2   S    
O39   Zn1   S    
C4    C121  A    
C36   C62   A    
C28   C73   S    
O18   Zn8   S    
C99   O37   A    
C34   H5    S    
C73   O52   A    
C16   C109  A    
C89   O20   A    
C74   H44   S    
C24   C50   A    
C14   C111  A    
C38   Cl1   S    
C28   C45   A    
C41   C57   A    
C12   C112  A    
C56   C74   A    
C112  H21   S    
C90   O46   A    
C5    C120  A    
C116  H26   S    
C67   C68   T    
C9    C115  A    
O1    Zn12  S    
C30   C47   A    
C43   Cl12  S    
C87   O47   A    
O43   Zn9   S    
C35   C61   A    
C24   H4    S    
C17   C108  A    
O34   Zn16  S    
C113  H22   S    
C104  C112  A    
O41   Zn11  S    
C33   C79   S    
C2    C48   A    
C33   C50   A    
O9    Zn11  S    
C80   O7    A    
C47   Cl16  S    
C10   C82   S    
O23   Zn10  S    
C59   C107  A    
O52   Zn4   S    
C40   Cl10  S    
O3    Zn6   S    
C5    C21   A    
C21   C103  A    
O34   Zn15  S    
O14   Zn4   S    
C18   C106  A    
C105  H15   S    
C73   O45   A    
C75   O49   A    
C76   O3    A    
C59   C68   S    
C4    C22   A    
O12   Zn13  S    
C84   O16   A    
C25   C100  A    
C95   O27   A    
C121  H30   S    
C79   O10   A    
C46   C107  A    
C97   O28   A    
C128  H38   S    
O46   Zn15  S    
C93   O31   A    
O16   Zn6   S    
C31   C53   A    
C60   C118  A    
C63   H34   S    
C14   C86   S    
C124  H33   S    
O35   Zn12  S    
O13   Zn12  S    
C52   C58   A    
C1    C38   A    
C32   C54   A    
C124  C127  A    
C13   C49   A    
O30   Zn6   S    
O20   Zn2   S    
C26   C43   A    
C78   O5    A    
O6    Zn14  S    
C83   O43   A    
C31   C48   A    
O28   Zn8   S    
O21   Zn16  S    
C45   Cl14  S    
C101  C115  A    
C87   O18   A    
C20   C92   S    
C2    H2    S    
C18   C99   S    
O29   Zn5   S    
C37   H8    S    
C44   C85   A    
C19   C105  A    
C6    C119  A    
C82   O14   A    
C37   C64   A    
O23   Zn14  S    
C81   O13   A    
C106  C110  A    
C9    C90   S    
C25   C97   S    
C56   C65   S    
O34   Zn11  S    
C11   C120  A    
C42   Cl11  S    
C77   O51   A    
O44   Zn14  S    
C1    C56   A    
C17   C127  A    
C53   Cl6   S    
C86   O41   A    
C27   C77   S    
O15   Zn3   S    
O8    Zn1   S    
C110  H19   S    
C2    C61   A    
C36   H7    S    
C114  H24   S    
C46   Cl15  S    
C29   C75   S    
C76   O50   A    
O24   Zn4   S    
C127  H37   S    
C108  H17   S    
C6    H42   S    
C59   C63   A    
C22   C102  A    
C29   C46   A    
O2    Zn3   S    
C26   C38   A    
C82   O42   A    
C16   C124  A    
O33   Zn13  S    
C71   C72   T    
O42   Zn1   S    
C40   C52   A    
C18   C126  A    
O12   Zn9   S    
C51   Cl5   S    
C11   C83   S    
C123  C128  A    
C97   O39   A    
C12   C123  A    
C21   C93   S    
C60   C69   S    
C7    C23   A    
C54   Cl7   S    
C102  H11   S    
O1    Zn4   S    
C57   C85   A    
C62   C71   S    
C92   O24   A    
O1    Zn1   S    
O51   Zn16  S    
C64   C72   S    
C3    C19   A    
O40   Zn10  S    
C11   C113  A    
C69   C70   T    
C32   C49   A    
C4    H40   S    
O12   Zn3   S    
C19   C91   S    
C20   C104  A    
C8    C116  A    
C23   C101  A    
C32   C78   S    
C80   O11   A    
C75   O2    A    
O31   Zn11  S    
C58   C67   S    
C103  H13   S    
O23   Zn2   S    
C65   C66   T    
C15   C125  A    
C15   C87   S    
C107  H47   S    
O47   Zn12  S    
C16   C88   S    
C13   H3    S    
O7    Zn9   S    
C8    C89   S    
C36   C54   A    
O19   Zn7   S    
C120  H29   S    
C3    H39   S    
C42   C63   A    
C90   O21   A    
C55   Cl8   S    
C8    C119  A    
O17   Zn5   S    
