data_mof_unit_15830.cif
_audit_creation_date              2012-12-11T15:41:05-0500
_audit_creation_method            fapswitch 2.2
_symmetry_space_group_name_H-M    P1
_symmetry_Int_Tables_number       1
_space_group_crystal_system       triclinic
_cell_length_a                    19.168212
_cell_length_b                    10.98764
_cell_length_c                    18.840192
_cell_angle_alpha                 90.076959
_cell_angle_beta                  89.910246
_cell_angle_gamma                 90.659459
_cell_volume                      3967.72595917

loop_
_atom_site_label
_atom_site_type_symbol
_atom_type_description
_atom_site_fract_x
_atom_site_fract_y
_atom_site_fract_z
_atom_type_partial_charge
C1    C     C_R   0.723318 0.964210 0.856660 0.561027
C2    C     C_R   0.274049 0.957467 0.145773 0.553896
C3    C     C_R   0.223318 0.464209 0.856660 0.561027
C4    C     C_R   0.774049 0.457467 0.145773 0.553904
C5    C     C_R   0.695390 0.441407 0.039607 0.004727
C6    C     C_R   0.299863 0.447220 0.961003 -0.022574
C7    C     C_R   0.195390 0.941408 0.039607 0.004725
C8    C     C_R   0.799863 0.947220 0.961003 -0.022574
C9    C     C_R   0.690237 0.432219 0.966297 -0.040398
C10   C     C_R   0.309143 0.434663 0.033283 -0.045353
C11   C     C_R   0.190237 0.932219 0.966297 -0.040398
C12   C     C_R   0.809144 0.934663 0.033283 -0.045353
C13   C     C_R   0.811975 0.375359 0.959532 0.264841
C14   C     C_R   0.184384 0.441379 0.052181 0.245242
C15   C     C_R   0.311975 0.875359 0.959532 0.264841
C16   C     C_R   0.684384 0.941379 0.052181 0.245243
C17   C     C_R   0.814143 0.373802 0.033446 -0.147958
C18   C     C_R   0.175911 0.455322 0.978407 -0.142695
C19   C     C_R   0.314143 0.873803 0.033446 -0.147957
C20   C     C_R   0.675911 0.955322 0.978407 -0.142695
C21   C     C_3   0.651107 0.551858 0.042179 -0.125228
C22   C     C_3   0.360487 0.369002 0.943326 -0.145272
C23   C     C_3   0.151107 0.051858 0.042179 -0.125227
C24   C     C_3   0.860487 0.869002 0.943326 -0.145272
C25   C     C_3   0.644548 0.541383 0.962074 -0.273701
C26   C     C_3   0.370599 0.353763 0.022887 -0.254559
C27   C     C_3   0.144548 0.041383 0.962074 -0.273701
C28   C     C_3   0.870599 0.853763 0.022887 -0.254559
C29   C     C_R   0.748942 0.406276 0.925028 0.055440
C30   C     C_R   0.251979 0.422678 0.079283 0.035970
C31   C     C_R   0.248942 0.906276 0.925028 0.055441
C32   C     C_R   0.751979 0.922678 0.079283 0.035971
C33   C     C_R   0.504929 0.170321 0.421981 0.001282
C34   C     C_R   0.512865 0.161619 0.569829 -0.047154
C35   C     C_R   0.004930 0.670320 0.421981 0.001294
C36   C     C_R   0.012862 0.661614 0.569830 -0.047176
C37   C     C_R   0.505274 0.276140 0.462608 0.026378
C38   C     C_R   0.508454 0.270257 0.534026 -0.031808
C39   C     C_R   0.005272 0.776136 0.462610 0.026394
C40   C     C_R   0.008450 0.770252 0.534027 -0.031809
C41   C     C_R   0.523762 0.052987 0.529704 0.239805
C42   C     C_R   0.521103 0.058462 0.454550 0.233341
C43   C     C_R   0.023758 0.552981 0.529704 0.239811
C44   C     C_R   0.021105 0.558462 0.454549 0.233379
C45   C     C_R   0.530385 0.177981 0.850811 0.561039
C46   C     C_R   0.469821 0.177637 0.149156 0.560703
C47   C     C_R   0.030385 0.677981 0.850811 0.561039
C48   C     C_R   0.969821 0.677637 0.149156 0.560697
C49   C     C_3   0.455756 0.381015 0.466613 -0.245473
C50   C     C_3   0.461273 0.373112 0.546315 -0.285280
C51   C     C_3   0.955751 0.881008 0.466614 -0.245469
C52   C     C_3   0.961267 0.873102 0.546317 -0.285286
C53   C     C_R   0.756192 0.423651 0.424901 0.026651
C54   C     C_R   0.237865 0.441462 0.569734 0.002785
C55   C     C_R   0.256193 0.923652 0.424901 0.026641
C56   C     C_R   0.737867 0.941464 0.569734 0.002782
C57   C     C_R   0.803993 0.455946 0.477695 -0.046414
C58   C     C_R   0.189692 0.369429 0.533325 0.054518
C59   C     C_R   0.303995 0.955941 0.477696 -0.046419
C60   C     C_R   0.689694 0.869432 0.533325 0.054513
C61   C     C_R   0.794251 0.421041 0.546899 0.035461
C62   C     C_R   0.191427 0.357557 0.461745 0.068962
C63   C     C_R   0.294252 0.921038 0.546899 0.035450
C64   C     C_R   0.691425 0.857565 0.461744 0.068957
C65   C     C_R   0.689424 0.312320 0.513426 -0.108382
C66   C     C_R   0.287153 0.500220 0.454745 -0.175076
C67   C     C_R   0.189420 0.812331 0.513428 -0.108365
C68   C     C_R   0.787156 0.000221 0.454746 -0.175083
C69   C     C_R   0.700052 0.345723 0.441934 0.237574
C70   C     C_R   0.281843 0.519355 0.528423 0.221687
C71   C     C_R   0.200047 0.845735 0.441936 0.237568
C72   C     C_R   0.781846 0.019356 0.528423 0.221683
C73   C     C_3   0.832690 0.577694 0.499516 -0.291435
C74   C     C_3   0.159024 0.245591 0.544791 -0.260615
C75   C     C_3   0.332695 0.077688 0.499518 -0.291438
C76   C     C_3   0.659030 0.745593 0.544790 -0.260623
C77   C     C_3   0.822301 0.538038 0.575920 -0.267761
C78   C     C_3   0.159870 0.231977 0.464612 -0.233380
C79   C     C_3   0.322305 0.038033 0.575922 -0.267767
C80   C     C_3   0.659868 0.731985 0.464612 -0.233379
C81   C     C_R   0.735029 0.355370 0.566495 0.030452
C82   C     C_R   0.245210 0.411038 0.422219 -0.055573
C83   C     C_R   0.235029 0.855372 0.566496 0.030452
C84   C     C_R   0.745210 0.911041 0.422218 -0.055588
C85   C     C_R   0.738471 0.363876 0.852558 0.585473
C86   C     C_R   0.261956 0.365304 0.147943 0.566929
C87   C     C_R   0.238471 0.863876 0.852558 0.585473
C88   C     C_R   0.761956 0.865304 0.147943 0.566931
C89   C     C_R   0.725226 0.962574 0.644733 0.560553
C90   C     C_R   0.272890 0.957555 0.352877 0.576470
C91   C     C_R   0.225226 0.462574 0.644733 0.560555
C92   C     C_R   0.772889 0.457553 0.352876 0.576504
C93   C     C_R   0.532026 0.174543 0.643460 0.549047
C94   C     C_R   0.471465 0.176607 0.353890 0.570551
C95   C     C_R   0.032026 0.674542 0.643460 0.549029
C96   C     C_R   0.971465 0.676607 0.353890 0.570535
C97   C     C_R   0.726872 0.316040 0.639131 0.588813
C98   C     C_R   0.260211 0.362192 0.353031 0.538047
C99   C     C_R   0.226872 0.816041 0.639131 0.588816
C100  C     C_R   0.760211 0.862192 0.353031 0.538044
C101  C     C_2   0.499911 0.173303 0.921505 -0.088130
C102  C     C_2   0.500560 0.166895 0.078420 -0.082044
C103  C     C_2   0.999911 0.673303 0.921505 -0.088130
C104  C     C_2   0.000560 0.666895 0.078420 -0.082046
C105  C     C_2   0.480123 0.074680 0.035667 -0.145571
C106  C     C_2   0.495867 0.071088 0.959432 -0.129781
C107  C     C_2   0.980123 0.574680 0.035667 -0.145571
C108  C     C_2   0.995867 0.571088 0.959432 -0.129781
C109  C     C_R   0.757970 0.416020 0.074186 -0.027290
C110  C     C_R   0.233359 0.446818 0.932142 -0.017386
C111  C     C_R   0.257970 0.916020 0.074186 -0.027291
C112  C     C_R   0.733359 0.946818 0.932142 -0.017386
Cr1   Cr    Cr6+3 0.769260 0.163750 0.750730 1.026626
Cr2   Cr    Cr6+3 0.230740 0.163750 0.249270 1.042956
Cr3   Cr    Cr6+3 0.269260 0.663750 0.750730 1.026632
Cr4   Cr    Cr6+3 0.730740 0.663750 0.249270 1.042956
Cr5   Cr    Cr6+3 0.612640 0.009910 0.748780 1.028461
Cr6   Cr    Cr6+3 0.387360 0.009910 0.251220 1.010713
Cr7   Cr    Cr6+3 0.112640 0.509910 0.748780 1.028455
Cr8   Cr    Cr6+3 0.887360 0.509910 0.251220 1.010717
Cr9   Cr    Cr6+3 0.614190 0.322400 0.747710 1.007403
Cr10  Cr    Cr6+3 0.385810 0.322400 0.252290 1.034497
Cr11  Cr    Cr6+3 0.114190 0.822400 0.747710 1.007401
Cr12  Cr    Cr6+3 0.885810 0.822400 0.252290 1.034498
H1    H     H_    0.449784 0.999255 0.056690 0.145587
H2    H     H_    0.503503 0.983196 0.934402 0.163268
H3    H     H_    0.949784 0.499255 0.056689 0.145587
H4    H     H_    0.003503 0.483196 0.934402 0.163268
H5    H     H_    0.902644 0.856904 0.447393 0.155043
H6    H     H_    0.989833 0.951199 0.570649 0.143263
H7    H     H_    0.402648 0.356914 0.447393 0.155044
H8    H     H_    0.489840 0.451209 0.570646 0.143260
H9    H     H_    0.478708 0.466253 0.444428 0.145840
H10   H     H_    0.411896 0.343791 0.572672 0.128151
H11   H     H_    0.978702 0.966248 0.444431 0.145846
H12   H     H_    0.911891 0.843777 0.572672 0.128150
H13   H     H_    0.646809 0.251962 0.527338 0.117849
H14   H     H_    0.323795 0.553878 0.423680 0.130985
H15   H     H_    0.146803 0.751979 0.527340 0.117870
H16   H     H_    0.823800 0.053875 0.423681 0.130987
H17   H     H_    0.800689 0.656341 0.484274 0.126262
H18   H     H_    0.105800 0.245876 0.567044 0.182070
H19   H     H_    0.300696 0.156338 0.484276 0.126262
H20   H     H_    0.605813 0.745874 0.567054 0.182065
H21   H     H_    0.887954 0.588416 0.485115 0.122890
H22   H     H_    0.194452 0.183587 0.572208 0.113662
H23   H     H_    0.387959 0.088408 0.485118 0.122885
H24   H     H_    0.694463 0.683592 0.572201 0.113659
H25   H     H_    0.871631 0.528101 0.605161 0.128563
H26   H     H_    0.194338 0.159208 0.445141 0.145857
H27   H     H_    0.371637 0.028089 0.605165 0.128584
H28   H     H_    0.694332 0.659215 0.445136 0.145859
H29   H     H_    0.783430 0.589686 0.606472 0.137154
H30   H     H_    0.107107 0.228068 0.440900 0.163538
H31   H     H_    0.283434 0.089688 0.606471 0.137158
H32   H     H_    0.607102 0.728078 0.440907 0.163541
H33   H     H_    0.531696 0.242422 0.058181 0.120418
H34   H     H_    0.488990 0.259967 0.946444 0.098040
H35   H     H_    0.031696 0.742422 0.058181 0.120417
H36   H     H_    0.988990 0.759967 0.946444 0.098040
H37   H     H_    0.863182 0.352581 0.058377 0.134706
H38   H     H_    0.124753 0.471901 0.957080 0.135150
H39   H     H_    0.363182 0.852581 0.058377 0.134706
H40   H     H_    0.624753 0.971901 0.957080 0.135150
H41   H     H_    0.179966 0.134730 0.059735 0.135720
H42   H     H_    0.903310 0.920331 0.916530 0.111470
H43   H     H_    0.679966 0.634730 0.059735 0.135719
H44   H     H_    0.403310 0.420331 0.916530 0.111471
H45   H     H_    0.591333 0.517126 0.942716 0.141621
H46   H     H_    0.360732 0.259919 0.043060 0.141958
H47   H     H_    0.091333 0.017126 0.942716 0.141621
H48   H     H_    0.860732 0.759919 0.043060 0.141958
H49   H     H_    0.669863 0.618493 0.933300 0.144414
H50   H     H_    0.419580 0.397196 0.042261 0.162965
H51   H     H_    0.169863 0.118493 0.933300 0.144413
H52   H     H_    0.919580 0.897196 0.042261 0.162965
O1    O     O_R   0.784290 0.290360 0.830540 -0.470703
O2    O     O_R   0.215710 0.290360 0.169460 -0.511163
O3    O     O_R   0.284290 0.790360 0.830540 -0.470703
O4    O     O_R   0.715710 0.790360 0.169460 -0.511164
O5    O     O_R   0.554690 0.080440 0.673480 -0.472299
O6    O     O_R   0.445310 0.080440 0.326520 -0.488155
O7    O     O_R   0.054690 0.580440 0.673480 -0.472309
O8    O     O_R   0.945310 0.580440 0.326520 -0.488160
O9    O     O_R   0.543980 0.282110 0.666770 -0.525085
O10   O     O_R   0.456020 0.282110 0.333230 -0.512477
O11   O     O_R   0.043980 0.782110 0.666770 -0.525081
O12   O     O_R   0.956020 0.782110 0.333230 -0.512475
O13   O     O_R   0.679070 0.374030 0.674430 -0.515351
O14   O     O_R   0.320930 0.374030 0.325570 -0.518485
O15   O     O_R   0.179070 0.874030 0.674430 -0.515353
O16   O     O_R   0.820930 0.874030 0.325570 -0.518482
O17   O     O_3   0.665360 0.165350 0.749070 -0.286814
O18   O     O_3   0.334640 0.165350 0.250930 -0.271398
O19   O     O_3   0.165360 0.665350 0.749070 -0.286811
O20   O     O_3   0.834640 0.665350 0.250930 -0.271399
O21   O     O_R   0.762610 0.041070 0.825230 -0.505460
O22   O     O_R   0.237390 0.041070 0.174770 -0.497066
O23   O     O_R   0.262610 0.541070 0.825230 -0.505459
O24   O     O_R   0.737390 0.541070 0.174770 -0.497065
O25   O     O_R   0.667390 0.924160 0.829970 -0.526964
O26   O     O_R   0.332610 0.924160 0.170030 -0.533315
O27   O     O_R   0.167390 0.424160 0.829970 -0.526965
O28   O     O_R   0.832610 0.424160 0.170030 -0.533312
O29   O     O_R   0.553980 0.081420 0.821780 -0.502360
O30   O     O_R   0.446020 0.081420 0.178220 -0.503589
O31   O     O_R   0.053980 0.581420 0.821780 -0.502359
O32   O     O_R   0.946020 0.581420 0.178220 -0.503590
O33   O     O_R   0.543210 0.283170 0.826740 -0.523385
O34   O     O_R   0.456790 0.283170 0.173260 -0.490585
O35   O     O_R   0.043210 0.783170 0.826740 -0.523385
O36   O     O_R   0.956790 0.783170 0.173260 -0.490586
O37   O     O_R   0.678350 0.375000 0.822720 -0.506641
O38   O     O_R   0.321650 0.375000 0.177280 -0.503434
O39   O     O_R   0.178350 0.875000 0.822720 -0.506642
O40   O     O_R   0.821650 0.875000 0.177280 -0.503432
O41   O     O_R   0.785060 0.289300 0.670580 -0.494300
O42   O     O_R   0.214940 0.289300 0.329420 -0.502979
O43   O     O_R   0.285060 0.789300 0.670580 -0.494301
O44   O     O_R   0.714940 0.789300 0.329420 -0.502981
O45   O     O_R   0.763330 0.040090 0.676940 -0.488631
O46   O     O_R   0.236670 0.040090 0.323060 -0.485624
O47   O     O_R   0.263330 0.540090 0.676940 -0.488624
O48   O     O_R   0.736670 0.540090 0.323060 -0.485632
O49   O     O_R   0.668160 0.923110 0.670000 -0.493210
O50   O     O_R   0.331840 0.923110 0.330000 -0.542130
O51   O     O_R   0.168160 0.423110 0.670000 -0.493217
O52   O     O_R   0.831840 0.423110 0.330000 -0.542119
O53   O     O_3   0.653661 0.309024 0.389936 -0.569735
C113  C     C_3   0.671001 0.190323 0.368471 -0.093496
H53   H     H_    0.662544 0.124464 0.412432 0.147423
H54   H     H_    0.725671 0.185910 0.348588 0.116136
H55   H     H_    0.636120 0.162800 0.324208 0.168866
O54   O     O_3   0.307198 0.627176 0.556062 -0.557906
C114  C     C_3   0.377231 0.614311 0.575282 -0.105741
H56   H     H_    0.393162 0.696601 0.604912 0.140534
H57   H     H_    0.410890 0.607881 0.527442 0.091026
H58   H     H_    0.384108 0.537572 0.612765 0.122275
O55   O     O_3   0.153646 0.809053 0.389943 -0.569736
C115  C     C_3   0.171001 0.690381 0.368440 -0.093515
H59   H     H_    0.162580 0.624486 0.412387 0.147415
H60   H     H_    0.225659 0.686021 0.348527 0.116146
H61   H     H_    0.136103 0.662865 0.324190 0.168853
O56   O     O_3   0.807204 0.127175 0.556063 -0.557904
C116  C     C_3   0.877234 0.114298 0.575292 -0.105728
H62   H     H_    0.893166 0.196582 0.604929 0.140524
H63   H     H_    0.910898 0.107871 0.527455 0.091034
H64   H     H_    0.884103 0.037553 0.612773 0.122274
O57   O     O_3   0.872690 0.360075 0.919954 -0.540779
C117  C     C_3   0.906661 0.251056 0.938341 -0.109523
H65   H     H_    0.869375 0.174866 0.949169 0.132530
H66   H     H_    0.941848 0.266082 0.984349 0.087770
H67   H     H_    0.939716 0.222959 0.892947 0.135577
O58   O     O_3   0.128645 0.455458 0.098357 -0.550436
C118  C     C_3   0.080011 0.359252 0.089499 -0.093851
H68   H     H_    0.060883 0.350637 0.034084 0.081546
H69   H     H_    0.034281 0.376905 0.123953 0.150137
H70   H     H_    0.102037 0.272162 0.107406 0.149751
O59   O     O_3   0.372690 0.860075 0.919954 -0.540778
C119  C     C_3   0.406661 0.751056 0.938341 -0.109523
H71   H     H_    0.369375 0.674866 0.949169 0.132530
H72   H     H_    0.441848 0.766082 0.984349 0.087770
H73   H     H_    0.439715 0.722959 0.892947 0.135578
O60   O     O_3   0.628645 0.955458 0.098357 -0.550434
C120  C     C_3   0.580012 0.859252 0.089499 -0.093851
H74   H     H_    0.560883 0.850637 0.034084 0.081546
H75   H     H_    0.534281 0.876905 0.123953 0.150137
H76   H     H_    0.602037 0.772161 0.107406 0.149750
C121  C     C_1   0.585245 0.528692 0.080188 0.174141
N1    N     N_1   0.533447 0.511032 0.110255 -0.314239
C122  C     C_1   0.340144 0.255161 0.906909 0.195936
N2    N     N_1   0.324188 0.165981 0.878186 -0.288747
C123  C     C_1   0.085245 0.028692 0.080188 0.174140
N3    N     N_1   0.033447 0.011032 0.110255 -0.314240
C124  C     C_1   0.840144 0.755161 0.906909 0.195935
N4    N     N_1   0.824188 0.665981 0.878186 -0.288748
O61   O     O_3   0.543920 0.945902 0.561654 -0.532772
C125  C     C_3   0.485319 0.887330 0.592272 -0.113700
H77   H     H_    0.467506 0.933836 0.641073 0.141442
H78   H     H_    0.500422 0.794734 0.608795 0.095472
H79   H     H_    0.441520 0.877641 0.554197 0.096133
O62   O     O_3   0.538852 0.959631 0.412616 -0.553036
C126  C     C_3   0.485946 0.869194 0.414630 -0.065624
H80   H     H_    0.485277 0.821215 0.362796 0.137389
H81   H     H_    0.432894 0.905860 0.423320 0.137284
H82   H     H_    0.497524 0.800521 0.455743 0.111330
O63   O     O_3   0.043914 0.445890 0.561651 -0.532796
C127  C     C_3   0.985318 0.387352 0.592303 -0.113678
H83   H     H_    0.967468 0.433975 0.641052 0.141383
H84   H     H_    0.000441 0.294818 0.608929 0.095552
H85   H     H_    0.941541 0.377535 0.554215 0.096141
O64   O     O_3   0.038858 0.459634 0.412615 -0.553027
C128  C     C_3   0.985953 0.369193 0.414628 -0.065613
H86   H     H_    0.985282 0.321218 0.362795 0.137382
H87   H     H_    0.932902 0.405849 0.423323 0.137271
H88   H     H_    0.997536 0.300516 0.455738 0.111339

loop_
_geom_bond_atom_site_label_1
_geom_bond_atom_site_label_2
_ccdc_geom_bond_type
Cr1   O1    S    
C118  H69   S    
C55   C59   A    
C114  H57   S    
C2    O26   A    
C98   O14   A    
C53   C69   A    
Cr6   O26   S    
C49   H7    S    
O62   C126  S    
Cr8   O20   S    
Cr6   O30   S    
C14   C30   A    
C117  H66   S    
C122  N2    T    
C86   O2    A    
O56   C116  S    
C64   C84   A    
C93   O5    A    
C48   O36   A    
C56   C72   A    
C65   H13   S    
C117  H67   S    
C116  H62   S    
C82   C98   S    
Cr10  O18   S    
Cr6   O6    S    
C2    C111  S    
C31   C87   S    
C21   C121  S    
C51   C52   S    
C84   C100  S    
C127  H85   S    
C92   O48   A    
C50   H10   S    
C46   O34   A    
C60   C76   S    
Cr9   O37   S    
C43   C44   A    
C37   C38   A    
C66   C82   A    
C10   C30   A    
C54   C70   A    
C11   C27   S    
C68   C72   A    
C48   O32   A    
Cr11  O15   S    
C113  H54   S    
Cr1   O45   S    
C75   H19   S    
C76   H20   S    
C101  H34   S    
C98   O42   A    
C68   H16   S    
C104  H35   S    
Cr3   O47   S    
C49   H9    S    
Cr2   O18   S    
C90   O50   A    
C17   C109  A    
C57   C61   A    
C19   C111  A    
C13   O57   S    
C59   C63   A    
C105  H1    S    
C60   C64   A    
C107  H3    S    
C23   C123  S    
C95   O7    A    
C66   C70   A    
Cr7   O19   S    
Cr5   O17   S    
C79   H31   S    
C25   H49   S    
C5    C21   S    
C26   H46   S    
C116  H64   S    
C73   C77   S    
C75   C79   S    
C104  C107  D    
C55   C71   A    
C6    C22   S    
C22   C122  S    
C39   C51   S    
C4    C109  S    
C67   C83   A    
C47   O35   A    
C33   C94   S    
C51   H5    S    
C35   C96   S    
Cr6   O50   S    
O57   C117  S    
C33   C42   A    
C55   C90   S    
C1    C112  S    
Cr9   O13   S    
Cr10  O10   S    
C3    C110  S    
C32   C88   S    
C57   C73   S    
C89   O45   A    
C77   H29   S    
C23   H41   S    
C28   H48   S    
C61   C77   S    
O60   C120  S    
Cr2   O2    S    
C66   H14   S    
C107  C108  S    
Cr10  O34   S    
Cr4   O44   S    
C67   H15   S    
C29   C85   S    
C97   O13   A    
O61   C125  S    
C126  H82   S    
C100  O16   A    
Cr2   O42   S    
C39   C40   A    
Cr12  O12   S    
C19   H39   S    
Cr3   O23   S    
C45   O33   A    
C73   H21   S    
C127  H84   S    
C86   O38   A    
C5    C9    A    
C128  H86   S    
C69   O53   S    
C120  H75   S    
C14   O58   S    
C8    C12   A    
Cr12  O20   S    
Cr7   O7    S    
C108  H4    S    
Cr8   O8    S    
C76   H24   S    
C17   H37   S    
C56   C89   S    
C74   C78   S    
Cr8   O28   S    
C114  H58   S    
C58   C74   S    
C101  C106  D    
C46   O30   A    
C21   C25   S    
C62   C78   S    
C1    O21   A    
C24   C28   S    
C119  H71   S    
C15   C31   A    
C16   C32   A    
C13   C17   A    
C22   H44   S    
C61   C81   A    
C36   C95   S    
C7    C23   S    
C115  H59   S    
C8    C24   S    
C41   O61   S    
Cr4   O20   S    
C4    O24   A    
Cr7   O31   S    
C100  O44   A    
C49   C50   S    
Cr2   O22   S    
C126  H80   S    
C125  H77   S    
C83   C99   S    
C118  H68   S    
C58   C62   A    
Cr11  O39   S    
C3    O27   A    
C41   C42   A    
C72   O56   S    
O55   C115  S    
C1    O25   A    
C9    C25   S    
C73   H17   S    
C15   C19   A    
C12   C28   S    
C13   C29   A    
C128  H88   S    
Cr5   O29   S    
C8    C112  A    
C54   C58   A    
C103  H36   S    
C26   H50   S    
C20   H40   S    
C102  C105  D    
C14   C18   A    
C20   C112  A    
C125  H79   S    
C114  H56   S    
C88   O4    A    
C44   O64   S    
Cr8   O52   S    
C62   C82   A    
C118  H70   S    
C2    O22   A    
C121  N1    T    
C64   C80   S    
Cr11  O19   S    
C34   C41   A    
C119  H73   S    
Cr9   O17   S    
Cr10  O14   S    
C47   C103  S    
C68   C84   A    
C94   O10   A    
Cr7   O27   S    
C27   H51   S    
C53   C57   A    
C78   H30   S    
Cr12  O36   S    
C52   H12   S    
C75   H23   S    
C117  H65   S    
C115  H61   S    
C33   C37   A    
Cr10  O38   S    
C63   C83   A    
Cr8   O32   S    
Cr4   O48   S    
C35   C39   A    
O58   C118  S    
C37   C49   S    
C65   C81   A    
O63   C127  S    
Cr2   O46   S    
C50   H8    S    
C99   O43   A    
C95   O11   A    
C116  H63   S    
C97   O41   A    
O54   C114  S    
C77   H25   S    
Cr12  O16   S    
Cr3   O19   S    
C45   O29   A    
C91   O51   A    
Cr1   O17   S    
C74   H22   S    
C28   H52   S    
C18   C110  A    
C89   O49   A    
C6    C10   A    
C105  C106  S    
C106  H2    S    
C21   H43   S    
C54   C91   S    
C99   O15   A    
C18   H38   S    
C5    C109  A    
C65   C69   A    
C7    C111  A    
C67   C71   A    
C113  H53   S    
Cr6   O18   S    
C56   C60   A    
C92   O52   A    
C85   O1    A    
C22   C26   S    
C87   O39   A    
C36   C43   A    
C94   O6    A    
C71   O55   S    
C93   O9    A    
C126  H81   S    
C96   O12   A    
C24   H42   S    
C34   C93   S    
Cr7   O51   S    
C63   C79   S    
C7    C11   A    
C46   C102  S    
Cr5   O49   S    
O53   C113  S    
O64   C128  S    
C90   O46   A    
Cr4   O24   S    
Cr5   O5    S    
C4    O28   A    
C48   C104  S    
C113  H55   S    
C70   O54   S    
C51   H11   S    
Cr11  O35   S    
C3    O23   A    
C103  C108  D    
C23   C27   S    
C30   C86   S    
C120  H74   S    
C16   C20   A    
C10   C26   S    
C74   H18   S    
C11   C31   A    
C12   C32   A    
C6    C110  A    
Cr3   O43   S    
C96   O8    A    
Cr5   O25   S    
C102  H33   S    
Cr1   O41   S    
C42   O62   S    
C80   H32   S    
C43   O63   S    
C36   C40   A    
C119  H72   S    
C40   C52   S    
C87   O3    A    
C85   O37   A    
C53   C92   S    
C115  H60   S    
C123  N3    T    
C35   C44   A    
C45   C101  S    
C124  N4    T    
Cr9   O33   S    
C125  H78   S    
C76   C80   S    
O59   C119  S    
C59   C75   S    
C15   O59   S    
C78   H26   S    
C79   H27   S    
Cr12  O40   S    
C25   H45   S    
C80   H28   S    
C88   O40   A    
C34   C38   A    
C38   C50   S    
C9    C29   A    
C47   O31   A    
C52   H6    S    
C127  H83   S    
Cr4   O4    S    
C128  H87   S    
C81   C97   S    
Cr11  O11   S    
C120  H76   S    
Cr9   O9    S    
C16   O60   S    
Cr1   O21   S    
C27   H47   S    
C91   O47   A    
Cr3   O3    S    
C24   C124  S    
