data_mof_unit_43966.cif
_audit_creation_date              2012-12-11T16:18:02-0500
_audit_creation_method            fapswitch 2.2
_symmetry_space_group_name_H-M    P1
_symmetry_Int_Tables_number       1
_space_group_crystal_system       triclinic
_cell_length_a                    8.230409
_cell_length_b                    15.015655
_cell_length_c                    17.409606
_cell_angle_alpha                 96.982185
_cell_angle_beta                  96.427293
_cell_angle_gamma                 97.784221
_cell_volume                      2097.81645178

loop_
_atom_site_label
_atom_site_type_symbol
_atom_type_description
_atom_site_fract_x
_atom_site_fract_y
_atom_site_fract_z
_atom_type_partial_charge
Ba1   Ba    Ba6+2 0.159600 0.544390 0.464800 1.736134
Ba2   Ba    Ba6+2 0.650570 0.455600 0.535140 1.704774
C1    C     C_3   0.379311 0.764188 0.175978 -0.311431
C2    C     C_R   0.099916 0.077920 0.545673 -0.030767
C3    C     C_R   0.961246 0.890598 0.531054 -0.011851
C4    C     C_3   0.850056 0.766522 0.227967 0.343823
C5    C     C_R   0.115431 0.924251 0.575500 -0.034005
C6    C     C_R   0.184954 0.015294 0.581083 -0.088546
C7    C     C_R   0.895641 0.796139 0.518899 0.049557
C8    C     C_R   0.745914 0.767270 0.470536 -0.183369
C9    C     C_R   0.917385 0.204124 0.479307 0.009854
C10   C     C_R   0.848725 0.110266 0.469900 -0.019608
C11   C     C_R   0.939491 0.047422 0.504364 0.045328
C12   C     C_3   0.394516 0.735829 0.257037 0.439617
C13   C     C_R   0.692947 0.076840 0.426710 0.037738
C14   C     C_R   0.625014 0.985492 0.419878 -0.068607
C15   C     C_R   0.712346 0.922508 0.453290 -0.037736
C16   C     C_3   0.908342 0.859397 0.206367 0.332647
C17   C     C_R   0.871274 0.953391 0.495995 0.077062
C18   C     C_R   0.647122 0.829084 0.443747 -0.034957
C19   C     C_R   0.074705 0.232157 0.521079 -0.299413
C20   C     C_R   0.599513 0.537569 0.281836 -0.282915
C21   C     C_R   0.441854 0.489888 0.256076 0.058042
C22   C     C_R   0.380022 0.478175 0.176200 -0.125089
C23   C     C_3   0.458940 0.751927 0.691167 0.245743
C24   C     C_R   0.479271 0.511441 0.122197 -0.008693
C25   C     C_R   0.642256 0.553242 0.148286 -0.116201
C26   C     C_R   0.701923 0.565944 0.228094 -0.012660
C27   C     C_R   0.417786 0.521686 0.837785 -0.124480
C28   C     C_3   0.738988 0.344353 0.298181 0.324767
C29   C     C_R   0.363886 0.513298 0.757552 0.010793
C30   C     C_R   0.100892 0.428925 0.776929 -0.004603
C31   C     C_R   0.154405 0.437441 0.857228 -0.127002
C32   C     C_R   0.314109 0.482488 0.887744 -0.012483
C33   C     C_1   0.369420 0.491565 0.970640 0.007002
C34   C     C_3   0.471108 0.839145 0.748156 -0.392669
C35   C     C_1   0.417721 0.499904 0.039817 0.027293
C36   C     C_R   0.208399 0.463894 0.727491 -0.243493
C37   C     C_3   0.657034 0.314702 0.214290 -0.276312
C38   C     C_3   0.032950 0.650586 0.701779 0.319775
C39   C     C_3   0.063000 0.671907 0.790329 -0.390098
C40   C     C_3   0.173166 0.260664 0.311482 0.709412
C41   C     C_3   0.219614 0.185729 0.357125 -0.259908
C42   C     C_2   0.524869 0.772615 0.618095 0.558568
C43   C     C_3   0.870506 0.206956 0.694302 0.362053
C44   C     C_3   0.832054 0.110359 0.712388 -0.282111
C45   C     C_3   0.378195 0.260577 0.741044 0.450412
C46   C     C_3   0.328866 0.220078 0.812987 0.274074
C47   C     C_R   0.169415 0.170443 0.551148 0.001881
H1    H     H_    0.302270 0.674628 0.256823 0.080040
H2    H     H_    0.092929 0.300133 0.344418 -0.078228
H3    H     H_    0.253400 0.780476 0.159954 0.144318
H4    H     H_    0.294520 0.142329 0.324220 0.178653
H5    H     H_    0.107824 0.144033 0.369979 0.130729
H6    H     H_    0.296192 0.216396 0.412931 0.036175
H7    H     H_    0.520226 0.718314 0.270373 -0.173836
H8    H     H_    0.401833 0.708045 0.132660 0.053481
H9    H     H_    0.328383 0.722925 0.677446 0.039715
H10   H     H_    0.601798 0.872704 0.762608 0.134947
H11   H     H_    0.395923 0.886937 0.722467 0.084230
H12   H     H_    0.530946 0.277685 0.213341 0.126926
H13   H     H_    0.424123 0.823345 0.803034 0.138455
H14   H     H_    0.471875 0.824923 0.174659 0.116609
H15   H     H_    0.799102 0.890646 0.186306 0.005918
H16   H     H_    0.798341 0.211091 0.637370 0.066789
H17   H     H_    0.004326 0.221058 0.689687 -0.079339
H18   H     H_    0.696448 0.090579 0.709722 0.168948
H19   H     H_    0.877488 0.062816 0.668740 0.018287
H20   H     H_    0.893726 0.104856 0.771346 0.150903
H21   H     H_    0.267381 0.285403 0.714080 -0.262307
H22   H     H_    0.476544 0.320139 0.758583 0.083184
H23   H     H_    0.650300 0.374180 0.183108 0.046898
H24   H     H_    0.248366 0.153532 0.794799 0.029377
H25   H     H_    0.257105 0.266026 0.845229 -0.029413
H26   H     H_    0.790349 0.774962 0.282084 -0.002732
H27   H     H_    0.186598 0.880545 0.605346 0.079807
H28   H     H_    0.305994 0.035925 0.614329 0.096999
H29   H     H_    0.504516 0.964651 0.386154 0.141641
H30   H     H_    0.621041 0.120292 0.396920 0.109995
H31   H     H_    0.698452 0.695479 0.459332 0.090004
H32   H     H_    0.128168 0.302885 0.526514 0.077450
H33   H     H_    0.537675 0.560229 0.861327 0.083632
H34   H     H_    0.727609 0.268693 0.181922 0.225507
H35   H     H_    0.722711 0.575288 0.106849 0.076859
H36   H     H_    0.071719 0.410009 0.895668 0.117902
H37   H     H_    0.758827 0.730267 0.178603 -0.130075
H38   H     H_    0.257526 0.440949 0.156018 0.137056
H39   H     H_    0.647290 0.546255 0.343192 0.062554
H40   H     H_    0.166596 0.457380 0.665597 0.055880
H41   H     H_    0.983912 0.852374 0.157584 -0.003878
H42   H     H_    0.653914 0.379650 0.331395 -0.000291
H43   H     H_    0.854867 0.391456 0.298025 0.056955
H44   H     H_    0.263631 0.197755 0.143865 0.356641
H45   H     H_    0.129697 0.613580 0.680446 -0.065268
H46   H     H_    0.582742 0.840394 0.612011 -0.147927
H47   H     H_    0.581991 0.349517 0.915759 0.312027
H48   H     H_    0.184086 0.989632 0.209417 0.363477
H49   H     H_    0.914658 0.606011 0.685153 0.105433
H50   H     H_    0.189526 0.709311 0.809487 0.100216
H51   H     H_    0.049727 0.608249 0.816768 0.069545
H52   H     H_    0.971241 0.713792 0.811293 0.143608
O1    O     O_2   0.167800 0.722260 0.545390 -0.455477
O2    O     O_2   0.761459 0.433596 0.771007 -0.475384
O3    O     O_3   0.827401 0.267889 0.753890 -0.521527
O4    O     O_3   0.895640 0.608830 0.542800 -0.489470
O5    O     O_3   0.421020 0.453750 0.407550 -0.470203
O6    O     O_2   0.649650 0.543880 0.686730 -0.447502
O7    O     O_3   0.552211 0.692832 0.726080 -0.641179
O8    O     O_2   0.511992 0.173127 0.547226 -0.503943
O9    O     O_3   0.434969 0.194953 0.689873 -0.601005
O10   O     O_3   0.383370 0.666730 0.405950 -0.457270
O11   O     O_2   0.310736 0.827532 0.457067 -0.426825
O12   O     O_3   0.321185 0.311496 0.301001 -0.674966
O13   O     O_3   0.030859 0.731700 0.669766 -0.652564
O14   O     O_3   0.364731 0.807050 0.311334 -0.537585
O15   O     O_2   0.160640 0.456070 0.313250 -0.471075
O16   O     O_3   0.956200 0.620970 0.366040 -0.465970
O17   O     O_2   0.033449 0.552732 0.228033 -0.486322
O18   O     O_2   0.913251 0.151786 0.222801 -0.231906
O19   O     O_2   0.029112 0.288650 0.172017 -0.338792
O20   O     O_3   0.193922 0.152984 0.168244 -0.494406
O21   O     O_2   0.514380 0.711481 0.564401 -0.577046
O22   O     O_2   0.449328 0.184406 0.954041 -0.255229
O23   O     O_3   0.986218 0.720334 0.239072 -0.576272
O24   O     O_2   0.583466 0.128999 0.843093 -0.245998
O25   O     O_3   0.643307 0.301548 0.894936 -0.466679
O26   O     O_2   0.929272 0.006682 0.310917 -0.302113
O27   O     O_2   0.057287 0.881610 0.355956 -0.259564
O28   O     O_3   0.209003 0.976360 0.263415 -0.485554
O29   O     O_2   0.642490 0.277680 0.454580 -0.462086
O30   O     O_3   0.914650 0.391160 0.457140 -0.505691
O31   O     O_3   0.426920 0.333260 0.593990 -0.466235
O32   O     O_3   0.774772 0.267340 0.330492 -0.595806
O33   O     O_3   0.389280 0.546240 0.592390 -0.426380
O34   O     O_3   0.854100 0.379030 0.633890 -0.500078
P1    P     P_3+3 0.994840 0.708040 0.567640 0.997230
P2    P     P_3+3 0.329360 0.428650 0.323990 1.006193
P3    P     P_3+3 0.917486 0.613879 0.264275 0.977553
P4    P     P_3+3 0.815450 0.291950 0.432300 0.994055
P5    P     P_3+3 0.887186 0.378790 0.734910 0.997914
P6    P     P_3+3 0.427534 0.783714 0.405232 1.067384
P7    P     P_3+3 0.478567 0.577520 0.691345 0.987096
P8    P     P_3+3 0.385997 0.216134 0.593796 0.971808
S1    S     S_3+6 0.069780 0.213176 0.216647 -0.041575
S2    S     S_3+6 0.504429 0.206039 0.878090 -0.016589
S3    S     S_3+6 0.026219 0.932398 0.287913 -0.044786

loop_
_geom_bond_atom_site_label_1
_geom_bond_atom_site_label_2
_ccdc_geom_bond_type
C12   H7    S    
O14   P6    S    
O16   P3    S    
O19   S1    D    
C4    O23   S    
C2    C6    A    
C34   H10   S    
O27   S3    D    
C19   C47   A    
C5    C6    A    
C43   C44   S    
C44   H19   S    
C36   H40   S    
C24   C25   A    
Ba2   O33   S    
Ba2   P4    S    
O23   P3    S    
C25   H35   S    
C33   C35   T    
H44   O20   S    
C30   P5    S    
C38   H49   S    
C32   C33   S    
C13   C14   A    
Ba2   O6    S    
C15   C18   A    
Ba1   Ba2   S    
C2    C11   A    
C31   H36   S    
C44   H20   S    
C9    P4    S    
C41   H5    S    
Ba2   O29   S    
C41   H4    S    
C13   H30   S    
O22   S2    D    
C8    C18   A    
C14   C15   A    
Ba2   O31   S    
C21   C22   A    
C39   H50   S    
Ba1   O15   S    
C30   C36   A    
Ba1   P1    S    
C7    C8    A    
C39   H52   S    
C40   H2    S    
O31   P8    S    
C20   C26   A    
O18   S1    D    
O20   S1    S    
C34   H13   S    
O29   P4    D    
C18   P6    S    
C23   C42   S    
O7    P7    S    
O25   S2    S    
Ba2   O30   S    
O34   P5    S    
C37   H12   S    
C4    C16   S    
C38   O13   S    
C11   C17   A    
C16   H41   S    
C46   H25   S    
C4    H26   S    
C26   P3    S    
C28   H43   S    
C38   H45   S    
C3    C5    A    
C8    H31   S    
O5    P2    S    
C23   C34   S    
C34   H11   S    
C27   C32   A    
C9    C19   A    
O3    P5    S    
O11   P6    D    
C45   H21   S    
C3    C7    A    
C43   O3    S    
O33   P7    S    
C40   O12   S    
C45   C46   S    
C10   C13   A    
C37   H23   S    
C28   O32   S    
C46   S2    S    
C31   C32   A    
C39   H51   S    
H47   O25   S    
O8    P8    D    
Ba1   O16   S    
O6    P7    D    
C45   H22   S    
O28   S3    S    
C1    C12   S    
O4    P1    S    
C1    H8    S    
C41   H6    S    
C38   C39   S    
C19   H32   S    
O32   P4    S    
C20   H39   S    
C43   H16   S    
C6    H28   S    
O12   P2    S    
C40   C41   S    
Ba1   O33   S    
C43   H17   S    
Ba1   P2    S    
O15   P2    D    
C46   H24   S    
C21   P2    S    
C22   C24   A    
C28   H42   S    
C16   S3    S    
C1    H3    S    
C24   C35   S    
C5    H27   S    
C3    C17   A    
C1    H14   S    
C45   O9    S    
Ba1   O5    S    
Ba2   O4    S    
Ba2   O34   S    
C4    H37   S    
C29   C36   A    
C2    C47   A    
C30   C31   A    
C29   P7    S    
H48   O28   S    
C44   H18   S    
C27   C29   A    
C42   H46   S    
O24   S2    D    
O2    P5    D    
Ba1   O10   S    
C40   S1    S    
C16   H15   S    
C12   H1    S    
Ba1   O30   S    
C47   P8    S    
C42   O21   D    
C15   C17   A    
Ba2   O5    S    
C28   C37   S    
C14   H29   S    
O9    P8    S    
C22   H38   S    
O1    P1    D    
O30   P4    S    
O10   P6    S    
O26   S3    D    
C37   H34   S    
C7    P1    S    
C27   H33   S    
C10   C11   A    
C23   O7    S    
C23   H9    S    
C25   C26   A    
O13   P1    S    
C20   C21   A    
O17   P3    D    
Ba1   O1    S    
C12   O14   S    
C9    C10   A    
Ba1   O4    S    
