data_mof_unit_52690.cif
_audit_creation_date              2012-12-10T19:06:24-0500
_audit_creation_method            fapswitch 2.2
_symmetry_space_group_name_H-M    P1
_symmetry_Int_Tables_number       1
_space_group_crystal_system       triclinic
_cell_length_a                    23.508164
_cell_length_b                    10.819662
_cell_length_c                    9.542713
_cell_angle_alpha                 89.916472
_cell_angle_beta                  90.218796
_cell_angle_gamma                 90.298525
_cell_volume                      2427.13960956

loop_
_atom_site_label
_atom_site_type_symbol
_atom_type_description
_atom_site_fract_x
_atom_site_fract_y
_atom_site_fract_z
_atom_type_partial_charge
C1    C     C_R   0.500146 0.262373 0.499896 0.805936
C2    C     C_R   0.968841 0.273792 0.535458 -0.257414
C3    C     C_R   0.028438 0.271990 0.539720 0.449271
C4    C     C_R   0.059628 0.382826 0.518120 -0.118941
C5    C     C_R   0.029932 0.494763 0.497472 -0.077064
C6    C     C_R   0.060141 0.606268 0.476864 0.010535
C7    C     C_R   0.030270 0.717003 0.456498 -0.176999
C8    C     C_R   0.971015 0.717672 0.457114 -0.163203
C9    C     C_R   0.119645 0.386178 0.517049 0.553074
C10   C     C_R   0.119701 0.604360 0.477349 0.528613
C11   C     C_R   0.238737 0.509286 0.371910 -0.101988
C12   C     C_R   0.390907 0.499646 0.499784 0.792270
C13   C     C_R   0.298053 0.510099 0.372351 -0.220041
C14   C     C_R   0.328261 0.498733 0.499150 -0.036727
C15   C     C_R   0.298031 0.486131 0.625276 -0.217940
C16   C     C_R   0.238715 0.484741 0.624410 -0.114148
C17   C     C_R   0.208948 0.496488 0.497836 0.359605
C18   C     C_R   0.760144 0.448288 0.383908 -0.094288
C19   C     C_R   0.700836 0.449080 0.384928 -0.175408
C20   C     C_R   0.671495 0.499169 0.499372 -0.027853
C21   C     C_R   0.702383 0.548907 0.612281 -0.219926
C22   C     C_R   0.761678 0.548541 0.610893 -0.094988
C23   C     C_R   0.500119 0.737600 0.499710 0.817370
C24   C     C_R   0.790723 0.498069 0.496850 0.346361
C25   C     C_R   0.522853 0.063439 0.613876 0.148901
C26   C     C_R   0.503338 0.129207 0.497569 -0.151478
C27   C     C_R   0.490135 0.064440 0.374003 -0.223978
C28   C     C_R   0.489827 0.935841 0.374082 -0.223921
C29   C     C_R   0.503290 0.870782 0.497311 -0.085389
C30   C     C_R   0.523033 0.936325 0.613563 0.057385
C31   C     C_3   0.506763 0.928716 0.764404 -0.549772
C32   C     C_3   0.506472 0.069789 0.764714 0.285376
C33   C     C_R   0.534884 0.578688 0.074353 0.121491
C34   C     C_R   0.609012 0.499982 0.500031 0.812606
C35   C     C_R   0.462153 0.430461 0.074153 -0.087347
C36   C     C_R   0.462162 0.430408 0.925288 -0.052359
C37   C     C_R   0.534913 0.578915 0.926501 0.170790
C38   C     C_3   0.598410 0.583173 0.919620 -0.563784
C39   C     C_3   0.598717 0.579128 0.078655 0.280673
C40   C     C_R   0.880660 0.605989 0.477333 0.532830
C41   C     C_R   0.879609 0.387634 0.514575 0.559864
C42   C     C_R   0.939299 0.384708 0.515757 -0.078120
C43   C     C_R   0.969846 0.495596 0.497044 -0.019611
C44   C     C_R   0.940341 0.607453 0.477168 0.000518
Cu1   Cu    Cu3+1 0.500000 0.499980 0.640670 0.960027
Cu2   Cu    Cu3+1 0.500000 0.500020 0.359330 0.942383
H1    H     H_    0.945893 0.187410 0.548011 0.199669
H2    H     H_    0.677978 0.408941 0.297335 0.142524
H3    H     H_    0.680829 0.589881 0.700322 0.152280
H4    H     H_    0.785128 0.587371 0.698386 0.144848
H5    H     H_    0.476995 0.112506 0.279757 0.155696
H6    H     H_    0.476170 0.888042 0.280115 0.151148
H7    H     H_    0.463840 0.887429 0.780040 0.174539
H8    H     H_    0.541095 0.887189 0.829072 0.199308
H9    H     H_    0.463968 0.113086 0.779723 0.064130
H10   H     H_    0.432473 0.371742 0.129825 0.133588
H11   H     H_    0.432498 0.371631 0.869273 0.122886
H12   H     H_    0.616661 0.498093 0.873181 0.200112
H13   H     H_    0.614291 0.670772 0.873108 0.192047
H14   H     H_    0.615566 0.490036 0.118441 0.119037
H15   H     H_    0.052574 0.803580 0.439812 0.194635
H16   H     H_    0.949369 0.804758 0.441384 0.193200
H17   H     H_    0.215846 0.518259 0.273766 0.135899
H18   H     H_    0.320181 0.519999 0.273604 0.155754
H19   H     H_    0.320143 0.476888 0.724483 0.152463
H20   H     H_    0.215802 0.474924 0.722056 0.131894
H21   H     H_    0.782396 0.409082 0.295472 0.141460
N1    N     N_R   0.851682 0.497182 0.495966 -0.470459
N2    N     N_R   0.147990 0.495632 0.497248 -0.476432
N3    N     N_R   0.500360 0.500930 0.147930 -0.199065
N4    N     N_R   0.500360 0.500890 0.852020 -0.162194
O1    O     O_R   0.500000 0.319640 0.618810 -0.565248
O2    O     O_2   0.849661 0.282161 0.533167 -0.531404
O3    O     O_2   0.149709 0.281424 0.534755 -0.491185
O4    O     O_2   0.149252 0.710405 0.458951 -0.536478
O5    O     O_R   0.500010 0.319680 0.381230 -0.594443
O6    O     O_R   0.417880 0.499940 0.618820 -0.589925
O7    O     O_R   0.417880 0.499980 0.381240 -0.585112
O8    O     O_R   0.499990 0.680320 0.618770 -0.573339
O9    O     O_R   0.500000 0.680360 0.381190 -0.584754
O10   O     O_R   0.582120 0.500020 0.618760 -0.576711
O11   O     O_R   0.582120 0.500060 0.381180 -0.571361
O12   O     O_2   0.851760 0.712165 0.458149 -0.527844
O13   O     O_3   0.551361 0.121950 0.843890 -0.538907
C45   C     C_3   0.535341 0.129626 0.985909 0.087845
H22   H     H_    0.532393 0.035712 0.033026 0.126260
H23   H     H_    0.493829 0.177305 0.998446 0.120193
C46   C     C_3   0.580244 0.203689 0.064836 -0.769744
H24   H     H_    0.583565 0.297687 0.018972 0.240094
H25   H     H_    0.568496 0.211571 0.176956 0.212369
H26   H     H_    0.622202 0.157585 0.056891 0.247067
O14   O     O_3   0.055753 0.159925 0.556041 -0.533954
C47   C     C_3   0.054253 0.126124 0.699003 0.081544
H27   H     H_    0.009787 0.108512 0.733881 0.131644
H28   H     H_    0.073780 0.199509 0.765873 0.147983
C48   C     C_3   0.088014 0.007924 0.719770 -0.685208
H29   H     H_    0.132703 0.022213 0.685752 0.273796
H30   H     H_    0.087799 0.981380 0.832218 0.190685
H31   H     H_    0.068671 0.931842 0.657573 0.240709
O15   O     O_3   0.626801 0.680230 0.145998 -0.542632
C49   C     C_3   0.599096 0.795532 0.132862 0.093154
H32   H     H_    0.553915 0.790425 0.165098 0.142076
H33   H     H_    0.601968 0.830706 0.023876 0.133670
C50   C     C_3   0.628396 0.887942 0.229388 -0.728999
H34   H     H_    0.673322 0.901491 0.196971 0.256718
H35   H     H_    0.606137 0.977979 0.224881 0.197963
H36   H     H_    0.627358 0.853568 0.339137 0.251320

loop_
_geom_bond_atom_site_label_1
_geom_bond_atom_site_label_2
_ccdc_geom_bond_type
C17   N2    S    
C49   H32   S    
Cu1   N4    S    
C28   H6    S    
C41   C42   A    
C19   C20   A    
Cu2   O5    S    
C7    C8    A    
Cu1   Cu2   S    
C26   C27   A    
C47   H27   S    
C18   C24   A    
C23   C29   S    
C28   C29   A    
C37   C38   S    
C9    N2    A    
C11   H17   S    
C5    C6    A    
C15   C16   A    
C15   H19   S    
C48   H31   S    
C18   C19   A    
C7    H15   S    
C38   H12   S    
C35   C36   A    
C35   N3    A    
C16   C17   A    
C48   H30   S    
C34   O10   A    
C23   O9    A    
C42   C43   A    
C32   H9    S    
C36   N4    A    
C22   H4    S    
C20   C34   S    
C25   C32   S    
C5    C43   A    
C49   H33   S    
Cu2   O11   S    
C21   C22   A    
C12   O6    A    
Cu1   O1    S    
C40   O12   S    
C21   H3    S    
C50   H34   S    
C27   H5    S    
C41   N1    A    
C45   H23   S    
C38   C39   S    
C32   O13   S    
C1    O1    A    
O13   C45   S    
C36   H11   S    
Cu2   O7    S    
C19   H2    S    
C18   H21   S    
C45   H22   S    
C33   C37   A    
C12   O7    A    
C3    O14   S    
C43   C44   A    
C29   C30   A    
C10   O4    S    
C31   C32   S    
C46   H26   S    
C48   H29   S    
C20   C21   A    
Cu1   O8    S    
C33   C39   S    
C31   H7    S    
C33   N3    A    
C12   C14   S    
C49   C50   S    
C37   N4    A    
C1    C26   S    
C22   C24   A    
C16   H20   S    
C9    O3    S    
C3    C4    A    
C45   C46   S    
C25   C30   A    
C11   C17   A    
C35   H10   S    
C1    O5    A    
Cu1   O10   S    
C8    C44   A    
C46   H25   S    
C4    C5    A    
C6    C10   A    
Cu1   O6    S    
C6    C7    A    
C2    H1    S    
C47   C48   S    
C50   H35   S    
C25   C26   A    
Cu2   O9    S    
C11   C13   A    
C39   O15   S    
C30   C31   S    
C13   H18   S    
C2    C42   A    
C39   H14   S    
O14   C47   S    
C2    C3    A    
C31   H8    S    
Cu2   N3    S    
C24   N1    S    
C41   O2    S    
C38   H13   S    
C10   N2    A    
C40   C44   A    
C46   H24   S    
C47   H28   S    
C40   N1    A    
C27   C28   A    
C14   C15   A    
O15   C49   S    
C34   O11   A    
C23   O8    A    
C4    C9    A    
C13   C14   A    
C50   H36   S    
C8    H16   S    
