data_mof_unit_68062.cif
_audit_creation_date              2012-12-11T14:39:29-0500
_audit_creation_method            fapswitch 2.2
_symmetry_space_group_name_H-M    P1
_symmetry_Int_Tables_number       1
_space_group_crystal_system       triclinic
_cell_length_a                    7.31651
_cell_length_b                    13.617936
_cell_length_c                    17.20354
_cell_angle_alpha                 89.999954
_cell_angle_beta                  95.580977
_cell_angle_gamma                 89.999988
_cell_volume                      1705.96265202

loop_
_atom_site_label
_atom_site_type_symbol
_atom_type_description
_atom_site_fract_x
_atom_site_fract_y
_atom_site_fract_z
_atom_type_partial_charge
O1    O     O_R   0.525340 0.338340 0.164530 -0.562079
O2    O     O_R   0.474660 0.661660 0.835470 -0.571834
O3    O     O_R   0.974660 0.838340 0.835470 -0.562079
O4    O     O_R   0.025340 0.161660 0.164530 -0.571833
O5    O     O_R   0.253520 0.352000 0.336710 -0.490330
O6    O     O_R   0.746480 0.648000 0.663290 -0.498527
O7    O     O_R   0.246480 0.852000 0.663290 -0.490331
O8    O     O_R   0.753520 0.148000 0.336710 -0.498529
O9    O     O_R   0.083330 0.168380 0.337300 -0.500371
O10   O     O_R   0.916670 0.831620 0.662700 -0.495321
O11   O     O_R   0.416670 0.668380 0.662700 -0.500372
O12   O     O_R   0.583330 0.331620 0.337300 -0.495321
C1    C     C_R   0.428958 0.375298 0.359614 0.802334
C2    C     C_R   0.569219 0.627921 0.637335 0.832392
C3    C     C_R   0.071042 0.875298 0.640386 0.802334
C4    C     C_R   0.930781 0.127921 0.362665 0.832392
O13   O     O_R   0.195840 0.349670 0.165140 -0.515793
O14   O     O_R   0.804160 0.650330 0.834860 -0.533413
O15   O     O_R   0.304160 0.849670 0.834860 -0.515793
O16   O     O_R   0.695840 0.150330 0.165140 -0.533410
C5    C     C_R   0.360914 0.371957 0.138962 0.681103
C6    C     C_R   0.639790 0.630635 0.863544 0.700511
C7    C     C_R   0.139086 0.871958 0.861038 0.681103
C8    C     C_R   0.860210 0.130635 0.136456 0.700510
O17   O     O_3   0.387830 0.193120 0.250910 -0.389026
O18   O     O_3   0.612170 0.806880 0.749090 -0.343011
O19   O     O_3   0.112170 0.693120 0.749090 -0.389025
O20   O     O_3   0.887830 0.306880 0.250910 -0.343011
V1    V     V_3+5 0.113010 0.264540 0.250910 1.655730
V2    V     V_3+5 0.886990 0.735460 0.749090 1.600283
V3    V     V_3+5 0.386990 0.764540 0.749090 1.655728
V4    V     V_3+5 0.613010 0.235460 0.250910 1.600281
C9    C     C_R   0.033858 0.211172 0.519169 0.152447
C10   C     C_R   0.970674 0.788259 0.486873 0.141934
C11   C     C_R   0.466143 0.711172 0.480830 0.152444
C12   C     C_R   0.529328 0.288260 0.513127 0.141935
C13   C     C_R   0.107249 0.251524 0.590377 0.189370
C14   C     C_R   0.885708 0.746576 0.418529 0.206026
C15   C     C_R   0.392756 0.751524 0.409620 0.189373
C16   C     C_R   0.614297 0.246577 0.581471 0.206028
C17   C     C_R   0.182953 0.191051 0.649625 0.299695
C18   C     C_R   0.833934 0.805183 0.354863 0.323115
C19   C     C_R   0.317053 0.691051 0.350372 0.299694
C20   C     C_R   0.666074 0.305184 0.645136 0.323115
C21   C     C_R   0.183738 0.089027 0.640696 0.216484
C22   C     C_R   0.874060 0.906020 0.357233 0.183801
C23   C     C_R   0.316265 0.589027 0.359302 0.216479
C24   C     C_R   0.625947 0.406021 0.642766 0.183799
C25   C     C_R   0.090313 0.042877 0.572553 -0.037684
C26   C     C_R   0.939950 0.955407 0.428252 0.011335
C27   C     C_R   0.409688 0.542877 0.427446 -0.037682
C28   C     C_R   0.560053 0.455408 0.571747 0.011336
C29   C     C_R   0.029004 0.105399 0.507204 -0.001178
C30   C     C_R   0.985907 0.894234 0.495800 0.001688
C31   C     C_R   0.470997 0.605400 0.492795 -0.001177
C32   C     C_R   0.514096 0.394234 0.504200 0.001692
C33   C     C_R   0.051052 0.938801 0.568639 -0.009763
C34   C     C_R   0.963112 0.061498 0.433537 -0.004105
C35   C     C_R   0.448948 0.438801 0.431360 -0.009762
C36   C     C_R   0.536889 0.561499 0.566463 -0.004104
C37   C     C_2   0.126304 0.947654 0.923049 0.122621
C38   C     C_2   0.866147 0.062064 0.067779 0.080680
C39   C     C_2   0.373696 0.447653 0.076951 0.122621
C40   C     C_2   0.633853 0.562064 0.932221 0.080691
C41   C     C_2   0.013967 0.937838 0.982736 0.060027
C42   C     C_2   0.021748 0.014560 0.046718 0.097144
C43   C     C_2   0.486034 0.437838 0.017264 0.060026
C44   C     C_2   0.478254 0.514559 0.953282 0.097139
Br1   Br    Br    0.722155 0.741776 0.261070 -0.406996
Br2   Br    Br    0.289581 0.250074 0.745202 -0.409083
Br3   Br    Br    0.777859 0.241778 0.738929 -0.406995
Br4   Br    Br    0.210428 0.750073 0.254794 -0.409084
Br5   Br    Br    0.935358 0.311489 0.446462 -0.400865
Br6   Br    Br    0.072012 0.688697 0.559208 -0.410167
Br7   Br    Br    0.564640 0.811489 0.553537 -0.400868
Br8   Br    Br    0.427990 0.188697 0.440793 -0.410171
Br9   Br    Br    0.114335 0.392923 0.607040 -0.462300
Br10  Br    Br    0.849766 0.605493 0.408793 -0.394727
Br11  Br    Br    0.385678 0.892923 0.392955 -0.462295
Br12  Br    Br    0.650238 0.105494 0.591208 -0.394728
Br13  Br    Br    0.354490 0.026745 0.718383 -0.287722
Br14  Br    Br    0.863840 0.962483 0.256953 -0.639645
Br15  Br    Br    0.145509 0.526745 0.281617 -0.287722
Br16  Br    Br    0.636169 0.462484 0.743047 -0.639643
C45   C     C_3   0.214791 0.029811 0.087088 -0.362065
C46   C     C_3   0.243313 0.974454 0.163972 -0.328190
C47   C     C_3   0.444800 0.961838 0.191460 -0.553710
H1    H     H_    0.527630 0.944869 0.142818 0.237841
H2    H     H_    0.497208 0.029246 0.221204 0.268935
H3    H     H_    0.462618 0.901500 0.234129 0.297000
H4    H     H_    0.181952 0.014545 0.210468 0.263486
H5    H     H_    0.178760 0.901436 0.155000 0.264155
H6    H     H_    0.314183 0.997815 0.049962 0.229174
H7    H     H_    0.255163 0.108217 0.092169 0.210967
C48   C     C_3   0.894941 0.845194 0.987456 -0.346562
C49   C     C_3   0.814189 0.822019 0.065135 -0.237938
C50   C     C_3   0.613695 0.788488 0.050941 -0.616525
H8    H     H_    0.526734 0.847334 0.022161 0.220064
H9    H     H_    0.601923 0.723049 0.013140 0.231355
H10   H     H_    0.558615 0.769684 0.106723 0.289867
H11   H     H_    0.896258 0.762794 0.096309 0.284480
H12   H     H_    0.819063 0.884840 0.105133 0.236742
H13   H     H_    0.780480 0.851578 0.940268 0.226953
H14   H     H_    0.977432 0.779776 0.974156 0.175286
C51   C     C_3   0.285211 0.529809 0.912911 -0.362062
C52   C     C_3   0.256697 0.474453 0.836025 -0.328193
C53   C     C_3   0.055211 0.461833 0.808538 -0.553713
H15   H     H_    0.002787 0.529250 0.778814 0.268934
H16   H     H_    0.037402 0.401514 0.765853 0.297004
H17   H     H_    0.972394 0.444835 0.857177 0.237839
H18   H     H_    0.318054 0.514547 0.789530 0.263486
H19   H     H_    0.321256 0.401436 0.844997 0.264159
H20   H     H_    0.185818 0.497811 0.950035 0.229174
H21   H     H_    0.244837 0.608215 0.907830 0.210967
C54   C     C_3   0.605060 0.345194 0.012544 -0.346560
C55   C     C_3   0.685813 0.322018 0.934866 -0.237940
C56   C     C_3   0.886306 0.288486 0.949061 -0.616523
H22   H     H_    0.973268 0.347333 0.977841 0.220061
H23   H     H_    0.898077 0.223048 0.986864 0.231354
H24   H     H_    0.941385 0.269681 0.893279 0.289867
H25   H     H_    0.603744 0.262794 0.903691 0.284479
H26   H     H_    0.680942 0.384840 0.894868 0.236742
H27   H     H_    0.719521 0.351578 0.059733 0.226953
H28   H     H_    0.522570 0.279776 0.025844 0.175287
Br17  Br    Br    0.646097 0.053463 0.998917 -0.568281
Br18  Br    Br    0.220229 0.075404 0.900600 -0.417816
Br19  Br    Br    0.853906 0.553462 0.001082 -0.568276
Br20  Br    Br    0.279769 0.575404 0.099398 -0.417818

loop_
_geom_bond_atom_site_label_1
_geom_bond_atom_site_label_2
_ccdc_geom_bond_type
C47   H1    S    
O1    C5    A    
C19   Br4   S    
C49   H12   S    
O13   V1    S    
O3    C7    A    
C48   C49   S    
O15   V3    S    
C42   C45   S    
C50   H8    S    
C52   H19   S    
C45   C46   S    
C11   Br7   S    
C26   C30   A    
C55   H26   S    
C40   C44   D    
C51   H20   S    
O20   V1    S    
O9    C4    A    
C14   C18   A    
C46   H4    S    
C56   H23   S    
C11   C15   A    
O4    C8    A    
O11   C2    A    
C52   C53   S    
C54   C55   S    
C25   C33   A    
C55   C56   S    
C20   Br3   S    
C18   C22   A    
C43   C54   S    
C28   C36   A    
C22   Br14  S    
C45   H6    S    
O16   C8    A    
O2    C6    A    
C53   H15   S    
C16   Br12  S    
C37   Br18  S    
O14   V2    S    
C23   Br15  S    
C12   Br8   S    
C16   C20   A    
O5    C1    A    
O4    V1    S    
O9    V1    S    
O17   V4    S    
O7    C3    A    
O11   V3    S    
O18   V3    S    
O8    C4    A    
O14   C6    A    
C31   C36   A    
O12   V4    S    
O19   V2    S    
C3    C33   S    
C50   H9    S    
C48   H13   S    
O5    V1    S    
C52   H18   S    
C9    C29   A    
C39   C43   D    
C54   H27   S    
C55   H25   S    
C38   C42   D    
C11   C31   A    
C43   C44   S    
C26   C34   A    
C51   H21   S    
C12   C16   A    
O7    V3    S    
C56   H24   S    
C46   C47   S    
C23   C27   A    
C14   Br10  S    
C13   Br9   S    
O1    V4    S    
O13   C5    A    
C24   Br16  S    
O2    V3    S    
O8    V4    S    
O3    V2    S    
O15   C7    A    
C12   C32   A    
O6    C2    A    
C45   H7    S    
O10   V2    S    
C41   C48   S    
C40   Br19  S    
C49   C50   S    
C21   C25   A    
C4    C34   S    
C10   Br6   S    
C9    Br5   S    
O6    V2    S    
C10   C30   A    
C47   H2    S    
C53   H17   S    
C27   C35   A    
C44   C51   S    
C50   H10   S    
C48   H14   S    
O16   V4    S    
C7    C37   S    
C8    C38   S    
C54   H28   S    
C10   C14   A    
C21   Br13  S    
C39   Br20  S    
C38   Br17  S    
C15   C19   A    
C29   C34   A    
C1    C35   S    
C2    C36   S    
C51   C52   S    
C22   C26   A    
C32   C35   A    
O10   C3    A    
C46   H5    S    
C56   H22   S    
C53   H16   S    
C28   C32   A    
C25   C29   A    
C27   C31   A    
C18   Br1   S    
C13   C17   A    
C9    C13   A    
C5    C39   S    
C6    C40   S    
C37   C41   D    
C24   C28   A    
O12   C1    A    
C41   C42   S    
C47   H3    S    
C17   C21   A    
C49   H11   S    
C19   C23   A    
C20   C24   A    
C15   Br11  S    
C17   Br2   S    
C30   C33   A    
