data_mof_unit_21068.cif
_audit_creation_date              2012-12-10T19:59:22-0500
_audit_creation_method            fapswitch 2.2
_symmetry_space_group_name_H-M    P1
_symmetry_Int_Tables_number       1
_space_group_crystal_system       triclinic
_cell_length_a                    14.969562
_cell_length_b                    14.15284
_cell_length_c                    10.67551
_cell_angle_alpha                 89.585361
_cell_angle_beta                  90.263838
_cell_angle_gamma                 90.357897
_cell_volume                      2261.60607335

loop_
_atom_site_label
_atom_site_type_symbol
_atom_type_description
_atom_site_fract_x
_atom_site_fract_y
_atom_site_fract_z
_atom_type_partial_charge
C1    C     C_R   0.327935 0.499772 0.499846 0.954474
C2    C     C_R   0.672808 0.500376 0.501091 0.915291
C3    C     C_R   0.191548 0.436837 0.590749 -0.277403
C4    C     C_R   0.814155 0.413870 0.501326 -0.269824
C5    C     C_R   0.099724 0.435362 0.600616 -0.277018
C6    C     C_R   0.905981 0.410967 0.510740 -0.276487
C7    C     C_R   0.049075 0.493573 0.522485 -0.002587
C8    C     C_R   0.953376 0.493786 0.534972 -0.017287
C9    C     C_R   0.427714 0.105128 0.449078 -0.277209
C10   C     C_R   0.571386 0.105129 0.551445 -0.279223
C11   C     C_R   0.429541 0.204455 0.449424 0.017712
C12   C     C_R   0.570193 0.204462 0.550715 0.009908
C13   C     C_R   0.499349 0.053271 0.500456 0.146414
C14   C     C_R   0.541113 0.894487 0.597274 -0.282050
C15   C     C_R   0.456371 0.894887 0.404932 -0.280962
C16   C     C_R   0.540775 0.795196 0.595076 0.037871
C17   C     C_R   0.457461 0.795639 0.406727 0.032342
C18   C     C_R   0.498976 0.946541 0.500843 0.121494
C19   C     C_R   0.502965 0.500394 0.259902 0.879384
C20   C     C_R   0.502146 0.499701 0.739993 0.880110
C21   C     C_R   0.514658 0.586383 0.062628 -0.101003
C22   C     C_R   0.508501 0.584256 0.935458 -0.101595
C23   C     C_R   0.517169 0.501427 0.128886 -0.100257
C24   C     C_R   0.513721 0.499680 0.871295 -0.078784
C25   C     C_R   0.535691 0.416945 0.065966 -0.200887
C26   C     C_R   0.534752 0.416283 0.936274 -0.220759
C27   C     C_3   0.447670 0.668515 0.928026 0.289572
C28   C     C_3   0.455070 0.672353 0.070976 0.235374
C29   C     C_R   0.089438 0.551939 0.431574 0.435565
C30   C     C_R   0.909446 0.579357 0.556286 0.434386
C31   C     C_R   0.182329 0.559617 0.429075 0.320265
C32   C     C_R   0.817950 0.584655 0.533412 0.348846
C33   C     C_R   0.232522 0.498864 0.505866 -0.184549
C34   C     C_R   0.769510 0.500415 0.510787 -0.214399
H1    H     H_    0.545306 0.350876 0.115956 0.168991
H2    H     H_    0.544752 0.350108 0.888084 0.166647
H3    H     H_    0.573338 0.929848 0.674965 0.138031
H4    H     H_    0.423646 0.930496 0.327514 0.156506
H5    H     H_    0.481030 0.729214 0.880503 0.122844
H6    H     H_    0.391705 0.657143 0.121066 0.129868
H7    H     H_    0.230874 0.391362 0.651390 0.175779
H8    H     H_    0.778464 0.348595 0.482801 0.187396
H9    H     H_    0.068099 0.389627 0.669364 0.168370
H10   H     H_    0.940321 0.344926 0.495169 0.170122
H11   H     H_    0.369783 0.069554 0.410376 0.133299
H12   H     H_    0.629081 0.069545 0.590285 0.133239
H13   H     H_    0.374131 0.243209 0.409494 0.130312
H14   H     H_    0.625811 0.243199 0.590620 0.124230
N1    N     N_R   0.500000 0.252470 0.500000 -0.092708
N2    N     N_R   0.500000 0.747550 0.500000 -0.107011
O1    O     O_R   0.369060 0.579480 0.500010 -0.599723
O2    O     O_R   0.630940 0.579480 0.499990 -0.574580
O3    O     O_R   0.369050 0.420520 0.500010 -0.639764
O4    O     O_R   0.630950 0.420520 0.499990 -0.641866
O5    O     O_R   0.499990 0.579490 0.316780 -0.624483
O6    O     O_R   0.500010 0.579490 0.683220 -0.614780
O7    O     O_R   0.499980 0.420540 0.316780 -0.626394
O8    O     O_R   0.500020 0.420540 0.683220 -0.634444
Zn1   Zn    Zn3+2 0.500000 0.606140 0.500000 0.974221
Zn2   Zn    Zn3+2 0.500000 0.393860 0.500000 0.931013
H15   H     H_    0.573728 0.756166 0.669301 0.136601
H16   H     H_    0.424131 0.756727 0.333459 0.174124
O9    O     O_3   0.358854 0.655902 0.880953 -0.601186
C35   C     C_3   0.317246 0.568319 0.910747 0.142936
H17   H     H_    0.337723 0.538563 0.002928 0.123424
H18   H     H_    0.332272 0.516191 0.836742 0.140107
C36   C     C_3   0.216510 0.581849 0.912905 -0.838968
H19   H     H_    0.192816 0.607752 0.820144 0.263415
H20   H     H_    0.182800 0.513532 0.934285 0.199665
H21   H     H_    0.198534 0.633867 0.985899 0.262268
O10   O     O_3   0.493891 0.758991 0.113124 -0.623587
C37   C     C_3   0.588306 0.762655 0.106951 0.132327
H22   H     H_    0.613051 0.741453 0.013212 0.125730
H23   H     H_    0.617842 0.716298 0.180653 0.163711
C38   C     C_3   0.619516 0.863552 0.129546 -0.856298
H24   H     H_    0.599097 0.886876 0.224135 0.265615
H25   H     H_    0.693422 0.867622 0.122689 0.204109
H26   H     H_    0.589827 0.911566 0.058139 0.258897
O11   O     O_3   0.038031 0.605335 0.349831 -0.597700
C39   C     C_3   0.027688 0.555063 0.236971 0.107077
H27   H     H_    0.992432 0.486569 0.253690 0.132691
H28   H     H_    0.093611 0.541499 0.192694 0.165310
C40   C     C_3   0.972059 0.613520 0.145892 -0.856382
H29   H     H_    0.005908 0.682123 0.126602 0.256707
H30   H     H_    0.963722 0.574898 0.056360 0.202741
H31   H     H_    0.905118 0.626954 0.186295 0.241734
O12   O     O_3   0.956998 0.660292 0.586346 -0.591721
C41   C     C_3   0.973361 0.659897 0.716676 0.090300
H32   H     H_    0.008917 0.594692 0.747394 0.132332
H33   H     H_    0.909425 0.665584 0.769022 0.151332
C42   C     C_3   0.032132 0.744195 0.749601 -0.813276
H34   H     H_    0.997922 0.810901 0.723262 0.259000
H35   H     H_    0.045937 0.744319 0.851920 0.207714
H36   H     H_    0.096500 0.740049 0.698590 0.250962
O13   O     O_3   0.223750 0.617982 0.341966 -0.624417
C43   C     C_3   0.215864 0.713370 0.379224 0.153544
H37   H     H_    0.271165 0.731386 0.444713 0.152210
H38   H     H_    0.151563 0.729474 0.426713 0.173740
C44   C     C_3   0.222193 0.777020 0.264128 -0.830682
H39   H     H_    0.165616 0.761931 0.199479 0.263093
H40   H     H_    0.219442 0.852230 0.292694 0.203138
H41   H     H_    0.285825 0.764852 0.214199 0.256098
O14   O     O_3   0.776254 0.671616 0.536633 -0.589164
C45   C     C_3   0.792074 0.718573 0.421301 0.168313
H42   H     H_    0.766011 0.676284 0.341168 0.107038
H43   H     H_    0.864657 0.732372 0.407266 0.193274
C46   C     C_3   0.744880 0.813320 0.420499 -0.836560
H44   H     H_    0.766135 0.855377 0.337579 0.201115
H45   H     H_    0.671687 0.802082 0.415070 0.262646
H46   H     H_    0.761721 0.853378 0.506606 0.263064

loop_
_geom_bond_atom_site_label_1
_geom_bond_atom_site_label_2
_ccdc_geom_bond_type
C15   C18   A    
O12   C41   S    
C9    H11   S    
C7    C29   A    
O5    Zn1   S    
C14   C18   A    
C11   H13   S    
O13   C43   S    
C20   O6    A    
C45   H43   S    
C12   N1    A    
C1    C33   S    
C7    C8    S    
O4    Zn2   S    
C19   O7    A    
N1    Zn2   S    
C13   C18   S    
C40   H29   S    
N2    Zn1   S    
C24   C26   A    
C39   C40   S    
C3    C33   A    
O8    Zn2   S    
C43   C44   S    
C1    O3    A    
C9    C13   A    
C20   C24   S    
C27   H5    S    
C43   H38   S    
C10   H12   S    
C46   H44   S    
C31   C33   A    
C12   H14   S    
C2    C34   S    
C5    H9    S    
C6    H10   S    
C21   C22   A    
C46   H45   S    
C37   C38   S    
C10   C12   A    
C45   H42   S    
O3    Zn2   S    
C4    C34   A    
C36   H19   S    
C35   C36   S    
C37   H23   S    
C4    C6    A    
C2    O4    A    
C42   H34   S    
C5    C7    A    
C37   H22   S    
O7    Zn2   S    
C6    C8    A    
C25   C26   A    
O11   C39   S    
C36   H20   S    
C35   H18   S    
C19   C23   S    
C38   H24   S    
C15   H4    S    
C11   N1    A    
O2    Zn1   S    
C17   H16   S    
C42   H35   S    
C9    C11   A    
C44   H39   S    
C29   O11   S    
C41   C42   S    
C43   H37   S    
C44   H41   S    
C32   O14   S    
C38   H25   S    
C2    O2    A    
C25   H1    S    
C26   H2    S    
C40   H30   S    
C21   C28   S    
C41   H33   S    
C22   C27   S    
C21   C23   A    
C46   H46   S    
C14   C16   A    
C28   O10   S    
O1    Zn1   S    
C16   H15   S    
C20   O8    A    
O14   C45   S    
C19   O5    A    
C15   C17   A    
C3    H7    S    
C44   H40   S    
C16   N2    A    
C39   H27   S    
C3    C5    A    
C10   C13   A    
C17   N2    A    
C1    O1    A    
O6    Zn1   S    
C36   H21   S    
C8    C30   A    
C35   H17   S    
O10   C37   S    
C29   C31   A    
C42   H36   S    
C30   C32   A    
C4    H8    S    
C31   O13   S    
C39   H28   S    
C22   C24   A    
C23   C25   A    
C38   H26   S    
O9    C35   S    
C40   H31   S    
C41   H32   S    
C27   C28   S    
C28   H6    S    
C27   O9    S    
C30   O12   S    
C45   C46   S    
C32   C34   A    
C14   H3    S    
