data_mof_unit_65927.cif
_audit_creation_date              2012-12-10T20:03:59-0500
_audit_creation_method            fapswitch 2.2
_symmetry_space_group_name_H-M    P1
_symmetry_Int_Tables_number       1
_space_group_crystal_system       triclinic
_cell_length_a                    22.344279
_cell_length_b                    26.203972
_cell_length_c                    22.321259
_cell_angle_alpha                 90.004152
_cell_angle_beta                  89.999873
_cell_angle_gamma                 89.959942
_cell_volume                      13069.2917108

loop_
_atom_site_label
_atom_site_type_symbol
_atom_type_description
_atom_site_fract_x
_atom_site_fract_y
_atom_site_fract_z
_atom_type_partial_charge
C1    C     C_R   0.504842 0.889952 0.752702 0.542899
C2    C     C_R   0.998917 0.890272 0.753317 0.533961
C3    C     C_1   0.723289 0.250009 0.749980 -0.009712
C4    C     C_1   0.223295 0.749993 0.250008 -0.020899
C5    C     C_1   0.223294 0.749993 0.749991 -0.021433
C6    C     C_1   0.223295 0.249991 0.750007 -0.021358
C7    C     C_1   0.223295 0.249992 0.249992 -0.020831
C8    C     C_1   0.776698 0.750005 0.749990 -0.013414
C9    C     C_1   0.776702 0.749994 0.250016 -0.010439
C10   C     C_1   0.776701 0.250024 0.250002 -0.010984
C11   C     C_1   0.776700 0.250021 0.749999 -0.012366
C12   C     C_1   0.276704 0.750008 0.249993 -0.020395
C13   C     C_R   0.999139 0.109715 0.753200 0.532718
C14   C     C_1   0.276704 0.750008 0.750008 -0.021029
C15   C     C_1   0.276704 0.250006 0.749992 -0.020932
C16   C     C_1   0.276705 0.250007 0.250009 -0.020362
C17   C     C_R   0.618813 0.552768 0.797554 0.262245
C18   C     C_R   0.604597 0.551706 0.180967 0.265860
C19   C     C_R   0.606629 0.446511 0.186248 0.268838
C20   C     C_R   0.618811 0.445961 0.796221 0.259340
C21   C     C_R   0.571987 0.052678 0.356580 0.267126
C22   C     C_R   0.615276 0.050936 0.687541 0.253340
C23   C     C_R   0.619660 0.944751 0.701283 0.254686
C24   C     C_R   0.997098 0.109875 0.244988 0.540262
C25   C     C_R   0.571784 0.947252 0.356710 0.267188
C26   C     C_R   0.054634 0.552380 0.363030 0.264919
C27   C     C_R   0.060552 0.552449 0.640536 0.265987
C28   C     C_R   0.058632 0.446915 0.640051 0.268094
C29   C     C_R   0.053397 0.446910 0.363444 0.265348
C30   C     C_R   0.071495 0.052300 0.853669 0.270140
C31   C     C_R   0.047716 0.053776 0.130077 0.259998
C32   C     C_R   0.049080 0.946384 0.130807 0.258116
C33   C     C_R   0.069628 0.947004 0.854640 0.272471
C34   C     C_R   0.660584 0.525416 0.831878 -0.145283
C35   C     C_R   0.998188 0.390254 0.746218 0.539089
C36   C     C_R   0.634495 0.523889 0.136169 -0.148740
C37   C     C_R   0.636028 0.471489 0.139119 -0.147187
C38   C     C_R   0.660101 0.472735 0.831299 -0.143548
C39   C     C_R   0.586182 0.025855 0.408688 -0.150362
C40   C     C_R   0.660266 0.021647 0.659000 -0.147667
C41   C     C_R   0.662908 0.970240 0.666065 -0.144887
C42   C     C_R   0.586068 0.974098 0.408763 -0.150444
C43   C     C_R   0.094513 0.525490 0.399847 -0.144514
C44   C     C_R   0.103055 0.525354 0.607295 -0.146161
C45   C     C_R   0.102128 0.473183 0.606805 -0.146234
C46   C     C_R   0.997719 0.390254 0.253916 0.540302
C47   C     C_R   0.093701 0.472986 0.399803 -0.143265
C48   C     C_R   0.118373 0.025161 0.881708 -0.153358
C49   C     C_R   0.080499 0.026399 0.087364 -0.138970
C50   C     C_R   0.081375 0.973826 0.087707 -0.139365
C51   C     C_R   0.117297 0.973260 0.882408 -0.152354
C52   C     C_R   0.034218 0.972505 0.808630 0.027785
C53   C     C_R   0.021893 0.972367 0.181688 0.021057
C54   C     C_R   0.021347 0.027654 0.181606 0.021027
C55   C     C_R   0.034817 0.027351 0.808377 0.027798
C56   C     C_R   0.024059 0.472390 0.313889 0.025129
C57   C     C_R   0.997922 0.609758 0.254019 0.539570
C58   C     C_R   0.027305 0.472407 0.687990 0.026419
C59   C     C_R   0.027672 0.527415 0.688340 0.026121
C60   C     C_R   0.024789 0.527319 0.314160 0.024746
C61   C     C_R   0.538159 0.972356 0.308468 0.023932
C62   C     C_R   0.567481 0.971568 0.725928 0.020219
C63   C     C_R   0.566082 0.027064 0.721602 0.019522
C64   C     C_R   0.538219 0.027580 0.308395 0.023859
C65   C     C_R   0.567859 0.472296 0.770064 0.023330
C66   C     C_R   0.559650 0.472224 0.218922 0.027079
C67   C     C_R   0.559068 0.527124 0.217339 0.026310
C68   C     C_R   0.998282 0.609737 0.746345 0.537691
C69   C     C_R   0.568136 0.527430 0.770700 0.024634
C70   C     C_R   0.517362 0.553943 0.742956 0.027782
C71   C     C_R   0.513342 0.553629 0.252129 0.024399
C72   C     C_R   0.513609 0.446252 0.253366 0.026105
C73   C     C_R   0.500193 0.890315 0.252713 0.522504
C74   C     C_R   0.517267 0.446114 0.742633 0.028507
C75   C     C_R   0.504376 0.053638 0.260757 0.022461
C76   C     C_R   0.515543 0.053437 0.751484 0.024333
C77   C     C_R   0.516461 0.945979 0.754946 0.029523
C78   C     C_R   0.504286 0.946365 0.260787 0.022314
C79   C     C_R   0.994678 0.554042 0.264686 0.027447
C80   C     C_R   0.995729 0.553836 0.735787 0.026541
C81   C     C_R   0.995214 0.446141 0.735860 0.026754
C82   C     C_R   0.994542 0.445908 0.264894 0.028695
C83   C     C_R   0.998884 0.053687 0.763130 0.025323
C84   C     C_R   0.500227 0.109683 0.252690 0.522398
C85   C     C_R   0.993780 0.054027 0.232483 0.028348
C86   C     C_R   0.994089 0.946078 0.232819 0.027542
C87   C     C_R   0.998421 0.946264 0.763316 0.026148
C88   C     C_R   0.473972 0.526311 0.712322 -0.170655
C89   C     C_R   0.472986 0.526451 0.287024 -0.169030
C90   C     C_R   0.472910 0.473726 0.287337 -0.168888
C91   C     C_R   0.473848 0.473751 0.712299 -0.170124
C92   C     C_R   0.471222 0.026130 0.219311 -0.170216
C93   C     C_R   0.471477 0.026317 0.782046 -0.169291
C94   C     C_R   0.471474 0.973840 0.783114 -0.169424
C95   C     C_R   0.504133 0.109797 0.751269 0.530448
C96   C     C_R   0.471198 0.973915 0.219336 -0.170200
C97   C     C_R   0.963551 0.526230 0.221663 -0.167301
C98   C     C_R   0.962609 0.526390 0.777731 -0.168895
C99   C     C_R   0.962554 0.473708 0.777680 -0.168302
C100  C     C_R   0.963391 0.473863 0.221471 -0.168215
C101  C     C_R   0.963977 0.026346 0.722883 -0.168772
C102  C     C_R   0.963957 0.026155 0.276445 -0.168667
C103  C     C_R   0.964188 0.973915 0.276479 -0.168301
C104  C     C_R   0.963812 0.973757 0.722897 -0.168783
C105  C     C_1   0.500003 0.749988 0.526715 -0.018701
C106  C     C_R   0.503476 0.390292 0.251577 0.536857
C107  C     C_1   0.500005 0.749993 0.473283 -0.019176
C108  C     C_1   0.500001 0.250009 0.473286 -0.019014
C109  C     C_1   0.500007 0.250008 0.526712 -0.018766
C110  C     C_1   0.500006 0.249979 0.026716 -0.018587
C111  C     C_1   0.500009 0.249981 0.973284 -0.018430
C112  C     C_1   0.500006 0.750022 0.973287 -0.018163
C113  C     C_1   0.500010 0.750018 0.026713 -0.018361
C114  C     C_1   0.999978 0.750033 0.026717 -0.014388
C115  C     C_1   0.999982 0.750033 0.973285 -0.014748
C116  C     C_1   0.999978 0.249970 0.973288 -0.014982
C117  C     C_R   0.504845 0.390115 0.746977 0.543098
C118  C     C_1   0.999981 0.249964 0.026714 -0.014990
C119  C     C_1   0.999973 0.250037 0.526716 -0.014861
C120  C     C_1   0.999975 0.250040 0.473284 -0.015126
C121  C     C_1   0.999974 0.749966 0.473287 -0.014691
C122  C     C_1   0.999979 0.749963 0.526713 -0.014443
C123  C     C_R   0.500008 0.750020 0.909986 0.508331
C124  C     C_R   0.500006 0.750015 0.090014 0.506993
C125  C     C_R   0.500004 0.249981 0.090024 0.506975
C126  C     C_R   0.500009 0.249984 0.909976 0.507528
C127  C     C_R   0.500001 0.250011 0.409986 0.507289
C128  C     C_R   0.504905 0.609985 0.746982 0.541308
C129  C     C_R   0.500006 0.250015 0.590013 0.507927
C130  C     C_R   0.500005 0.749981 0.590023 0.508857
C131  C     C_R   0.500003 0.749992 0.409976 0.506746
C132  C     C_R   0.999984 0.749992 0.409986 0.517016
C133  C     C_R   0.999985 0.749992 0.590013 0.516572
C134  C     C_R   0.999982 0.250006 0.590024 0.516776
C135  C     C_R   0.999984 0.250013 0.409976 0.517285
C136  C     C_R   0.999988 0.249996 0.909987 0.514317
C137  C     C_R   0.999984 0.249990 0.090014 0.518063
C138  C     C_R   0.999983 0.750006 0.090024 0.517867
C139  C     C_R   0.503231 0.609655 0.251093 0.533418
C140  C     C_R   0.999989 0.750008 0.909977 0.514779
C141  C     C_R   0.340014 0.750004 0.750005 0.507004
C142  C     C_R   0.340015 0.750006 0.249994 0.506956
C143  C     C_R   0.340014 0.250003 0.250007 0.506938
C144  C     C_R   0.340014 0.250005 0.749992 0.507065
C145  C     C_R   0.840013 0.750000 0.250008 0.515229
C146  C     C_R   0.840012 0.750005 0.749992 0.515278
C147  C     C_R   0.840012 0.250008 0.750001 0.515087
C148  C     C_R   0.840013 0.250010 0.249996 0.515413
C149  C     C_R   0.659984 0.749994 0.750006 0.529930
C150  C     C_R   0.997375 0.890191 0.245131 0.539574
C151  C     C_R   0.659986 0.749986 0.250004 0.516084
C152  C     C_R   0.659985 0.250008 0.250019 0.517543
C153  C     C_R   0.659985 0.250005 0.749986 0.524413
C154  C     C_R   0.159986 0.749994 0.250007 0.502619
C155  C     C_R   0.159986 0.749997 0.749994 0.502073
C156  C     C_R   0.159986 0.249994 0.750007 0.502010
C157  C     C_R   0.159987 0.249997 0.249994 0.502796
C158  C     C_1   0.723289 0.749991 0.750006 -0.010804
C159  C     C_1   0.723292 0.749975 0.250000 -0.008770
C160  C     C_1   0.723292 0.250015 0.250020 -0.009712
H1    H     H_    0.437248 0.545302 0.690505 0.151456
H2    H     H_    0.938297 0.545451 0.813127 0.149818
H3    H     H_    0.938162 0.454700 0.813213 0.149528
H4    H     H_    0.940815 0.454735 0.184919 0.150464
H5    H     H_    0.937585 0.045357 0.688829 0.151152
H6    H     H_    0.942355 0.045150 0.313472 0.152270
H7    H     H_    0.942577 0.955012 0.313638 0.152064
H8    H     H_    0.937405 0.954812 0.688817 0.150629
H9    H     H_    0.698240 0.544086 0.853778 0.110455
H10   H     H_    0.665238 0.542530 0.105381 0.109776
H11   H     H_    0.667929 0.451505 0.110715 0.109697
H12   H     H_    0.438836 0.545539 0.313001 0.151960
H13   H     H_    0.697817 0.453011 0.852821 0.112197
H14   H     H_    0.607957 0.044627 0.446410 0.106084
H15   H     H_    0.697222 0.039851 0.634465 0.117550
H16   H     H_    0.702038 0.950001 0.647746 0.120269
H17   H     H_    0.607706 0.955303 0.446551 0.106844
H18   H     H_    0.119905 0.544304 0.434457 0.104634
H19   H     H_    0.130895 0.544408 0.574351 0.102689
H20   H     H_    0.129108 0.453707 0.573587 0.102625
H21   H     H_    0.118826 0.453744 0.434549 0.103664
H22   H     H_    0.149491 0.044256 0.911782 0.102835
H23   H     H_    0.438596 0.454857 0.313325 0.151261
H24   H     H_    0.100247 0.045517 0.048552 0.112088
H25   H     H_    0.101669 0.954490 0.049241 0.111747
H26   H     H_    0.147579 0.953688 0.913040 0.102461
H27   H     H_    0.661738 0.616511 0.816088 0.322358
H28   H     H_    0.652365 0.612397 0.161598 0.322768
H29   H     H_    0.657241 0.385992 0.174814 0.325266
H30   H     H_    0.657963 0.380965 0.813768 0.327046
H31   H     H_    0.619086 0.110510 0.388710 0.317155
H32   H     H_    0.641062 0.111954 0.644504 0.315957
H33   H     H_    0.648211 0.878544 0.677884 0.328272
H34   H     H_    0.436969 0.454989 0.690455 0.150944
H35   H     H_    0.619448 0.889587 0.388748 0.317275
H36   H     H_    0.070935 0.614780 0.408762 0.324058
H37   H     H_    0.077686 0.614150 0.594584 0.322789
H38   H     H_    0.072748 0.385465 0.592512 0.323884
H39   H     H_    0.067108 0.384400 0.409523 0.324787
H40   H     H_    0.088197 0.111335 0.905060 0.318463
H41   H     H_    0.069696 0.118891 0.091963 0.323308
H42   H     H_    0.072993 0.881379 0.093935 0.323011
H43   H     H_    0.083777 0.888143 0.906857 0.319242
H44   H     H_    0.444875 0.045035 0.185245 0.152478
H45   H     H_    0.433902 0.045258 0.803663 0.150235
H46   H     H_    0.433625 0.955304 0.804498 0.148914
H47   H     H_    0.444832 0.955038 0.185258 0.152405
H48   H     H_    0.940815 0.545453 0.185069 0.150825
O1    O     O_3   0.500000 0.750000 0.750000 -0.447835
O2    O     O_R   0.534620 0.865830 0.284610 -0.464790
O3    O     O_R   0.965390 0.134170 0.284610 -0.553001
O4    O     O_R   0.965390 0.365830 0.784610 -0.553935
O5    O     O_R   0.965390 0.365830 0.215390 -0.554053
O6    O     O_R   0.965390 0.634170 0.215390 -0.553900
O7    O     O_R   0.965390 0.634170 0.784610 -0.554384
O8    O     O_3   0.633381 0.602675 0.784771 -0.648541
O9    O     O_3   0.628319 0.598715 0.195740 -0.641925
O10   O     O_3   0.631481 0.401307 0.206695 -0.646441
O11   O     O_3   0.634048 0.396764 0.780487 -0.651017
O12   O     O_3   0.600055 0.099138 0.350548 -0.634478
O13   O     O_R   0.534620 0.134170 0.284610 -0.465404
O14   O     O_3   0.625118 0.102763 0.685222 -0.636198
O15   O     O_3   0.634031 0.895572 0.716020 -0.647263
O16   O     O_3   0.599727 0.900665 0.350837 -0.634461
O17   O     O_3   0.039210 0.601018 0.381781 -0.643166
O18   O     O_3   0.044528 0.600027 0.619397 -0.642407
O19   O     O_3   0.040880 0.399964 0.618568 -0.644914
O20   O     O_3   0.036050 0.398803 0.382242 -0.644458
O21   O     O_3   0.055516 0.098462 0.878506 -0.641196
O22   O     O_3   0.035199 0.104276 0.115686 -0.641520
O23   O     O_3   0.037564 0.895661 0.116346 -0.640140
O24   O     O_R   0.534620 0.134170 0.715390 -0.474550
O25   O     O_3   0.051765 0.901700 0.879819 -0.642284
O26   O     O_R   0.534620 0.365830 0.215390 -0.486169
O27   O     O_R   0.534620 0.365830 0.784610 -0.488368
O28   O     O_R   0.534620 0.634170 0.784610 -0.482539
O29   O     O_R   0.534620 0.634170 0.215390 -0.480080
O30   O     O_R   0.034620 0.865830 0.215390 -0.485130
O31   O     O_R   0.034620 0.865830 0.784610 -0.481694
O32   O     O_R   0.034620 0.134170 0.784610 -0.479461
O33   O     O_3   0.500000 0.750000 0.250000 -0.452040
O34   O     O_R   0.034620 0.134170 0.215390 -0.485843
O35   O     O_R   0.034620 0.365830 0.715390 -0.484275
O36   O     O_R   0.034620 0.365830 0.284610 -0.483834
O37   O     O_R   0.034620 0.634170 0.284610 -0.482646
O38   O     O_R   0.034620 0.634170 0.715390 -0.482602
O39   O     O_R   0.465390 0.780380 0.882040 -0.534516
O40   O     O_R   0.465390 0.780380 0.117960 -0.534297
O41   O     O_R   0.465390 0.219620 0.117960 -0.534137
O42   O     O_R   0.465390 0.219620 0.882040 -0.534379
O43   O     O_R   0.465390 0.280380 0.382040 -0.534914
O44   O     O_3   0.500000 0.250000 0.250000 -0.451334
O45   O     O_R   0.465390 0.280380 0.617960 -0.534247
O46   O     O_R   0.465390 0.719620 0.617960 -0.533568
O47   O     O_R   0.465390 0.719620 0.382040 -0.535038
O48   O     O_R   0.965390 0.780380 0.382040 -0.536485
O49   O     O_R   0.965390 0.780380 0.617960 -0.537342
O50   O     O_R   0.965390 0.219620 0.617960 -0.536603
O51   O     O_R   0.965390 0.219620 0.382040 -0.535898
O52   O     O_R   0.965390 0.280380 0.882040 -0.538658
O53   O     O_R   0.965390 0.280380 0.117960 -0.537960
O54   O     O_R   0.965390 0.719620 0.117960 -0.537985
O55   O     O_3   0.500000 0.250000 0.750000 -0.449715
O56   O     O_R   0.965390 0.719620 0.882040 -0.538232
O57   O     O_R   0.367970 0.780380 0.784610 -0.536534
O58   O     O_R   0.367970 0.780380 0.215390 -0.536177
O59   O     O_R   0.367970 0.219620 0.215390 -0.536022
O60   O     O_R   0.367970 0.219620 0.784610 -0.536119
O61   O     O_R   0.367970 0.280380 0.284610 -0.536398
O62   O     O_R   0.367970 0.280380 0.715390 -0.536265
O63   O     O_R   0.367970 0.719620 0.715390 -0.536101
O64   O     O_R   0.367970 0.719620 0.284610 -0.536166
O65   O     O_R   0.867970 0.780380 0.284610 -0.531234
O66   O     O_3   0.000000 0.750000 0.250000 -0.449525
O67   O     O_R   0.867970 0.780380 0.715390 -0.532289
O68   O     O_R   0.867970 0.219620 0.715390 -0.531333
O69   O     O_R   0.867970 0.219620 0.284610 -0.530837
O70   O     O_R   0.867970 0.280380 0.784610 -0.534179
O71   O     O_R   0.867970 0.280380 0.215390 -0.533295
O72   O     O_R   0.867970 0.719620 0.215390 -0.532637
O73   O     O_R   0.867970 0.719620 0.784610 -0.533833
O74   O     O_R   0.632030 0.780380 0.715400 -0.525226
O75   O     O_R   0.632030 0.780380 0.284600 -0.517624
O76   O     O_R   0.632030 0.219620 0.284600 -0.516691
O77   O     O_3   0.000000 0.750000 0.750000 -0.449713
O78   O     O_R   0.632030 0.219620 0.715400 -0.509372
O79   O     O_R   0.632030 0.280380 0.215400 -0.524012
O80   O     O_R   0.632030 0.280380 0.784600 -0.527637
O81   O     O_R   0.632030 0.719620 0.784600 -0.521085
O82   O     O_R   0.632030 0.719620 0.215400 -0.519950
O83   O     O_R   0.132030 0.780380 0.215400 -0.540794
O84   O     O_R   0.132030 0.780380 0.784600 -0.539435
O85   O     O_R   0.132030 0.219620 0.784600 -0.538987
O86   O     O_R   0.132030 0.219620 0.215400 -0.540567
O87   O     O_R   0.132030 0.280380 0.715400 -0.540559
O88   O     O_3   0.000000 0.250000 0.750000 -0.449899
O89   O     O_R   0.132030 0.280380 0.284600 -0.540154
O90   O     O_R   0.132030 0.719620 0.284600 -0.539944
O91   O     O_R   0.132030 0.719620 0.715400 -0.540545
O92   O     O_R   0.534620 0.719650 0.882050 -0.537835
O93   O     O_R   0.534620 0.719650 0.117950 -0.538626
O94   O     O_R   0.534620 0.280350 0.117950 -0.539768
O95   O     O_R   0.534620 0.280350 0.882050 -0.539963
O96   O     O_R   0.534620 0.219650 0.382050 -0.530118
O97   O     O_R   0.534620 0.219650 0.617950 -0.537202
O98   O     O_R   0.534620 0.780350 0.617950 -0.543162
O99   O     O_3   0.000000 0.250000 0.250000 -0.449193
O100  O     O_R   0.534620 0.780350 0.382050 -0.529761
O101  O     O_R   0.034620 0.719650 0.382050 -0.520682
O102  O     O_R   0.034620 0.719650 0.617950 -0.520169
O103  O     O_R   0.034620 0.280350 0.617950 -0.521703
O104  O     O_R   0.034620 0.280350 0.382050 -0.522417
O105  O     O_R   0.034620 0.219650 0.882050 -0.517323
O106  O     O_R   0.034620 0.219650 0.117950 -0.520996
O107  O     O_R   0.034620 0.780350 0.117950 -0.519970
O108  O     O_R   0.034620 0.780350 0.882050 -0.518477
O109  O     O_R   0.465390 0.865830 0.784610 -0.551793
O110  O     O_R   0.534620 0.865830 0.715390 -0.497435
O111  O     O_R   0.465390 0.865830 0.215390 -0.554227
O112  O     O_R   0.465390 0.134170 0.215390 -0.554188
O113  O     O_R   0.465390 0.134170 0.784610 -0.553636
O114  O     O_R   0.465390 0.365830 0.284610 -0.552423
O115  O     O_R   0.465390 0.365830 0.715390 -0.552659
O116  O     O_R   0.465390 0.634170 0.715390 -0.554135
O117  O     O_R   0.465390 0.634170 0.284610 -0.553004
O118  O     O_R   0.965390 0.865830 0.284610 -0.552669
O119  O     O_R   0.965390 0.865830 0.715390 -0.553887
O120  O     O_R   0.965390 0.134170 0.715390 -0.554021
Zn1   Zn    Zn3+2 0.549450 0.706630 0.799470 0.976151
Zn2   Zn    Zn3+2 0.049450 0.706630 0.700530 0.966493
Zn3   Zn    Zn3+2 0.049450 0.293370 0.700530 0.965849
Zn4   Zn    Zn3+2 0.049450 0.293370 0.299470 0.966707
Zn5   Zn    Zn3+2 0.049450 0.206630 0.799470 0.969802
Zn6   Zn    Zn3+2 0.049450 0.206630 0.200530 0.965541
Zn7   Zn    Zn3+2 0.049450 0.793370 0.200530 0.965402
Zn8   Zn    Zn3+2 0.049450 0.793370 0.799470 0.968782
Zn9   Zn    Zn3+2 0.450550 0.793390 0.799460 0.949900
Zn10  Zn    Zn3+2 0.450550 0.793390 0.200540 0.944637
Zn11  Zn    Zn3+2 0.450550 0.206610 0.200540 0.944701
Zn12  Zn    Zn3+2 0.549450 0.706630 0.200530 0.972235
Zn13  Zn    Zn3+2 0.450550 0.206610 0.799460 0.946523
Zn14  Zn    Zn3+2 0.450550 0.293390 0.299460 0.948812
Zn15  Zn    Zn3+2 0.450550 0.293390 0.700540 0.950433
Zn16  Zn    Zn3+2 0.450550 0.706610 0.700540 0.949726
Zn17  Zn    Zn3+2 0.450550 0.706610 0.299460 0.947672
Zn18  Zn    Zn3+2 0.950550 0.793390 0.299460 0.960058
Zn19  Zn    Zn3+2 0.950550 0.793390 0.700540 0.955891
Zn20  Zn    Zn3+2 0.950550 0.206610 0.700540 0.956603
Zn21  Zn    Zn3+2 0.950550 0.206610 0.299460 0.960690
Zn22  Zn    Zn3+2 0.950550 0.293390 0.799460 0.954464
Zn23  Zn    Zn3+2 0.549450 0.293370 0.200530 0.968824
Zn24  Zn    Zn3+2 0.950550 0.293390 0.200540 0.957464
Zn25  Zn    Zn3+2 0.950550 0.706610 0.200540 0.957473
Zn26  Zn    Zn3+2 0.950550 0.706610 0.799460 0.954441
Zn27  Zn    Zn3+2 0.549450 0.293370 0.799470 0.968182
Zn28  Zn    Zn3+2 0.549450 0.206630 0.299470 0.985123
Zn29  Zn    Zn3+2 0.549450 0.206630 0.700530 0.980100
Zn30  Zn    Zn3+2 0.549450 0.793370 0.700530 0.963877
Zn31  Zn    Zn3+2 0.549450 0.793370 0.299470 0.984469
Zn32  Zn    Zn3+2 0.049450 0.706630 0.299470 0.967680

loop_
_geom_bond_atom_site_label_1
_geom_bond_atom_site_label_2
_ccdc_geom_bond_type
C128  O28   A    
O1    Zn9   S    
C131  O100  A    
C60   C79   A    
O104  Zn4   S    
C139  O29   A    
C1    C77   S    
C32   C53   A    
C62   C77   A    
H30   O11   S    
C114  C115  T    
C95   O113  A    
O118  Zn18  S    
H28   O9    S    
H29   O10   S    
O60   Zn13  S    
O33   Zn10  S    
C84   O13   A    
C131  O47   A    
O1    Zn16  S    
C63   C76   A    
C148  O69   A    
C110  C111  T    
C19   C37   A    
C129  O97   A    
C66   C72   A    
C126  O95   A    
C78   C96   A    
O66   Zn7   S    
C21   O12   S    
C1    O109  A    
O61   Zn14  S    
C136  O52   A    
C24   O34   A    
O66   Zn25  S    
C4    C12   T    
O29   Zn12  S    
C24   C85   S    
C106  O114  A    
C39   H14   S    
C44   H19   S    
C98   H2    S    
O72   Zn25  S    
O3    Zn21  S    
C95   O24   A    
O43   Zn14  S    
O107  Zn7   S    
O6    Zn25  S    
C130  O98   A    
O59   Zn11  S    
C5    C155  S    
C128  O116  A    
O27   Zn27  S    
C157  O86   A    
C144  O62   A    
C49   H24   S    
C134  O50   A    
O88   Zn20  S    
C146  O73   A    
O52   Zn22  S    
C130  O46   A    
C57   O37   A    
C41   H16   S    
C72   C106  S    
O98   Zn30  S    
C17   C34   A    
C55   C83   A    
C10   C160  T    
C133  O102  A    
C79   C97   A    
O65   Zn18  S    
O33   Zn12  S    
O90   Zn32  S    
C59   C80   A    
O62   Zn15  S    
C71   C139  S    
C148  O71   A    
O113  Zn13  S    
C7    C157  S    
C28   C58   A    
C136  O105  A    
C36   H10   S    
C23   C41   A    
O80   Zn27  S    
C120  C135  S    
C125  O41   A    
O13   Zn28  S    
O24   Zn29  S    
C113  C124  S    
O75   Zn31  S    
C116  C118  T    
O92   Zn1   S    
O39   Zn9   S    
O67   Zn19  S    
C132  O48   A    
C90   H23   S    
C98   C99   A    
C157  O89   A    
C43   C47   A    
C10   C148  S    
H42   O23   S    
C43   H18   S    
C103  H7    S    
O28   Zn1   S    
C94   H46   S    
C47   H21   S    
C122  C133  S    
C53   C54   A    
C108  C109  T    
C33   C52   A    
C105  C107  T    
O55   Zn27  S    
C156  O85   A    
C29   C47   A    
C30   C48   A    
C36   C37   A    
O32   Zn5   S    
C86   C150  S    
C75   C84   S    
C26   O17   S    
C154  O83   A    
C92   C96   A    
O47   Zn17  S    
C19   C66   A    
C68   O7    A    
C21   C64   A    
C124  O93   A    
C22   C63   A    
C46   C82   S    
C27   C44   A    
C23   C62   A    
C71   C89   A    
C132  O101  A    
C149  C158  S    
O99   Zn24  S    
H37   O18   S    
O7    Zn26  S    
O91   Zn2   S    
C66   C67   A    
C102  H6    S    
C73   O111  A    
C24   O3    A    
O96   Zn28  S    
C119  C134  S    
O94   Zn23  S    
O54   Zn25  S    
C3    C11   T    
C127  O96   A    
O106  Zn6   S    
O86   Zn6   S    
C65   C74   A    
C151  C159  S    
C124  O40   A    
C35   O4    A    
C72   C90   A    
O26   Zn23  S    
C88   C91   A    
C46   O5    A    
C2    C87   S    
O50   Zn20  S    
C34   H9    S    
C99   H3    S    
O44   Zn11  S    
C129  O45   A    
C109  C129  S    
O116  Zn16  S    
C20   O11   S    
O93   Zn12  S    
C121  C132  S    
O77   Zn19  S    
C97   C100  A    
C33   O25   S    
H27   O8    S    
C40   C41   A    
C83   C101  A    
C156  O87   A    
C143  O61   A    
C8    C146  S    
C142  O58   A    
C23   O15   S    
H31   O12   S    
C37   H11   S    
C56   C82   A    
C105  C130  S    
O37   Zn32  S    
C135  O51   A    
C151  O82   A    
H32   O14   S    
C51   H26   S    
O89   Zn4   S    
O45   Zn15  S    
O77   Zn8   S    
O69   Zn21  S    
C64   C75   A    
C114  C138  S    
C31   C54   A    
C102  C103  A    
O73   Zn26  S    
C154  O90   A    
C49   C50   A    
C140  O56   A    
O42   Zn13  S    
O88   Zn5   S    
C29   O20   S    
C26   C60   A    
C6    C156  S    
C85   C102  A    
C152  O76   A    
O57   Zn9   S    
C137  O53   A    
C4    C154  S    
C139  O117  A    
C155  O84   A    
C46   O36   A    
C8    C158  T    
C138  O107  A    
C144  O60   A    
C17   C69   A    
C22   O14   S    
C30   O21   S    
C84   O112  A    
C69   C70   A    
H35   O16   S    
C117  O27   A    
C2    O119  A    
C155  O91   A    
O95   Zn27  S    
C25   O16   S    
C45   H20   S    
H36   O17   S    
C150  O118  A    
C138  O54   A    
O30   Zn7   S    
O87   Zn3   S    
C17   O8    S    
C106  O26   A    
C92   H44   S    
C52   C55   A    
C134  O103  A    
O103  Zn3   S    
C133  O49   A    
C70   C88   A    
O64   Zn17  S    
O49   Zn19  S    
O70   Zn22  S    
O38   Zn2   S    
C31   C49   A    
C28   O19   S    
O33   Zn31  S    
C39   C42   A    
O111  Zn10  S    
C20   C65   A    
C16   C143  S    
C112  C123  S    
C137  O106  A    
O84   Zn8   S    
C58   C81   A    
C96   H47   S    
O1    Zn1   S    
O77   Zn2   S    
C58   C59   A    
O31   Zn8   S    
O58   Zn10  S    
C56   C60   A    
O66   Zn18  S    
C74   C91   A    
C61   C64   A    
C62   C63   A    
C76   C93   A    
C40   H15   S    
O68   Zn20  S    
C1    O110  A    
C111  C126  S    
C100  H4    S    
C19   O10   S    
O66   Zn32  S    
C101  H5    S    
C5    C14   T    
O46   Zn16  S    
C135  O104  A    
O81   Zn1   S    
C7    C16   T    
C146  O67   A    
C101  C104  A    
O1    Zn30  S    
H40   O21   S    
C147  O70   A    
H38   O19   S    
C80   C98   A    
O115  Zn15  S    
O88   Zn22  S    
C25   C42   A    
O114  Zn14  S    
C119  C120  T    
C116  C136  S    
C29   C56   A    
C33   C51   A    
C81   C99   A    
C30   C55   A    
C13   C83   S    
C126  O42   A    
C68   O38   A    
O99   Zn6   S    
O4    Zn22  S    
O74   Zn30  S    
C11   C147  S    
C65   C69   A    
C9    C145  S    
O44   Zn28  S    
C12   C142  S    
C67   C71   A    
C141  O63   A    
O40   Zn10  S    
C2    O31   A    
C87   C104  A    
H33   O15   S    
C115  C140  S    
O55   Zn29  S    
C153  O78   A    
C77   C94   A    
C27   C59   A    
O101  Zn32  S    
C89   C90   A    
C18   C36   A    
O63   Zn16  S    
O110  Zn30  S    
C68   C80   S    
C48   H22   S    
C152  C160  S    
O100  Zn31  S    
C93   C94   A    
C57   C79   S    
C123  O92   A    
O44   Zn23  S    
C93   H45   S    
C35   C81   S    
C152  O79   A    
O77   Zn26  S    
H43   O25   S    
C76   C95   S    
O97   Zn29  S    
O120  Zn20  S    
C9    C159  T    
C42   H17   S    
C88   H1    S    
C140  O108  A    
C31   O22   S    
O48   Zn18  S    
C3    C153  S    
O56   Zn26  S    
C6    C15   T    
C48   C51   A    
O55   Zn15  S    
C150  O30   A    
C149  O74   A    
C53   C86   A    
C13   O120  A    
C118  C137  S    
O71   Zn24  S    
C127  O43   A    
C147  O68   A    
C32   O23   S    
C97   H48   S    
O102  Zn2   S    
O82   Zn12  S    
O117  Zn17  S    
C86   C103  A    
O33   Zn17  S    
C112  C113  T    
C26   C43   A    
C13   O32   A    
O5    Zn24  S    
C28   C45   A    
C149  O81   A    
O105  Zn5   S    
C73   O2    A    
O99   Zn4   S    
C107  C131  S    
C91   H34   S    
C38   H13   S    
C25   C61   A    
C18   C67   A    
O85   Zn5   S    
O34   Zn6   S    
C141  O57   A    
C145  O65   A    
O2    Zn31  S    
O112  Zn11  S    
C151  O75   A    
C104  H8    S    
C20   C38   A    
C21   C39   A    
C61   C78   A    
C73   C78   S    
C22   C40   A    
C153  O80   A    
C121  C122  T    
O51   Zn21  S    
C32   C50   A    
C75   C92   A    
O99   Zn21  S    
C125  O94   A    
H41   O22   S    
C145  O72   A    
O53   Zn24  S    
H39   O20   S    
C70   C128  S    
C74   C117  S    
O108  Zn8   S    
C34   C38   A    
C82   C100  A    
C52   C87   A    
C44   C45   A    
C89   H12   S    
O35   Zn3   S    
O44   Zn14  S    
C54   C85   A    
C27   O18   S    
C117  O115  A    
O88   Zn3   S    
O109  Zn9   S    
C123  O39   A    
C50   H25   S    
O76   Zn28  S    
O55   Zn13  S    
O79   Zn23  S    
O78   Zn29  S    
O83   Zn7   S    
O36   Zn4   S    
C143  O59   A    
O41   Zn11  S    
C108  C127  S    
C142  O64   A    
C14   C141  S    
C110  C125  S    
C15   C144  S    
O119  Zn19  S    
C57   O6    A    
C18   O9    S    
C35   O35   A    
