data_mof_unit_60024.cif
_audit_creation_date              2012-12-10T20:01:19-0500
_audit_creation_method            fapswitch 2.2
_symmetry_space_group_name_H-M    P1
_symmetry_Int_Tables_number       1
_space_group_crystal_system       monoclinic
_cell_length_a                    18.418107
_cell_length_b                    18.418218
_cell_length_c                    39.703759
_cell_angle_alpha                 90.0
_cell_angle_beta                  90.0
_cell_angle_gamma                 90.059032
_cell_volume                      13468.647794

loop_
_atom_site_label
_atom_site_type_symbol
_atom_type_description
_atom_site_fract_x
_atom_site_fract_y
_atom_site_fract_z
_atom_type_partial_charge
C1    C     C_R   0.500000 0.000000 0.909045 0.853270
C2    C     C_R   0.500000 1.000000 0.800987 -0.045510
C3    C     C_R   0.744311 0.690424 0.023163 0.563461
C4    C     C_R   0.309576 0.255689 0.023163 0.563490
C5    C     C_R   0.265045 0.680960 0.015675 0.555601
C6    C     C_R   0.690423 0.744311 0.023163 0.563486
C7    C     C_R   0.734948 0.319048 0.015666 0.555596
C8    C     C_R   0.819129 0.234870 0.515583 0.555563
C9    C     C_R   0.755693 0.809580 0.523160 0.563508
C10   C     C_R   0.180881 0.765120 0.515593 0.555569
C11   C     C_R   0.244306 0.190420 0.523160 0.563504
C12   C     C_R   0.809580 0.755693 0.523160 0.563521
C13   C     C_R   0.500000 1.000000 0.301000 -0.045501
C14   C     C_R   0.765130 0.180872 0.515584 0.555570
C15   C     C_R   0.190419 0.244307 0.523160 0.563525
C16   C     C_R   0.234879 0.819119 0.515594 0.555576
C17   C     C_3   0.136156 0.804637 0.964077 0.565853
C18   C     C_3   0.209935 0.150796 0.952105 0.545121
C19   C     C_3   0.863857 0.195350 0.964092 0.565867
C20   C     C_3   0.790064 0.849204 0.952105 0.545104
C21   C     C_3   0.150795 0.209937 0.952105 0.544895
C22   C     C_3   0.195362 0.863843 0.964077 0.565822
C23   C     C_3   0.849205 0.790063 0.952105 0.544914
C24   C     C_R   0.000000 0.500000 0.300994 -0.045495
C25   C     C_3   0.804650 0.136144 0.964091 0.565838
C26   C     C_3   0.636006 0.304787 0.464243 0.566025
C27   C     C_3   0.709925 0.650786 0.452111 0.544715
C28   C     C_3   0.363978 0.695229 0.464225 0.566011
C29   C     C_3   0.290075 0.349214 0.452111 0.544738
C30   C     C_3   0.650785 0.709927 0.452111 0.544600
C31   C     C_3   0.695212 0.363993 0.464243 0.566008
C32   C     C_3   0.349216 0.290074 0.452111 0.544576
C33   C     C_3   0.304771 0.636023 0.464225 0.565991
C34   C     C_R   0.012005 0.435427 0.818521 -0.241479
C35   C     C_1   1.000000 0.500000 0.764944 0.051287
C36   C     C_R   0.564741 0.988927 0.818511 -0.241544
C37   C     C_R   0.987995 0.564573 0.818521 -0.241480
C38   C     C_R   0.435259 0.011073 0.818511 -0.241544
C39   C     C_R   0.512488 0.935519 0.318526 -0.241430
C40   C     C_R   0.064598 0.488112 0.318520 -0.241473
C41   C     C_R   0.487511 0.064481 0.318526 -0.241429
C42   C     C_R   0.935402 0.511888 0.318520 -0.241473
C43   C     C_R   0.012064 0.435083 0.853663 0.578188
C44   C     C_R   0.565087 0.988869 0.853652 0.578286
C45   C     C_R   0.987936 0.564917 0.853663 0.578187
C46   C     C_1   0.500000 1.000000 0.764937 0.051294
C47   C     C_R   0.434912 0.011131 0.853652 0.578286
C48   C     C_R   0.512548 0.935176 0.353668 0.578147
C49   C     C_R   0.064942 0.488053 0.353661 0.578216
C50   C     C_R   0.487452 0.064824 0.353668 0.578148
C51   C     C_R   0.935058 0.511947 0.353661 0.578217
C52   C     C_1   0.500000 1.000000 0.264948 0.051289
C53   C     C_1   1.000000 0.500000 0.264943 0.051293
C54   C     C_1   0.500000 1.000000 0.234701 -0.046593
C55   C     C_1   1.000000 0.500000 0.234697 -0.046596
C56   C     C_1   0.000000 0.500000 0.734698 -0.046601
C57   C     C_R   0.000000 0.500000 0.909048 0.853793
C58   C     C_1   0.500000 1.000000 0.734692 -0.046604
C59   C     C_R   0.500197 0.934209 0.181101 -0.142997
C60   C     C_R   0.065792 0.499806 0.181099 -0.143003
C61   C     C_R   0.499802 0.065791 0.181101 -0.142998
C62   C     C_R   0.934208 0.500194 0.181099 -0.143003
C63   C     C_R   0.000196 0.434208 0.681100 -0.143001
C64   C     C_R   0.565793 0.999809 0.681096 -0.143007
C65   C     C_R   0.999804 0.565792 0.681099 -0.143000
C66   C     C_R   0.434207 0.000191 0.681096 -0.143007
C67   C     C_R   0.500195 0.934121 0.145960 -0.153397
C68   C     C_R   1.000000 0.500000 0.409047 0.853790
C69   C     C_R   0.065879 0.499808 0.145959 -0.153401
C70   C     C_R   0.499805 0.065879 0.145960 -0.153399
C71   C     C_R   0.934121 0.500192 0.145959 -0.153404
C72   C     C_R   0.000194 0.434121 0.645959 -0.153417
C73   C     C_R   0.565880 0.999811 0.645956 -0.153424
C74   C     C_R   0.999806 0.565879 0.645959 -0.153414
C75   C     C_R   0.434120 0.000189 0.645956 -0.153421
C76   C     C_R   0.500000 0.000000 0.128047 -0.024431
C77   C     C_R   1.000000 0.500000 0.128046 -0.024420
C78   C     C_R   1.000000 0.500000 0.628046 -0.024396
C79   C     C_R   0.500000 0.000000 0.409049 0.854149
C80   C     C_R   0.500000 1.000000 0.628044 -0.024383
C81   C     C_R   0.500000 1.000000 0.198652 0.131952
C82   C     C_R   1.000000 0.500000 0.198649 0.131965
C83   C     C_R   1.000000 0.500000 0.698650 0.131968
C84   C     C_R   0.500000 1.000000 0.698645 0.131985
C85   C     C_R   0.500000 0.000000 0.090923 0.788867
C86   C     C_R   1.000000 0.500000 0.090922 0.788868
C87   C     C_R   1.000000 0.500000 0.590922 0.788871
C88   C     C_R   0.500000 1.000000 0.590921 0.788878
C89   C     C_R   0.639916 0.860015 0.000123 0.900644
C90   C     C_R   0.000000 0.500000 0.871757 -0.301474
C91   C     C_R   0.140285 0.639605 0.999894 0.903007
C92   C     C_R   0.360084 0.139985 0.000123 0.900643
C93   C     C_R   0.859714 0.360395 0.999894 0.903023
C94   C     C_R   0.639605 0.140285 0.999894 0.903045
C95   C     C_R   0.139985 0.360084 0.000123 0.900778
C96   C     C_R   0.360395 0.859715 0.999894 0.903030
C97   C     C_R   0.860015 0.639916 0.000123 0.900776
C98   C     C_R   0.139917 0.360015 0.500123 0.900860
C99   C     C_R   0.640287 0.139604 0.499893 0.903172
C100  C     C_R   0.860083 0.639985 0.500123 0.900861
C101  C     C_R   0.500000 1.000000 0.871750 -0.301749
C102  C     C_R   0.359713 0.860396 0.499893 0.903153
C103  C     C_R   0.139604 0.640287 0.499893 0.903165
C104  C     C_R   0.639985 0.860084 0.500123 0.900949
C105  C     C_R   0.860396 0.359713 0.499892 0.903184
C106  C     C_R   0.360015 0.139916 0.500123 0.900950
C107  C     C_R   0.241457 0.810387 0.982366 -0.188072
C108  C     C_R   0.193386 0.245201 0.979500 -0.158298
C109  C     C_R   0.758545 0.189611 0.982368 -0.188105
C110  C     C_R   0.806614 0.754799 0.979500 -0.158307
C111  C     C_R   0.245200 0.193386 0.979500 -0.158369
C112  C     C_R   0.500000 0.000000 0.371760 -0.301322
C113  C     C_R   0.189613 0.758543 0.982366 -0.188107
C114  C     C_R   0.754800 0.806614 0.979500 -0.158360
C115  C     C_R   0.810389 0.241455 0.982368 -0.188137
C116  C     C_R   0.741425 0.310419 0.482394 -0.188379
C117  C     C_R   0.693380 0.745194 0.479504 -0.158063
C118  C     C_R   0.258573 0.689584 0.482391 -0.188343
C119  C     C_R   0.306621 0.254806 0.479504 -0.158051
C120  C     C_R   0.745193 0.693380 0.479504 -0.158094
C121  C     C_R   0.689580 0.258575 0.482394 -0.188399
C122  C     C_R   0.254806 0.306620 0.479504 -0.158107
C123  C     C_R   0.000000 0.500000 0.371756 -0.301530
C124  C     C_R   0.310417 0.741428 0.482392 -0.188364
C125  C     C_R   0.306907 0.802094 0.999207 -0.258440
C126  C     C_R   0.195934 0.304899 0.000780 -0.273913
C127  C     C_R   0.693091 0.197908 0.999205 -0.258410
C128  C     C_R   0.804066 0.695101 0.000780 -0.273914
C129  C     C_R   0.304899 0.195934 0.000780 -0.273925
C130  C     C_R   0.197906 0.693093 0.999208 -0.258452
C131  C     C_R   0.695101 0.804066 0.000780 -0.273924
C132  C     C_R   0.802092 0.306909 0.999206 -0.258422
C133  C     C_R   0.806926 0.302075 0.499188 -0.258181
C134  C     C_R   0.000000 0.500000 0.800995 -0.045507
C135  C     C_R   0.695933 0.804898 0.500781 -0.273959
C136  C     C_R   0.193077 0.697922 0.499190 -0.258216
C137  C     C_R   0.304067 0.195102 0.500781 -0.273957
C138  C     C_R   0.804898 0.695933 0.500781 -0.273965
C139  C     C_R   0.697924 0.193074 0.499188 -0.258188
C140  C     C_R   0.195102 0.304067 0.500780 -0.273967
C141  C     C_R   0.302078 0.806923 0.499190 -0.258224
C142  C     C_R   0.319041 0.734956 0.015674 0.555588
C143  C     C_R   0.255689 0.309576 0.023163 0.563457
C144  C     C_R   0.680951 0.265052 0.015666 0.555583
F1    F     F_    0.382520 0.721076 0.031829 -0.560698
F2    F     F_    0.762668 0.865770 0.545077 -0.558520
F3    F     F_    0.117343 0.779051 0.531689 -0.560697
F4    F     F_    0.237331 0.134229 0.545077 -0.558522
F5    F     F_    0.865771 0.762668 0.545077 -0.558520
F6    F     F_    0.779067 0.117328 0.531673 -0.560701
F7    F     F_    0.134228 0.237332 0.545077 -0.558518
F8    F     F_    0.220948 0.882655 0.531689 -0.560697
F9    F     F_    0.077260 0.821912 0.984201 -0.498068
F10   F     F_    0.185157 0.084262 0.963588 -0.498646
F11   F     F_    0.922740 0.178087 0.984225 -0.498094
F12   F     F_    0.262659 0.365761 0.045083 -0.558572
F13   F     F_    0.814843 0.915738 0.963588 -0.498669
F14   F     F_    0.084260 0.185160 0.963588 -0.498714
F15   F     F_    0.178088 0.922739 0.984200 -0.498067
F16   F     F_    0.915740 0.814840 0.963588 -0.498693
F17   F     F_    0.821913 0.077261 0.984225 -0.498093
F18   F     F_    0.577241 0.321933 0.484473 -0.498348
F19   F     F_    0.685149 0.584252 0.463596 -0.498967
F20   F     F_    0.422757 0.678068 0.484443 -0.498318
F21   F     F_    0.314852 0.415748 0.463597 -0.498940
F22   F     F_    0.584250 0.685151 0.463596 -0.498972
F23   F     F_    0.617466 0.278937 0.031815 -0.560702
F24   F     F_    0.678066 0.422757 0.484473 -0.498348
F25   F     F_    0.415750 0.314849 0.463597 -0.498999
F26   F     F_    0.321932 0.577244 0.484443 -0.498317
F27   F     F_    0.024696 0.371281 0.869738 -0.625518
F28   F     F_    0.629087 0.977205 0.869719 -0.625212
F29   F     F_    0.975304 0.628719 0.869738 -0.625516
F30   F     F_    0.370913 0.022795 0.869719 -0.625210
F31   F     F_    0.525683 0.871482 0.369749 -0.625701
F32   F     F_    0.128773 0.475541 0.369736 -0.625489
F33   F     F_    0.474317 0.128518 0.369749 -0.625704
F34   F     F_    0.737341 0.634239 0.045083 -0.558570
F35   F     F_    0.871227 0.524459 0.369736 -0.625491
F36   F     F_    0.365762 0.262658 0.045083 -0.558569
F37   F     F_    0.278925 0.617481 0.031829 -0.560697
F38   F     F_    0.634238 0.737342 0.045083 -0.558570
F39   F     F_    0.721062 0.382532 0.031815 -0.560701
F40   F     F_    0.882673 0.220933 0.531673 -0.560702
H1    H     H_    0.500354 0.882548 0.132863 0.192293
H2    H     H_    0.242815 0.148079 0.928671 0.028431
H3    H     H_    0.878379 0.216670 0.938789 0.036677
H4    H     H_    0.757185 0.851921 0.928671 0.028431
H5    H     H_    0.148078 0.242817 0.928671 0.028971
H6    H     H_    0.216697 0.878350 0.938775 0.037006
H7    H     H_    0.851922 0.757184 0.928671 0.028971
H8    H     H_    0.783331 0.121622 0.938789 0.037035
H9    H     H_    0.621334 0.283615 0.438933 0.036678
H10   H     H_    0.742802 0.648065 0.428676 0.029018
H11   H     H_    0.378631 0.716419 0.438915 0.036642
H12   H     H_    0.117453 0.499652 0.132861 0.192295
H13   H     H_    0.257199 0.351935 0.428676 0.029017
H14   H     H_    0.648065 0.742803 0.428676 0.029360
H15   H     H_    0.716384 0.378665 0.438932 0.036908
H16   H     H_    0.351936 0.257198 0.428676 0.029361
H17   H     H_    0.283581 0.621370 0.438915 0.036871
H18   H     H_    0.021467 0.385239 0.804972 0.189673
H19   H     H_    0.615064 0.980199 0.804961 0.189691
H20   H     H_    0.978533 0.614761 0.804972 0.189674
H21   H     H_    0.384936 0.019801 0.804961 0.189691
H22   H     H_    0.522332 0.885404 0.304978 0.189660
H23   H     H_    0.499646 0.117452 0.132863 0.192291
H24   H     H_    0.114806 0.478742 0.304970 0.189671
H25   H     H_    0.477668 0.114596 0.304978 0.189660
H26   H     H_    0.885194 0.521258 0.304970 0.189671
H27   H     H_    0.500353 0.883038 0.194571 0.155580
H28   H     H_    0.116962 0.499653 0.194569 0.155575
H29   H     H_    0.499647 0.116961 0.194571 0.155579
H30   H     H_    0.883038 0.500347 0.194569 0.155574
H31   H     H_    0.000350 0.383038 0.694569 0.155572
H32   H     H_    0.616962 0.999659 0.694566 0.155564
H33   H     H_    0.999650 0.616962 0.694569 0.155572
H34   H     H_    0.882547 0.500348 0.132861 0.192293
H35   H     H_    0.383037 0.000341 0.694566 0.155565
H36   H     H_    0.000351 0.382548 0.632862 0.192268
H37   H     H_    0.617453 0.999658 0.632859 0.192272
H38   H     H_    0.999649 0.617452 0.632862 0.192271
H39   H     H_    0.382547 0.000342 0.632859 0.192275
H40   H     H_    0.121649 0.783302 0.938775 0.036647
O1    O     O_3   0.500000 0.000000 0.000020 -0.559087
O2    O     O_R   0.500000 0.939230 0.425200 -0.590548
O3    O     O_R   0.060770 0.500000 0.425200 -0.590400
O4    O     O_R   0.500000 0.060770 0.425200 -0.590550
O5    O     O_R   0.500000 0.939250 0.074840 -0.627740
O6    O     O_R   0.060750 0.500000 0.074840 -0.627751
O7    O     O_R   0.500000 0.060750 0.074840 -0.627744
O8    O     O_R   0.939250 0.500000 0.074840 -0.627755
O9    O     O_R   1.000000 0.439250 0.574840 -0.627787
O10   O     O_R   0.560750 0.000000 0.574840 -0.627797
O11   O     O_R   0.000000 0.560750 0.574840 -0.627782
O12   O     O_3   1.000000 0.500000 0.000020 -0.559065
O13   O     O_R   0.439250 0.000000 0.574840 -0.627793
O14   O     O_R   0.646140 0.914530 0.980400 -0.610013
O15   O     O_R   0.085470 0.646140 0.980400 -0.622696
O16   O     O_R   0.353860 0.085470 0.980400 -0.610011
O17   O     O_R   0.914530 0.353860 0.980400 -0.622705
O18   O     O_R   0.646140 0.085470 0.980400 -0.622503
O19   O     O_R   0.085470 0.353860 0.980400 -0.609851
O20   O     O_R   0.353860 0.914530 0.980400 -0.622495
O21   O     O_R   0.914530 0.646140 0.980400 -0.609849
O22   O     O_R   0.146140 0.414530 0.480400 -0.609908
O23   O     O_3   0.000000 0.500000 0.500020 -0.559051
O24   O     O_R   0.585470 0.146140 0.480400 -0.622918
O25   O     O_R   0.853860 0.585470 0.480400 -0.609910
O26   O     O_R   0.414530 0.853860 0.480400 -0.622907
O27   O     O_R   0.146140 0.585470 0.480400 -0.622777
O28   O     O_R   0.585470 0.853860 0.480400 -0.609804
O29   O     O_R   0.853860 0.414530 0.480400 -0.622788
O30   O     O_R   0.414530 0.146140 0.480400 -0.609807
O31   O     O_R   0.414550 0.146130 0.019630 -0.574109
O32   O     O_R   0.853870 0.414550 0.019630 -0.577956
O33   O     O_R   0.585450 0.853870 0.019630 -0.574111
O34   O     O_3   0.500000 0.000000 0.500020 -0.559037
O35   O     O_R   0.146130 0.585450 0.019630 -0.577953
O36   O     O_R   0.414550 0.853870 0.019630 -0.577981
O37   O     O_R   0.853870 0.585450 0.019630 -0.574137
O38   O     O_R   0.585450 0.146130 0.019630 -0.577984
O39   O     O_R   0.146130 0.414550 0.019630 -0.574139
O40   O     O_R   0.914550 0.646130 0.519630 -0.574102
O41   O     O_R   0.353870 0.914550 0.519630 -0.577968
O42   O     O_R   0.085450 0.353870 0.519630 -0.574100
O43   O     O_R   0.646130 0.085450 0.519630 -0.577973
O44   O     O_R   0.914550 0.353870 0.519630 -0.577990
O45   O     O_R   0.439230 0.000000 0.925200 -0.590199
O46   O     O_R   0.353870 0.085450 0.519630 -0.574121
O47   O     O_R   0.085450 0.646130 0.519630 -0.577986
O48   O     O_R   0.646130 0.914550 0.519630 -0.574118
O49   O     O_R   0.000000 0.439230 0.925200 -0.590420
O50   O     O_R   0.560770 0.000000 0.925200 -0.590200
O51   O     O_R   0.000000 0.560770 0.925200 -0.590419
O52   O     O_R   0.939230 0.500000 0.425200 -0.590401
Zn1   Zn    Zn3+2 0.500000 0.913220 0.028040 1.072891
Zn2   Zn    Zn3+2 1.000000 0.586730 0.971990 1.048669
Zn3   Zn    Zn3+2 0.413270 0.000000 0.971990 1.048697
Zn4   Zn    Zn3+2 0.000000 0.413270 0.971990 1.048663
Zn5   Zn    Zn3+2 0.086730 0.500000 0.471990 1.048647
Zn6   Zn    Zn3+2 0.500000 0.086730 0.471990 1.048621
Zn7   Zn    Zn3+2 0.913270 0.500000 0.471990 1.048641
Zn8   Zn    Zn3+2 0.500000 0.913270 0.471990 1.048628
Zn9   Zn    Zn3+2 0.086780 0.500000 0.028040 1.072918
Zn10  Zn    Zn3+2 0.500000 0.086780 0.028040 1.072892
Zn11  Zn    Zn3+2 0.913220 0.500000 0.028040 1.072918
Zn12  Zn    Zn3+2 1.000000 0.413220 0.528040 1.072961
Zn13  Zn    Zn3+2 0.586780 0.000000 0.528040 1.072978
Zn14  Zn    Zn3+2 0.000000 0.586780 0.528040 1.072960
Zn15  Zn    Zn3+2 0.413220 0.000000 0.528040 1.072977
Zn16  Zn    Zn3+2 0.586730 0.000000 0.971990 1.048692

loop_
_geom_bond_atom_site_label_1
_geom_bond_atom_site_label_2
_ccdc_geom_bond_type
O34   Zn15  S    
C40   H24   S    
C104  C135  S    
C18   C21   S    
C19   F11   S    
O11   Zn14  S    
C105  O29   A    
C17   F9    S    
C15   F7    S    
C105  O44   A    
C97   O21   A    
C22   F15   S    
C126  C143  A    
C28   H11   S    
C51   C123  A    
C21   F14   S    
C96   O20   A    
C11   C15   A    
C109  C127  A    
C100  O40   A    
O21   Zn2   S    
C102  C141  S    
C22   H6    S    
C97   O37   A    
C48   F31   S    
C95   O39   A    
O44   Zn12  S    
C62   H30   S    
C33   F26   S    
C35   C134  S    
C13   C41   A    
C57   C90   S    
C85   O5    A    
C18   C111  S    
O46   Zn15  S    
C116  C133  A    
O32   Zn11  S    
C44   F28   S    
C66   H35   S    
C45   F29   S    
O1    Zn16  S    
C29   C122  S    
O16   Zn3   S    
C118  C124  A    
C45   C90   A    
C60   H28   S    
C7    C132  A    
O34   Zn13  S    
C5    C130  A    
C94   O38   A    
C28   C33   S    
C67   H1    S    
C36   C44   A    
C120  C138  A    
O8    Zn11  S    
C37   C45   A    
C117  C135  A    
C1    C101  S    
C118  C136  A    
C56   C83   S    
C105  C133  S    
C23   C110  S    
O14   Zn16  S    
C89   O14   A    
C25   H8    S    
C87   O9    A    
C44   C101  A    
C73   H37   S    
C89   C131  S    
C108  C111  A    
C7    F39   S    
C103  O27   A    
C80   C88   S    
C10   C16   A    
C65   H33   S    
O36   Zn1   S    
O23   Zn14  S    
O5    Zn1   S    
C47   F30   S    
C92   O31   A    
C32   H16   S    
O41   Zn15  S    
O12   Zn9   S    
C108  C126  A    
O50   Zn16  S    
C76   C85   S    
C54   C81   S    
O29   Zn7   S    
C110  C128  A    
O37   Zn11  S    
C78   C87   S    
O33   Zn1   S    
O39   Zn9   S    
C69   C77   A    
C85   O7    A    
C3    C6    A    
C93   O32   A    
C17   C113  S    
C94   C127  S    
O31   Zn10  S    
C71   H34   S    
C6    F38   S    
O12   Zn2   S    
C11   F4    S    
O9    Zn12  S    
C1    O45   A    
C34   C134  A    
C40   C49   A    
O15   Zn2   S    
C9    F2    S    
O22   Zn5   S    
O10   Zn13  S    
C72   C78   A    
C27   F19   S    
C21   H5    S    
C107  C113  A    
C25   F17   S    
C64   C73   A    
O7    Zn10  S    
C26   C121  S    
C93   C132  S    
C110  C114  A    
C18   F10   S    
C25   C109  S    
C33   C118  S    
C46   C58   T    
C99   C139  S    
C61   H29   S    
C97   C128  S    
C51   F35   S    
C68   C123  S    
C59   H27   S    
C115  C132  A    
C72   H36   S    
O49   Zn4   S    
C113  C130  A    
C144  F23   S    
O51   Zn2   S    
C107  C125  A    
C100  O25   A    
O13   Zn15  S    
O12   Zn11  S    
C43   F27   S    
C3    C128  A    
C106  C137  S    
C70   H23   S    
O20   Zn3   S    
C65   C74   A    
C103  O47   A    
C103  C136  S    
C48   C112  A    
O48   Zn13  S    
C20   H4    S    
C2    C38   A    
O18   Zn16  S    
C20   C23   S    
C27   H10   S    
C31   F24   S    
C1    O50   A    
O30   Zn6   S    
O38   Zn10  S    
C12   C138  A    
C124  C141  A    
C32   C119  S    
C9    C135  A    
C79   O4    A    
C71   C77   A    
C92   O16   A    
C30   H14   S    
C35   C56   T    
O12   Zn4   S    
C34   C43   A    
O23   Zn12  S    
C28   C124  S    
C57   O49   A    
C86   O8    A    
O1    Zn10  S    
C121  C139  A    
C16   C141  A    
C122  C140  A    
C93   O17   A    
C95   C126  S    
C5    C142  A    
C60   C69   A    
C98   O42   A    
O6    Zn9   S    
C37   H20   S    
C62   C71   A    
C9    C12   A    
C21   C108  S    
C91   O35   A    
O42   Zn12  S    
C64   C84   A    
O1    Zn1   S    
C37   C134  A    
O34   Zn8   S    
C61   C70   A    
C32   F25   S    
C38   H21   S    
C24   C42   A    
C114  C131  A    
C106  O30   A    
C142  F1    S    
C31   H15   S    
C27   C120  S    
C79   C112  S    
C104  O28   A    
C3    F34   S    
C98   O22   A    
C29   C32   S    
C49   C123  A    
C39   H22   S    
O45   Zn3   S    
O27   Zn5   S    
C29   F21   S    
O23   Zn7   S    
C19   H3    S    
C111  C129  A    
C102  O41   A    
C36   H19   S    
C79   O2    A    
C42   H26   S    
C62   C82   A    
O17   Zn4   S    
C4    F36   S    
O3    Zn5   S    
C5    F37   S    
C57   O51   A    
C43   C90   A    
C86   O6    A    
C50   F33   S    
C116  C121  A    
C117  C120  A    
C24   C53   S    
C26   F18   S    
C63   C83   A    
C104  O48   A    
C13   C52   S    
C96   O36   A    
C14   F6    S    
O1    Zn3   S    
O34   Zn6   S    
C100  C138  S    
C30   C117  S    
C20   F13   S    
C41   C50   A    
C15   C140  A    
O4    Zn6   S    
O25   Zn7   S    
O26   Zn8   S    
C12   F5    S    
C59   C81   A    
C6    C131  A    
O19   Zn4   S    
C4    C129  A    
C88   O10   A    
C74   H38   S    
C17   C22   S    
C92   C129  S    
C11   C137  A    
O23   Zn5   S    
C20   C114  S    
C66   C75   A    
C127  C144  A    
C63   C72   A    
C74   C78   A    
C61   C81   A    
C63   H31   S    
C26   H9    S    
C49   F32   S    
C22   C107  S    
C39   C48   A    
C47   C101  A    
C4    C143  A    
C23   H7    S    
C68   O3    A    
C91   C130  S    
C2    C46   S    
C99   O43   A    
C10   C136  A    
O28   Zn8   S    
C65   C83   A    
O35   Zn9   S    
C60   C82   A    
C75   C80   A    
O47   Zn14  S    
C10   F3    S    
C59   C67   A    
C8    F40   S    
C75   H39   S    
C26   C31   S    
C27   C30   S    
C7    C144  A    
C52   C54   T    
C53   C55   T    
C119  C137  A    
O43   Zn13  S    
C89   O33   A    
C30   F22   S    
C16   F8    S    
C87   O11   A    
C18   H2    S    
C69   H12   S    
C98   C140  S    
C58   C84   S    
C68   O52   A    
C19   C115  S    
C125  C142  A    
C23   F16   S    
C50   C112  A    
O40   Zn14  S    
C55   C82   S    
C38   C47   A    
C77   C86   S    
C106  O46   A    
C29   H13   S    
C70   C76   A    
C31   C116  S    
C28   F20   S    
C119  C122  A    
C2    C36   A    
C8    C14   A    
C8    C133  A    
C102  O26   A    
C64   H32   S    
O52   Zn7   S    
C42   C51   A    
C94   O18   A    
C41   H25   S    
C17   H40   S    
C143  F12   S    
C88   O13   A    
C33   H17   S    
C24   C40   A    
C73   C80   A    
C96   C125  S    
C19   C25   S    
O2    Zn8   S    
C13   C39   A    
C109  C115  A    
C66   C84   A    
C34   H18   S    
C14   C139  A    
C91   O15   A    
O24   Zn6   S    
C67   C76   A    
C99   O24   A    
C95   O19   A    
