data_mof_unit_34137.cif
_audit_creation_date              2012-12-10T16:53:31-0500
_audit_creation_method            fapswitch 2.2
_symmetry_space_group_name_H-M    P1
_symmetry_Int_Tables_number       1
_space_group_crystal_system       triclinic
_cell_length_a                    8.174909
_cell_length_b                    8.62335
_cell_length_c                    13.59657
_cell_angle_alpha                 101.72295
_cell_angle_beta                  75.772303
_cell_angle_gamma                 92.056417
_cell_volume                      909.612262967

loop_
_atom_site_label
_atom_site_type_symbol
_atom_type_description
_atom_site_fract_x
_atom_site_fract_y
_atom_site_fract_z
_atom_type_partial_charge
C1    C     C_R   0.543011 0.793147 0.498452 0.917249
C2    C     C_1   0.574334 0.492939 0.115947 0.003095
C3    C     C_2   0.566089 0.955676 0.496975 -0.371428
C4    C     C_2   0.433911 0.044324 0.503025 -0.371428
C5    C     C_R   0.018744 0.338057 0.375389 0.246499
C6    C     C_R   0.905560 0.263704 0.316057 -0.116383
C7    C     C_R   0.954644 0.176388 0.214542 -0.208856
C8    C     C_R   0.122973 0.143538 0.168686 -0.082375
C9    C     C_R   0.237597 0.187849 0.228144 -0.200393
C10   C     C_R   0.184052 0.275098 0.329658 -0.138039
C11   C     C_R   0.981256 0.661943 0.624611 0.246499
C12   C     C_R   0.456989 0.206853 0.501547 0.917249
C13   C     C_R   0.094439 0.736296 0.683943 -0.116383
C14   C     C_R   0.045356 0.823612 0.785458 -0.208856
C15   C     C_R   0.877027 0.856462 0.831314 -0.082375
C16   C     C_R   0.762403 0.812151 0.771856 -0.200393
C17   C     C_R   0.815948 0.724902 0.670342 -0.138039
C18   C     C_R   0.466092 0.504330 0.687582 0.849879
C19   C     C_R   0.533908 0.495670 0.312418 0.849879
C20   C     C_1   0.562235 0.493406 0.205294 -0.158772
C21   C     C_1   0.437765 0.506594 0.794706 -0.158772
C22   C     C_2   0.573705 0.494144 0.011670 -0.169207
C23   C     C_2   0.426295 0.505855 0.988329 -0.169207
C24   C     C_1   0.425666 0.507061 0.884053 0.003095
H1    H     H_    0.307430 0.514003 0.046700 0.168854
H2    H     H_    0.224150 0.741045 0.655314 0.199326
H3    H     H_    0.139595 0.870562 0.826947 0.132623
H4    H     H_    0.837313 0.925367 0.909323 0.130086
H5    H     H_    0.631612 0.849933 0.802963 0.129742
H6    H     H_    0.720762 0.721464 0.634246 0.198839
H7    H     H_    0.692570 0.485997 0.953300 0.168854
H8    H     H_    0.692999 0.002061 0.490563 0.191993
H9    H     H_    0.307001 0.997939 0.509437 0.191993
H10   H     H_    0.775850 0.258955 0.344686 0.199326
H11   H     H_    0.860405 0.129438 0.173053 0.132624
H12   H     H_    0.162687 0.074633 0.090676 0.130086
H13   H     H_    0.368388 0.150067 0.197036 0.129742
H14   H     H_    0.279238 0.278536 0.365754 0.198839
N1    N     N_2   0.954190 0.457600 0.473930 -0.107497
N2    N     N_2   0.045810 0.542400 0.526070 -0.107497
O1    O     O_R   0.388300 0.738660 0.506400 -0.639100
O2    O     O_R   0.611700 0.261340 0.493600 -0.639100
O3    O     O_R   0.679920 0.711490 0.489690 -0.642093
O4    O     O_R   0.320080 0.288510 0.510310 -0.642093
O5    O     O_R   0.333200 0.515510 0.649910 -0.630305
O6    O     O_R   0.666800 0.484490 0.350090 -0.630305
O7    O     O_R   0.624820 0.488340 0.633200 -0.616231
O8    O     O_R   0.375180 0.511660 0.366800 -0.616231
Zn1   Zn    Zn3+2 0.305280 0.518140 0.511160 0.912492
Zn2   Zn    Zn3+2 0.694720 0.481860 0.488840 0.912492

loop_
_geom_bond_atom_site_label_1
_geom_bond_atom_site_label_2
_ccdc_geom_bond_type
O4    Zn1   S    
C2    C22   S    
C23   C24   S    
O3    Zn2   S    
C6    C7    A    
C14   H3    S    
C4    C12   S    
C18   C21   S    
C9    C10   A    
O6    Zn2   S    
C19   C20   S    
O5    Zn1   S    
C10   H14   S    
C18   O7    A    
C9    H13   S    
C19   O6    A    
C5    C10   A    
C12   O4    A    
C13   C14   A    
C17   H6    S    
C11   C13   A    
C15   H4    S    
C11   N2    S    
O2    Zn2   S    
C5    C6    A    
O1    Zn1   S    
O8    Zn1   S    
O7    Zn2   S    
C5    N1    S    
C3    H8    S    
C13   H2    S    
C16   C17   A    
C22   H7    S    
C2    C20   T    
C15   C16   A    
C18   O5    A    
C6    H10   S    
C7    C8    A    
N1    Zn2   S    
C23   H1    S    
C8    H12   S    
C21   C24   T    
C1    O1    A    
N1    N2    D    
C4    H9    S    
C11   C17   A    
C12   O2    A    
C19   O8    A    
C16   H5    S    
C14   C15   A    
C7    H11   S    
C1    O3    A    
C22   C23   D    
C3    C4    D    
N2    Zn1   S    
C8    C9    A    
C1    C3    S    
