data_mof_unit_26614.cif
_audit_creation_date              2012-10-26T20:31:38-0400
_audit_creation_method            fapswitch 2.2
_symmetry_space_group_name_H-M    P1
_symmetry_Int_Tables_number       1
_space_group_crystal_system       triclinic
_cell_length_a                    15.893524
_cell_length_b                    10.824144
_cell_length_c                    9.560808
_cell_angle_alpha                 89.932602
_cell_angle_beta                  90.249497
_cell_angle_gamma                 90.312299
_cell_volume                      1644.74093977

loop_
_atom_site_label
_atom_site_type_symbol
_atom_type_description
_atom_site_fract_x
_atom_site_fract_y
_atom_site_fract_z
_atom_type_partial_charge
C1    C     C_R   0.498515 0.262444 0.500227 0.554152
C2    C     C_R   0.489475 0.129547 0.501242 -0.028322
C3    C     C_R   0.463795 0.066435 0.380240 -0.106115
C4    C     C_R   0.340323 0.499914 0.499808 0.559964
C5    C     C_R   0.461361 0.937549 0.378055 0.210217
C6    C     C_R   0.486654 0.870826 0.498922 0.017286
C7    C     C_R   0.499577 0.935994 0.623254 0.004462
C8    C     C_3   0.569087 0.927767 0.728549 -0.265738
C9    C     C_3   0.570200 0.068141 0.729917 -0.252181
C10   C     C_R   0.545493 0.586364 0.074144 0.162478
C11   C     C_R   0.447449 0.424297 0.073698 0.200124
C12   C     C_3   0.950877 0.432535 0.636805 0.011540
C13   C     C_R   0.447665 0.424740 0.924619 -0.001712
C14   C     C_R   0.546843 0.584623 0.927108 0.185560
C15   C     C_3   0.640555 0.603740 0.926497 -0.062576
C16   C     C_R   0.496725 0.737616 0.499489 0.561075
C17   C     C_3   0.637668 0.610452 0.085474 -0.262536
C18   C     C_R   0.659626 0.500252 0.500233 0.543025
C19   C     C_3   0.049683 0.434072 0.638203 0.117666
C20   C     C_3   0.048613 0.430170 0.373704 -0.198866
C21   C     C_3   0.950763 0.440802 0.363818 0.306182
C22   C     C_1   0.749023 0.500845 0.501011 0.018011
C23   C     C_3   0.916755 0.501638 0.503170 0.123587
C24   C     C_3   0.083076 0.500067 0.503975 0.024411
C25   C     C_3   0.951011 0.638354 0.511952 -0.067563
C26   C     C_3   0.049881 0.636093 0.498768 -0.021919
C27   C     C_1   0.824410 0.501340 0.501943 0.055841
C28   C     C_1   0.175399 0.499995 0.500957 0.041676
C29   C     C_1   0.250831 0.499960 0.499623 0.039947
C30   C     C_R   0.500579 0.062972 0.624640 0.019609
Cl1   Cl    Cl    0.428584 0.867437 0.220230 -0.595020
Cl2   Cl    Cl    0.097830 0.285219 0.664947 -0.631960
Cl3   Cl    Cl    0.905826 0.289427 0.334564 -0.596144
Cu1   Cu    Cu3+1 0.500000 0.499980 0.640670 0.990285
Cu2   Cu    Cu3+1 0.500000 0.500020 0.359330 1.033933
H1    H     H_    0.070534 0.488044 0.730947 0.146518
H2    H     H_    0.660209 0.691314 0.874901 0.137947
H3    H     H_    0.672569 0.535143 0.138820 0.170834
H4    H     H_    0.651250 0.704526 0.126519 0.132739
H5    H     H_    0.078688 0.467147 0.277249 0.098120
H6    H     H_    0.067725 0.331622 0.379445 0.216729
H7    H     H_    0.065971 0.673580 0.393545 0.141257
H8    H     H_    0.921758 0.281510 0.758641 0.257407
H9    H     H_    0.942862 0.243703 0.592826 0.332994
H10   H     H_    0.330378 0.365505 0.118587 0.226553
H11   H     H_    0.402923 0.252956 0.109542 0.208652
H12   H     H_    0.930500 0.486498 0.729753 0.152612
H13   H     H_    0.750625 0.509418 0.900475 0.234526
H14   H     H_    0.667157 0.415997 0.929423 0.242800
H15   H     H_    0.964728 0.593949 0.231999 0.189333
H16   H     H_    0.937542 0.464746 0.150029 0.269238
H17   H     H_    0.075117 0.694326 0.703067 0.266121
H18   H     H_    0.079465 0.807484 0.580627 0.260458
H19   H     H_    0.857734 0.696745 0.646853 0.228762
H20   H     H_    0.937101 0.795022 0.631302 0.251105
H21   H     H_    0.925105 0.692673 0.422824 0.141839
H22   H     H_    0.448333 0.116592 0.285845 0.170658
H23   H     H_    0.547502 0.886664 0.828897 0.167294
H24   H     H_    0.627335 0.886739 0.684836 0.128891
H25   H     H_    0.549257 0.107932 0.831026 0.156449
H26   H     H_    0.629064 0.108887 0.686917 0.152820
H27   H     H_    0.406663 0.362202 0.867785 0.134499
N1    N     N_R   0.500530 0.500930 0.147930 -0.198021
N2    N     N_R   0.500530 0.500890 0.852020 -0.239274
N3    N     N_3   0.913088 0.309242 0.654728 -0.575358
N4    N     N_3   0.392026 0.342337 0.146212 -0.555081
N5    N     N_3   0.686959 0.495814 0.876760 -0.579688
N6    N     N_3   0.926522 0.515573 0.241095 -0.605577
N7    N     N_3   0.093853 0.715043 0.601108 -0.609857
N8    N     N_3   0.923302 0.700804 0.640461 -0.665279
O1    O     O_R   0.500000 0.319640 0.618810 -0.504304
O2    O     O_R   0.500010 0.319680 0.381230 -0.482074
O3    O     O_R   0.379430 0.499990 0.618840 -0.497771
O4    O     O_R   0.379440 0.500030 0.381260 -0.461082
O5    O     O_R   0.499990 0.680320 0.618770 -0.509562
O6    O     O_R   0.500000 0.680360 0.381190 -0.446674
O7    O     O_R   0.620560 0.499970 0.618740 -0.461541
O8    O     O_R   0.620570 0.500010 0.381160 -0.516383

loop_
_geom_bond_atom_site_label_1
_geom_bond_atom_site_label_2
_ccdc_geom_bond_type
Cu2   O4    S    
C16   O5    A    
C10   N1    A    
C25   H21   S    
H18   N7    S    
C20   H6    S    
C7    C8    S    
C12   C23   S    
C1    O1    A    
C9    H26   S    
C28   C29   T    
C24   C26   S    
H11   N4    S    
C11   N1    A    
C19   H1    S    
C8    H24   S    
C5    C6    A    
C20   H5    S    
C21   Cl3   S    
C10   C17   S    
Cu1   Cu2   S    
C17   H4    S    
C15   H2    S    
H17   N7    S    
C8    H23   S    
C13   H27   S    
C20   C24   S    
C8    C9    S    
C23   C27   S    
C4    O4    A    
C4    C29   S    
C11   N4    S    
C18   O8    A    
Cu1   O5    S    
H16   N6    S    
C14   N2    A    
C7    C30   A    
C18   C22   S    
H9    N3    S    
C12   H12   S    
C19   Cl2   S    
Cu2   O6    S    
C1    O2    A    
C10   C14   A    
C25   C26   S    
H19   N8    S    
H8    N3    S    
C15   N5    S    
Cu1   N2    S    
C4    O3    A    
C9    C30   S    
C3    H22   S    
Cu2   O2    S    
C22   C27   T    
C21   C23   S    
C21   N6    S    
C26   H7    S    
C15   C17   S    
H14   N5    S    
C16   O6    A    
C24   C28   S    
C3    C5    A    
C6    C7    A    
C12   N3    S    
Cu2   O8    S    
C2    C30   A    
C9    H25   S    
C2    C3    A    
Cu1   O7    S    
C11   C13   A    
C13   N2    A    
C18   O7    A    
C1    C2    S    
C12   C19   S    
C19   C24   S    
C17   H3    S    
C23   C25   S    
H13   N5    S    
H20   N8    S    
Cu1   O3    S    
C6    C16   S    
C20   C21   S    
H10   N4    S    
C26   N7    S    
C14   C15   S    
Cu2   N1    S    
C25   N8    S    
H15   N6    S    
Cu1   O1    S    
C5    Cl1   S    
