data_mof_unit_29482.cif
_audit_creation_date              2012-12-11T14:07:20-0500
_audit_creation_method            fapswitch 2.2
_symmetry_space_group_name_H-M    P1
_symmetry_Int_Tables_number       1
_space_group_crystal_system       triclinic
_cell_length_a                    19.672569
_cell_length_b                    16.941242
_cell_length_c                    15.484823
_cell_angle_alpha                 89.816575
_cell_angle_beta                  53.541111
_cell_angle_gamma                 89.722545
_cell_volume                      4150.65441266

loop_
_atom_site_label
_atom_site_type_symbol
_atom_type_description
_atom_site_fract_x
_atom_site_fract_y
_atom_site_fract_z
_atom_type_partial_charge
C1    C     C_R   0.338498 0.172744 0.053803 -0.076043
C2    C     C_R   0.377437 0.801323 0.993466 -0.149080
C3    C     C_R   0.838499 0.672746 0.053800 -0.076046
C4    C     C_R   0.877437 0.301324 0.993466 -0.149074
C5    C     C_R   0.632154 0.894122 0.106860 -0.158491
C6    C     C_R   0.669411 0.081772 0.051023 -0.149881
C7    C     C_R   0.132157 0.394122 0.106856 -0.158481
C8    C     C_R   0.169411 0.581772 0.051023 -0.149907
C9    C     C_R   0.711257 0.145530 0.981879 0.127270
C10   C     C_R   0.647254 0.814623 0.078548 0.148141
C11   C     C_R   0.211257 0.645530 0.981879 0.127272
C12   C     C_R   0.147262 0.314626 0.078537 0.148166
C13   C     C_R   0.681458 0.850960 0.676496 -0.025574
C14   C     C_R   0.611199 0.184118 0.695605 -0.089551
C15   C     C_R   0.181447 0.350950 0.676495 -0.025559
C16   C     C_R   0.111200 0.684117 0.695604 -0.089548
C17   C     C_3   0.254050 0.198195 0.460693 -0.422081
C18   C     C_3   0.178555 0.862288 0.504239 -0.407100
C19   C     C_3   0.754053 0.698178 0.460726 -0.422028
C20   C     C_3   0.678557 0.362291 0.504241 -0.407095
C21   C     C_3   0.198360 0.237698 0.569403 -0.407312
C22   C     C_3   0.118828 0.813576 0.607468 -0.401663
C23   C     C_3   0.698369 0.737690 0.569429 -0.407353
C24   C     C_3   0.618830 0.313580 0.607471 -0.401666
C25   C     C_3   0.379022 0.234675 0.461362 -0.181582
C26   C     C_3   0.306397 0.785659 0.462041 -0.150969
C27   C     C_3   0.879044 0.734706 0.461329 -0.181580
C28   C     C_3   0.806398 0.285655 0.462038 -0.150977
C29   C     C_3   0.833463 0.822762 0.369477 -0.362288
C30   C     C_3   0.719689 0.236696 0.399056 -0.383168
C31   C     C_3   0.333499 0.322773 0.369474 -0.362258
C32   C     C_3   0.219695 0.736693 0.399054 -0.383173
C33   C     C_3   0.343285 0.236054 0.393986 0.327892
C34   C     C_3   0.255181 0.810852 0.418398 0.313432
C35   C     C_3   0.843278 0.736054 0.393989 0.327876
C36   C     C_3   0.755180 0.310852 0.418398 0.313428
C37   C     C_3   0.742659 0.811884 0.572845 0.374502
C38   C     C_3   0.659368 0.231747 0.596325 0.355342
C39   C     C_3   0.242654 0.311879 0.572844 0.374540
C40   C     C_3   0.159369 0.731746 0.596324 0.355339
C41   C     C_3   0.826069 0.791033 0.557960 -0.396475
C42   C     C_3   0.748748 0.241438 0.568137 -0.400996
C43   C     C_3   0.326053 0.291011 0.557981 -0.396499
C44   C     C_3   0.248748 0.741441 0.568140 -0.401000
C45   C     C_R   0.351785 0.826271 0.217114 -0.099950
C46   C     C_R   0.401438 0.200501 0.204836 -0.108346
C47   C     C_R   0.851785 0.326271 0.217114 -0.099947
C48   C     C_R   0.901432 0.700500 0.204838 -0.108327
C49   C     C_3   0.768648 0.865482 0.475247 -0.416965
C50   C     C_3   0.667940 0.187912 0.501828 -0.371903
C51   C     C_3   0.268668 0.365488 0.475245 -0.417033
C52   C     C_3   0.167947 0.687909 0.501826 -0.371904
C53   C     C_2   0.283776 0.684557 0.964541 -0.253563
C54   C     C_2   0.190565 0.258847 0.102629 -0.273550
C55   C     C_2   0.783776 0.184557 0.964541 -0.253548
C56   C     C_2   0.690556 0.758844 0.102640 -0.273540
C57   C     C_2   0.822395 0.245807 0.896541 0.031966
C58   C     C_2   0.702611 0.681724 0.073738 0.029459
C59   C     C_2   0.322395 0.745807 0.896541 0.031970
C60   C     C_2   0.202613 0.181726 0.073736 0.029430
C61   C     C_R   0.368893 0.886828 0.893311 -0.131792
C62   C     C_R   0.326763 0.085110 0.957584 -0.118326
C63   C     C_R   0.868893 0.386828 0.893311 -0.131797
C64   C     C_R   0.826763 0.585111 0.957583 -0.118303
C65   C     C_R   0.410389 0.109223 0.300520 -0.165296
C66   C     C_R   0.358727 0.919720 0.313970 -0.165834
C67   C     C_R   0.910382 0.609221 0.300524 -0.165291
C68   C     C_R   0.858727 0.419720 0.313970 -0.165830
C69   C     C_R   0.284029 0.145432 0.033153 0.057771
C70   C     C_R   0.352215 0.809629 0.928538 0.095828
C71   C     C_R   0.784030 0.645434 0.033150 0.057765
C72   C     C_R   0.852215 0.309629 0.928538 0.095831
C73   C     C_R   0.311896 0.856449 0.319499 -0.012528
C74   C     C_R   0.393449 0.187525 0.297831 -0.010664
C75   C     C_R   0.811895 0.356449 0.319499 -0.012531
C76   C     C_R   0.893436 0.687522 0.297837 -0.010747
C77   C     C_R   0.660477 0.178008 0.956287 -0.059871
C78   C     C_R   0.621415 0.799304 0.015388 -0.094138
C79   C     C_R   0.160477 0.678008 0.956287 -0.059875
C80   C     C_R   0.121425 0.299306 0.015375 -0.094237
C81   C     C_R   0.640530 0.818353 0.779979 -0.006149
C82   C     C_R   0.600105 0.199597 0.791524 -0.005636
C83   C     C_R   0.140517 0.318341 0.779979 -0.006200
C84   C     C_R   0.100105 0.699597 0.791524 -0.005643
C85   C     C_R   0.591840 0.105916 0.697530 -0.135756
C86   C     C_R   0.637060 0.917972 0.685077 -0.162390
C87   C     C_R   0.091841 0.605916 0.697529 -0.135750
C88   C     C_R   0.137055 0.417966 0.685075 -0.162398
H1    H     H_    0.327674 0.218957 0.108185 0.092226
H2    H     H_    0.388614 0.746234 0.018596 0.087198
H3    H     H_    0.827675 0.718960 0.108180 0.092227
H4    H     H_    0.888614 0.246234 0.018596 0.087198
H5    H     H_    0.224757 0.204558 0.417681 0.173828
H6    H     H_    0.143437 0.883844 0.472976 0.182091
H7    H     H_    0.724743 0.704514 0.417733 0.173827
H8    H     H_    0.643438 0.383850 0.472981 0.182092
H9    H     H_    0.636801 0.754031 0.585715 0.156472
H10   H     H_    0.557225 0.305193 0.620630 0.172760
H11   H     H_    0.136799 0.254053 0.585676 0.156462
H12   H     H_    0.057225 0.805185 0.620624 0.172763
H13   H     H_    0.184988 0.193517 0.630250 0.197395
H14   H     H_    0.105325 0.847944 0.676409 0.149464
H15   H     H_    0.685014 0.693518 0.630275 0.197342
H16   H     H_    0.605331 0.347946 0.676410 0.149460
H17   H     H_    0.370243 0.174183 0.494787 0.092775
H18   H     H_    0.327333 0.839794 0.480657 0.065974
H19   H     H_    0.870301 0.674216 0.494742 0.092733
H20   H     H_    0.827338 0.339788 0.480651 0.065975
H21   H     H_    0.816458 0.763992 0.629143 0.205825
H22   H     H_    0.745270 0.275337 0.631953 0.128578
H23   H     H_    0.316430 0.263975 0.629174 0.205812
H24   H     H_    0.245267 0.775342 0.631956 0.128578
H25   H     H_    0.895003 0.853994 0.324261 0.216953
H26   H     H_    0.770801 0.198316 0.334825 0.186171
H27   H     H_    0.395046 0.353995 0.324289 0.216970
H28   H     H_    0.270809 0.698314 0.334824 0.186174
H29   H     H_    0.809763 0.825193 0.319820 0.137175
H30   H     H_    0.679420 0.254825 0.373790 0.163026
H31   H     H_    0.309825 0.325228 0.319788 0.137173
H32   H     H_    0.179427 0.754818 0.373786 0.162996
H33   H     H_    0.712481 0.879276 0.476915 0.154979
H34   H     H_    0.604437 0.176553 0.521516 0.141863
H35   H     H_    0.212513 0.379291 0.476889 0.154993
H36   H     H_    0.104445 0.676546 0.521511 0.141862
H37   H     H_    0.795793 0.922224 0.477672 0.179093
H38   H     H_    0.700358 0.130012 0.486635 0.178456
H39   H     H_    0.295810 0.422226 0.477690 0.179086
H40   H     H_    0.200367 0.630011 0.486634 0.178457
H41   H     H_    0.334395 0.775717 0.192290 0.094739
H42   H     H_    0.401982 0.256696 0.171279 0.127937
H43   H     H_    0.834395 0.275716 0.192290 0.094744
H44   H     H_    0.901975 0.756696 0.171282 0.127936
H45   H     H_    0.860897 0.846678 0.544993 0.184169
H46   H     H_    0.775385 0.182485 0.565397 0.191151
H47   H     H_    0.360894 0.346648 0.545007 0.184144
H48   H     H_    0.275387 0.682491 0.565401 0.191149
H49   H     H_    0.289691 0.675110 0.029136 0.127657
H50   H     H_    0.231300 0.288204 0.117733 0.130004
H51   H     H_    0.789691 0.175110 0.029136 0.127661
H52   H     H_    0.731287 0.788200 0.117751 0.130000
H53   H     H_    0.367229 0.911925 0.830254 0.100960
H54   H     H_    0.303568 0.049516 0.922378 0.117471
H55   H     H_    0.867229 0.411925 0.830254 0.100960
H56   H     H_    0.803568 0.549516 0.922378 0.117469
H57   H     H_    0.414571 0.079538 0.359136 0.083458
H58   H     H_    0.347729 0.954854 0.379320 0.096931
H59   H     H_    0.914565 0.579539 0.359140 0.083468
H60   H     H_    0.847730 0.454853 0.379321 0.096928
H61   H     H_    0.670786 0.231301 0.912434 0.120979
H62   H     H_    0.614125 0.742655 0.991831 0.113841
H63   H     H_    0.170787 0.731301 0.912433 0.120984
H64   H     H_    0.114152 0.242658 0.991799 0.113848
H65   H     H_    0.583391 0.075690 0.643209 0.092286
H66   H     H_    0.646786 0.955464 0.622340 0.104540
H67   H     H_    0.083394 0.575689 0.643207 0.092286
H68   H     H_    0.146780 0.455456 0.622338 0.104539
H69   H     H_    0.636724 0.921724 0.166099 0.093020
H70   H     H_    0.690036 0.047736 0.090713 0.104656
H71   H     H_    0.136726 0.421723 0.166097 0.093015
H72   H     H_    0.190036 0.547736 0.090714 0.104658
H73   H     H_    0.256597 0.133778 0.473413 0.163995
H74   H     H_    0.200518 0.915096 0.523716 0.155204
H75   H     H_    0.756619 0.633767 0.473455 0.163979
H76   H     H_    0.700523 0.415096 0.523717 0.155197
N1    N     N_R   0.408680 0.130160 0.995800 -0.031840
N2    N     N_R   0.408680 0.869840 0.995800 -0.040870
N3    N     N_R   0.908680 0.630160 0.995800 -0.031842
N4    N     N_R   0.908680 0.369840 0.995800 -0.040871
N5    N     N_R   0.421680 0.867580 0.153120 -0.043433
N6    N     N_R   0.421680 0.132420 0.153120 -0.035148
N7    N     N_R   0.921680 0.367580 0.153120 -0.043431
N8    N     N_R   0.921680 0.632420 0.153120 -0.035145
N9    N     N_R   0.403730 0.921770 0.935950 -0.042337
N10   N     N_R   0.403730 0.078230 0.935950 -0.049617
N11   N     N_R   0.903730 0.421770 0.935950 -0.042339
N12   N     N_R   0.903730 0.578230 0.935950 -0.049619
N13   N     N_R   0.426630 0.075970 0.212960 -0.032502
N14   N     N_R   0.426630 0.924030 0.212960 -0.037859
N15   N     N_R   0.926630 0.575970 0.212960 -0.032499
N16   N     N_R   0.926630 0.424030 0.212960 -0.037859
N17   N     N_R   0.591320 0.134600 0.004200 -0.036974
N18   N     N_R   0.591320 0.865400 0.004200 -0.059443
N19   N     N_R   0.091320 0.634600 0.004200 -0.036974
N20   N     N_R   0.091320 0.365400 0.004200 -0.059435
N21   N     N_R   0.578320 0.867660 0.846880 -0.076083
N22   N     N_R   0.578320 0.132340 0.846880 -0.042294
N23   N     N_R   0.078320 0.367660 0.846880 -0.076078
N24   N     N_R   0.078320 0.632340 0.846880 -0.042293
N25   N     N_R   0.573370 0.074390 0.787040 -0.043294
N26   N     N_R   0.573370 0.925610 0.787040 -0.043556
N27   N     N_R   0.073370 0.574390 0.787040 -0.043295
N28   N     N_R   0.073370 0.425610 0.787040 -0.043552
N29   N     N_R   0.596270 0.927870 0.064040 -0.041504
N30   N     N_R   0.596270 0.072130 0.064040 -0.047046
N31   N     N_R   0.096270 0.427870 0.064040 -0.041501
N32   N     N_R   0.096270 0.572130 0.064040 -0.047048
Ni1   Ni    Ni4+2 0.500000 0.131190 0.000000 0.287170
Ni2   Ni    Ni4+2 0.500000 0.868810 0.000000 0.200678
Ni3   Ni    Ni4+2 0.000000 0.631190 0.000000 0.287169
Ni4   Ni    Ni4+2 1.000000 0.368810 0.000000 0.200680
Ni5   Ni    Ni4+2 0.488650 0.000000 0.862740 0.207133
Ni6   Ni    Ni4+2 0.988650 0.500000 0.862740 0.207135
Ni7   Ni    Ni4+2 0.511350 0.000000 0.137260 0.205717
Ni8   Ni    Ni4+2 0.011350 0.500000 0.137260 0.205711
C89   C     C_2   0.472639 0.252085 0.396415 0.497770
H77   H     H_    0.516262 0.205009 0.380680 -0.010070
O1    O     O_2   0.500401 0.317740 0.359813 -0.582760
C90   C     C_2   0.386392 0.739421 0.381601 0.510969
H78   H     H_    0.447010 0.769173 0.337729 0.009575
O2    O     O_2   0.383914 0.669968 0.362754 -0.590472
C91   C     C_2   0.972653 0.752153 0.396346 0.497799
H79   H     H_    0.016306 0.705087 0.380531 -0.010053
O3    O     O_2   0.000376 0.817825 0.359795 -0.582748
C92   C     C_2   0.886390 0.239413 0.381596 0.510973
H80   H     H_    0.947009 0.269163 0.337719 0.009578
O4    O     O_2   0.883907 0.169960 0.362751 -0.590462
C93   C     C_1   0.829308 0.253534 0.798346 0.027834
N33   N     N_1   0.835234 0.259758 0.719676 -0.114686
C94   C     C_1   0.640630 0.634613 0.075473 0.103263
N34   N     N_1   0.591144 0.596541 0.077172 -0.065587
C95   C     C_1   0.329308 0.753534 0.798346 0.027833
N35   N     N_1   0.335234 0.759758 0.719676 -0.114686
C96   C     C_1   0.140628 0.134618 0.075476 0.103271
N36   N     N_1   0.091139 0.096548 0.077178 -0.065565
C97   C     C_2   0.640416 0.736409 0.812727 0.403272
H81   H     H_    0.580444 0.710023 0.875770 0.020453
O5    O     O_2   0.705081 0.698380 0.774605 -0.614994
C98   C     C_2   0.589263 0.277527 0.840371 0.424770
H82   H     H_    0.629158 0.326775 0.792970 0.007036
O6    O     O_2   0.535674 0.287019 0.936573 -0.595145
C99   C     C_2   0.140376 0.236390 0.812730 0.403270
H83   H     H_    0.080394 0.210033 0.875811 0.020461
O7    O     O_2   0.205031 0.198323 0.774568 -0.614995
C100  C     C_2   0.089261 0.777527 0.840371 0.424775
H84   H     H_    0.129152 0.826777 0.792970 0.007044
O8    O     O_2   0.035675 0.787018 0.936574 -0.595142

loop_
_geom_bond_atom_site_label_1
_geom_bond_atom_site_label_2
_ccdc_geom_bond_type
C61   C70   A    
C44   H48   S    
N4    N11   A    
C39   C51   S    
C45   H41   S    
C2    C70   A    
C51   H35   S    
C48   C76   A    
C84   C100  S    
C96   N36   T    
N18   Ni2   S    
C6    N30   A    
N17   Ni1   S    
C25   C43   S    
C6    C9    A    
C41   H45   S    
C10   C78   A    
C3    N3    A    
N21   N26   A    
C23   H9    S    
C29   C49   S    
C89   H77   S    
C68   C75   A    
C66   N14   A    
C95   N35   T    
C81   C97   S    
C82   N22   A    
N24   N27   A    
C53   H49   S    
C88   H68   S    
C45   C73   A    
C32   H32   S    
C38   C42   S    
N29   Ni7   S    
C21   H11   S    
C92   O4    D    
C58   C71   S    
C7    H71   S    
C68   H60   S    
C67   N15   A    
C85   N25   A    
C62   N10   A    
C13   C81   A    
C16   C84   A    
C55   H51   S    
N8    Ni3   S    
C3    H3    S    
C64   C71   A    
C81   N21   A    
C2    H2    S    
C32   C52   S    
C59   C95   S    
C48   N8    A    
C26   C34   S    
C23   H15   S    
C20   C24   S    
C56   C58   D    
C90   H78   S    
N20   Ni4   S    
C50   H34   S    
C13   C86   A    
C16   C87   A    
C77   N17   A    
N13   Ni7   S    
C31   C33   S    
N22   Ni1   S    
C88   N28   A    
C15   C88   A    
C50   H38   S    
N27   Ni6   S    
C27   H19   S    
N21   Ni2   S    
N32   Ni8   S    
C10   C56   S    
C2    N2    A    
C5    N29   A    
C13   C37   S    
C11   C53   S    
C52   H36   S    
C21   H13   S    
C42   H22   S    
C20   H8    S    
C22   C40   S    
C41   H21   S    
N14   Ni7   S    
C57   C93   S    
C26   H18   S    
C85   H65   S    
C11   C79   A    
C100  O8    D    
C62   H54   S    
C25   C89   S    
C31   H27   S    
C98   H82   S    
C6    H70   S    
C97   H81   S    
C34   C73   S    
C33   C74   S    
C89   O1    D    
C28   C92   S    
C7    C12   A    
C30   C50   S    
C26   C90   S    
C35   C76   S    
C86   N26   A    
C22   H12   S    
N6    N13   A    
C26   C44   S    
N12   Ni6   S    
C61   N9    A    
C14   C85   A    
C99   O7    D    
C25   H17   S    
C77   H61   S    
C94   N34   T    
N28   Ni6   S    
C92   H80   S    
N9    Ni5   S    
C54   C60   D    
N31   Ni8   S    
C64   H56   S    
N24   Ni3   S    
N25   Ni5   S    
N1    N10   A    
C40   C52   S    
C66   C73   A    
C82   C98   S    
C68   N16   A    
N10   Ni5   S    
C1    C69   A    
C65   C74   A    
C4    N4    A    
C62   C69   A    
C47   H43   S    
C24   H16   S    
C32   C34   S    
C3    C71   A    
C17   C21   S    
N2    Ni2   S    
N7    Ni4   S    
C36   C75   S    
N1    Ni1   S    
C14   C38   S    
C37   C49   S    
C58   C94   S    
C27   C41   S    
C24   C38   S    
C91   H79   S    
C21   C39   S    
C56   H52   S    
C1    N1    A    
C49   H33   S    
C27   C91   S    
N19   N32   A    
C52   H40   S    
C83   N23   A    
C17   C33   S    
N18   N29   A    
C9    C77   A    
C32   H28   S    
C43   H47   S    
N17   N30   A    
C18   C34   S    
C46   C74   A    
C15   C39   S    
N23   N28   A    
C17   H73   S    
C16   C40   S    
C9    C55   S    
C44   H24   S    
N8    N15   A    
C61   H53   S    
C15   C83   A    
C93   N33   T    
C5    H69   S    
C55   C57   D    
C67   H59   S    
C98   O6    D    
C18   H6    S    
C87   H67   S    
N7    N16   A    
C84   N24   A    
C17   H5    S    
C100  H84   S    
C14   C82   A    
C7    N31   A    
C8    H72   S    
C60   C96   S    
N5    N14   A    
C4    C72   A    
C19   H7    S    
C78   H62   S    
C87   N27   A    
C30   H26   S    
C79   H63   S    
C91   O3    D    
C29   H25   S    
C19   H75   S    
N2    N9    A    
C1    H1    S    
N4    Ni4   S    
C53   C59   D    
C18   C22   S    
N3    Ni3   S    
N11   Ni6   S    
C31   C51   S    
N16   Ni8   S    
C45   N5    A    
C46   H42   S    
C47   N7    A    
N26   Ni5   S    
C63   N11   A    
C38   C50   S    
N20   N31   A    
C49   H37   S    
C43   H23   S    
C29   C35   S    
C22   H14   S    
C30   C36   S    
N23   Ni4   S    
C42   H46   S    
C27   C35   S    
N22   N25   A    
C64   N12   A    
C86   H66   S    
C51   H39   S    
C5    C10   A    
C23   C37   S    
C18   H74   S    
C54   H50   S    
C65   N13   A    
C60   C69   S    
C28   H20   S    
C8    C11   A    
C29   H29   S    
N30   Ni7   S    
C12   C80   A    
C28   C42   S    
C97   O5    D    
C79   N19   A    
C8    N32   A    
C83   C99   S    
C80   N20   A    
C57   C72   S    
C37   C41   S    
N19   Ni3   S    
N15   Ni8   S    
C66   H58   S    
C59   C70   S    
C47   C75   A    
C24   H10   S    
C20   C36   S    
C46   N6    A    
C19   C23   S    
C40   C44   S    
C63   C72   A    
C28   C36   S    
C90   O2    D    
C39   C43   S    
C30   H30   S    
C99   H83   S    
C63   H55   S    
C48   H44   S    
C19   C35   S    
C67   C76   A    
C78   N18   A    
C80   H64   S    
C31   H31   S    
C65   H57   S    
N6    Ni1   S    
C12   C54   S    
C25   C33   S    
N3    N12   A    
C4    H4    S    
N5    Ni2   S    
C20   H76   S    
