data_mof_unit_40045.cif
_audit_creation_date              2012-12-11T14:08:15-0500
_audit_creation_method            fapswitch 2.2
_symmetry_space_group_name_H-M    P1
_symmetry_Int_Tables_number       1
_space_group_crystal_system       triclinic
_cell_length_a                    10.909654
_cell_length_b                    10.986137
_cell_length_c                    18.675823
_cell_angle_alpha                 90.208987
_cell_angle_beta                  89.503318
_cell_angle_gamma                 60.056528
_cell_volume                      1939.45075133

loop_
_atom_site_label
_atom_site_type_symbol
_atom_type_description
_atom_site_fract_x
_atom_site_fract_y
_atom_site_fract_z
_atom_type_partial_charge
C1    C     C_R   0.234826 0.646004 0.608254 0.534155
C2    C     C_3   0.672368 0.554971 0.799807 0.045005
C3    C     C_3   0.704414 0.676072 0.811147 0.071997
C4    C     C_3   0.672021 0.650205 0.675379 -0.000113
C5    C     C_3   0.823543 0.623341 0.687976 -0.218277
C6    C     C_3   0.646265 0.545058 0.720028 -0.204336
C7    C     C_2   0.679135 0.148596 0.668319 -0.072784
C8    C     C_2   0.689977 0.167942 0.828573 0.266484
C9    C     C_2   0.800783 0.105935 0.781848 -0.115308
C10   C     C_2   0.789050 0.139896 0.704813 0.183924
C11   C     C_2   0.176462 0.662214 0.680194 -0.068739
C12   C     C_R   0.654927 0.623870 0.600430 0.541172
C13   C     C_2   0.201205 0.661223 0.840851 0.245163
C14   C     C_2   0.197028 0.562638 0.799872 -0.057601
C15   C     C_2   0.228378 0.549233 0.723037 -0.123622
C16   C     C_2   0.593213 0.585549 0.312108 0.016639
C17   C     C_2   0.631344 0.666812 0.160781 0.205771
C18   C     C_2   0.688047 0.535938 0.188039 -0.111378
C19   C     C_2   0.697627 0.503611 0.265849 0.213484
C20   C     C_2   0.670224 0.143266 0.331037 -0.118510
C21   C     C_2   0.643031 0.169626 0.175520 -0.089935
C22   C     C_2   0.551984 0.152613 0.218068 0.289381
C23   C     C_R   0.629372 0.225585 0.601183 0.560330
C24   C     C_2   0.579955 0.117648 0.294409 0.245487
C25   C     C_2   0.117419 0.682961 0.347409 -0.058355
C26   C     C_2   0.126606 0.684971 0.188195 0.262915
C27   C     C_2   0.042665 0.790780 0.233767 -0.114674
C28   C     C_2   0.080194 0.794701 0.307290 -0.135331
C29   C     C_R   0.703524 0.101846 0.897603 0.619846
C30   C     C_R   0.726304 0.689871 0.887425 0.608030
C31   C     C_R   0.120321 0.705963 0.907789 0.602038
C32   C     C_R   0.673152 0.109891 0.103957 0.562876
C33   C     C_R   0.691274 0.688606 0.094889 0.572111
C34   C     C_R   0.214536 0.651924 0.405300 0.555538
C35   C     C_R   0.090947 0.710983 0.113940 0.591505
C36   C     C_R   0.609695 0.580084 0.390000 0.598758
C37   C     C_R   0.622089 0.221352 0.397667 0.572142
C38   C     C_3   0.578337 0.814881 0.781473 -0.260476
C39   C     C_3   0.563764 0.801548 0.700509 -0.257103
C40   C     C_3   0.841322 0.644466 0.768104 0.113530
Cr1   Cr    Cr6+3 0.393010 0.398050 0.501480 1.073107
Cr2   Cr    Cr6+3 0.398820 0.707980 0.501630 1.078289
Cr3   Cr    Cr6+3 0.708140 0.393940 0.496850 1.096914
Cr4   Cr    Cr6+3 0.937950 0.938450 0.008940 1.095344
Cr5   Cr    Cr6+3 0.626180 0.937030 0.994750 1.123475
Cr6   Cr    Cr6+3 0.937790 0.625760 0.001410 1.105299
H1    H     H_    0.592844 0.906592 0.791987 0.152161
H2    H     H_    0.715448 0.435828 0.700290 0.209015
H3    H     H_    0.931714 0.544722 0.787357 0.209514
H4    H     H_    0.903187 0.513802 0.672100 0.151320
H5    H     H_    0.902808 0.022432 0.799815 0.154449
H6    H     H_    0.609294 0.117815 0.694397 0.081306
H7    H     H_    0.160515 0.494877 0.821907 0.137798
H8    H     H_    0.295758 0.443835 0.701785 0.158724
H9    H     H_    0.478685 0.838504 0.809399 0.200753
H10   H     H_    0.107035 0.767368 0.701207 0.176054
H11   H     H_    0.758724 0.448289 0.153565 0.117256
H12   H     H_    0.488976 0.659532 0.292893 0.156472
H13   H     H_    0.727545 0.182388 0.197010 0.050635
H14   H     H_    0.755497 0.150431 0.305378 0.080582
H15   H     H_    0.951103 0.885508 0.214269 0.111620
H16   H     H_    0.453492 0.826728 0.689472 0.197965
H17   H     H_    0.094784 0.881189 0.324458 0.181780
H18   H     H_    0.096629 0.600559 0.329567 0.177099
H19   H     H_    0.582797 0.878839 0.671310 0.120964
H20   H     H_    0.844277 0.694230 0.653927 0.123632
H21   H     H_    0.575973 0.577523 0.831041 0.195528
H22   H     H_    0.535397 0.568235 0.712913 0.135563
O1    O     O_R   0.507110 0.256280 0.580300 -0.528597
O2    O     O_R   0.524640 0.695370 0.425100 -0.469685
O3    O     O_R   0.735890 0.504390 0.415980 -0.433826
O4    O     O_R   0.690560 0.277820 0.422350 -0.507338
O5    O     O_3   0.499990 0.499990 0.499980 -0.318187
O6    O     O_R   0.089190 0.825870 0.932320 -0.456906
O7    O     O_R   0.819070 0.053960 0.931440 -0.501123
O8    O     O_R   0.607070 0.076440 0.916460 -0.491787
O9    O     O_R   0.647110 0.806550 0.917690 -0.520935
O10   O     O_R   0.837080 0.593860 0.915300 -0.455766
O11   O     O_R   0.064770 0.636080 0.932550 -0.514525
O12   O     O_R   0.280830 0.527190 0.577940 -0.509993
O13   O     O_R   0.068250 0.829200 0.092940 -0.516352
O14   O     O_R   0.799650 0.057040 0.080330 -0.518858
O15   O     O_R   0.586130 0.079760 0.077080 -0.430937
O16   O     O_R   0.627700 0.809630 0.066580 -0.443815
O17   O     O_R   0.816140 0.597180 0.075920 -0.524613
O18   O     O_R   0.045360 0.639170 0.081440 -0.478323
O19   O     O_3   0.833980 0.833750 0.001700 -0.300693
O20   O     O_R   0.261360 0.738990 0.584270 -0.491585
O21   O     O_R   0.532590 0.694780 0.574370 -0.499105
O22   O     O_R   0.744470 0.503750 0.577000 -0.508650
O23   O     O_R   0.698520 0.277230 0.571620 -0.441184
O24   O     O_R   0.498530 0.256920 0.419280 -0.438122
O25   O     O_R   0.272880 0.527780 0.428680 -0.481150
O26   O     O_R   0.252780 0.739630 0.423250 -0.510870
O27   O     O_3   0.889124 0.162406 0.671045 -0.657879
H23   H     H_    0.959715 0.152352 0.707114 0.358860
O28   O     O_3   0.558575 0.279180 0.811129 -0.700574
H24   H     H_    0.570247 0.333720 0.772259 0.328591
Cl1   Cl    Cl    0.278349 0.760046 0.810285 -0.699917
O29   O     O_3   0.819665 0.390134 0.291615 -0.659894
H25   H     H_    0.887065 0.343696 0.251246 0.339693
Cl2   Cl    Cl    0.511988 0.822731 0.207107 -0.495258
Cl3   Cl    Cl    0.389139 0.176520 0.184922 -0.361222
Cl4   Cl    Cl    0.478427 0.054918 0.339520 -0.420877
Cl5   Cl    Cl    0.288566 0.535731 0.211054 -0.584359
O30   O     O_3   0.877403 0.749733 0.779216 -0.749411
H26   H     H_    0.814003 0.832926 0.750389 0.314955
Cl6   Cl    Cl    0.811818 0.388300 0.830515 -0.644142

loop_
_geom_bond_atom_site_label_1
_geom_bond_atom_site_label_2
_ccdc_geom_bond_type
Cr3   O5    S    
C7    C10   D    
Cr3   O4    S    
Cr4   O7    S    
C23   O1    A    
O27   H23   S    
C1    C11   S    
C34   O25   A    
C17   Cl2   S    
Cr1   O12   S    
O28   H24   S    
C35   O13   A    
C29   O8    A    
C2    C6    S    
C25   C28   D    
C26   C27   D    
C6    H2    S    
Cr5   O8    S    
C8    C29   S    
C12   O22   A    
Cr5   O19   S    
C7    H6    S    
C21   H13   S    
Cr4   O14   S    
Cr6   O11   S    
C35   O18   A    
O30   H26   S    
C40   H3    S    
Cr2   O2    S    
C18   C19   S    
C32   O15   A    
C33   O17   A    
C27   H15   S    
C30   O9    A    
C11   C15   D    
Cr1   O25   S    
C38   H9    S    
C20   C24   D    
C3    C38   S    
C8    C9    D    
C9    H5    S    
C20   H14   S    
Cr4   O19   S    
C9    C10   S    
C36   O3    A    
C25   C34   S    
Cr6   O17   S    
C1    O20   A    
C6    H22   S    
C21   C22   D    
C39   H19   S    
Cr5   O15   S    
C17   C33   S    
C26   Cl5   S    
C36   O2    A    
C21   C32   S    
Cr3   O22   S    
C15   H8    S    
C12   O21   A    
C4    C6    S    
Cr4   O13   S    
Cr6   O10   S    
C5    H20   S    
C31   O6    A    
Cr3   O23   S    
C22   Cl3   S    
C24   Cl4   S    
C25   H18   S    
C13   Cl1   S    
C3    C30   S    
C8    O28   S    
C18   H11   S    
C4    C39   S    
C14   H7    S    
C17   C18   D    
C16   H12   S    
Cr4   O6    S    
C38   H1    S    
C3    C40   S    
C2    H21   S    
C23   O23   A    
C5    H4    S    
C5    C40   S    
Cr5   O16   S    
C4    C12   S    
C40   O30   S    
Cr6   O19   S    
C39   H16   S    
Cr2   O5    S    
Cr3   O3    S    
C37   O24   A    
Cr2   O26   S    
C13   C31   S    
C34   O26   A    
C4    C5    S    
C19   O29   S    
C31   O11   A    
C29   O7    A    
C32   O14   A    
Cr2   O21   S    
C2    C3    S    
C16   C36   S    
C20   C37   S    
C38   C39   S    
C10   O27   S    
C16   C19   D    
C7    C23   S    
C2    Cl6   S    
O29   H25   S    
C22   C24   S    
C33   O16   A    
Cr1   O5    S    
C30   O10   A    
C28   H17   S    
C26   C35   S    
Cr1   O24   S    
Cr2   O20   S    
C37   O4    A    
C27   C28   S    
C1    O12   A    
C14   C15   S    
Cr5   O9    S    
C13   C14   D    
Cr1   O1    S    
C11   H10   S    
Cr6   O18   S    
