data_mof_unit_44379.cif
_audit_creation_date              2012-12-11T14:50:33-0500
_audit_creation_method            fapswitch 2.2
_symmetry_space_group_name_H-M    P1
_symmetry_Int_Tables_number       1
_space_group_crystal_system       triclinic
_cell_length_a                    10.890824
_cell_length_b                    10.877596
_cell_length_c                    18.690783
_cell_angle_alpha                 90.200758
_cell_angle_beta                  89.568293
_cell_angle_gamma                 59.929769
_cell_volume                      1916.09181805

loop_
_atom_site_label
_atom_site_type_symbol
_atom_type_description
_atom_site_fract_x
_atom_site_fract_y
_atom_site_fract_z
_atom_type_partial_charge
C1    C     C_R   0.236502 0.646641 0.609946 0.548910
C2    C     C_3   0.634119 0.627594 0.802811 -0.227280
C3    C     C_3   0.728601 0.696400 0.806897 0.031003
C4    C     C_3   0.681099 0.662214 0.672907 0.066795
C5    C     C_3   0.842469 0.570132 0.690947 -0.249404
C6    C     C_3   0.601425 0.613187 0.724668 -0.250685
C7    C     C_R   0.787418 0.150391 0.709627 -0.160453
C8    C     C_R   0.803914 0.132448 0.783532 -0.154160
C9    C     C_R   0.684797 0.169072 0.827350 0.019482
C10   C     C_R   0.549604 0.232608 0.797655 -0.141327
C11   C     C_R   0.534850 0.242172 0.724770 -0.143951
C12   C     C_R   0.656483 0.626223 0.599386 0.601329
C13   C     C_R   0.652900 0.199888 0.679954 0.024292
C14   C     C_R   0.199527 0.549677 0.722732 -0.160050
C15   C     C_R   0.193366 0.553271 0.797165 -0.158840
C16   C     C_R   0.180391 0.671702 0.834075 0.026795
C17   C     C_R   0.186329 0.779747 0.796379 -0.149786
C18   C     C_R   0.189604 0.777411 0.722917 -0.156196
C19   C     C_R   0.197490 0.661971 0.685279 0.025076
C20   C     C_R   0.720938 0.665281 0.292649 -0.090634
C21   C     C_R   0.733539 0.693736 0.221987 -0.119867
C22   C     C_R   0.653081 0.676486 0.169126 0.069357
C23   C     C_R   0.625652 0.233037 0.604540 0.585197
C24   C     C_R   0.549583 0.640478 0.187909 -0.012733
C25   C     C_R   0.535167 0.614530 0.260262 -0.117282
C26   C     C_R   0.623774 0.623168 0.311824 0.024201
C27   C     C_R   0.601803 0.089699 0.294693 -0.016043
C28   C     C_R   0.595051 0.085482 0.221107 -0.172557
C29   C     C_R   0.652148 0.150248 0.177631 -0.015911
C30   C     C_R   0.718917 0.219795 0.207535 -0.025915
C31   C     C_R   0.723321 0.226152 0.281296 -0.146479
C32   C     C_R   0.659344 0.167943 0.324712 0.015774
C33   C     C_R   0.067341 0.818177 0.309721 -0.116887
C34   C     C_R   0.218044 0.650992 0.402199 0.541162
C35   C     C_R   0.025674 0.839787 0.239004 -0.135158
C36   C     C_R   0.052449 0.723859 0.195397 0.001286
C37   C     C_R   0.106531 0.588387 0.224971 -0.142975
C38   C     C_R   0.148203 0.566674 0.295849 -0.141677
C39   C     C_R   0.136359 0.680182 0.337110 0.026742
C40   C     C_R   0.700854 0.105731 0.897294 0.533736
C41   C     C_R   0.757004 0.711867 0.882885 0.557292
C42   C     C_R   0.120224 0.705298 0.905953 0.543471
C43   C     C_R   0.673699 0.107953 0.103859 0.517340
C44   C     C_R   0.691620 0.688206 0.095926 0.537899
C45   C     C_R   0.615247 0.588245 0.385766 0.548033
C46   C     C_R   0.026418 0.746906 0.119244 0.553686
C47   C     C_R   0.620788 0.224978 0.396118 0.596489
C48   C     C_3   0.651563 0.842947 0.768797 -0.231659
C49   C     C_3   0.632289 0.824752 0.686759 0.018516
C50   C     C_3   0.870120 0.603227 0.766718 -0.266730
Cr1   Cr    Cr6+3 0.392930 0.397900 0.502230 1.040795
Cr2   Cr    Cr6+3 0.398240 0.708600 0.501260 1.041354
Cr3   Cr    Cr6+3 0.708800 0.393470 0.496460 1.026982
Cr4   Cr    Cr6+3 0.937620 0.938540 0.007640 1.007737
Cr5   Cr    Cr6+3 0.625150 0.937450 0.994520 1.002732
Cr6   Cr    Cr6+3 0.937990 0.625080 0.001190 1.019251
H1    H     H_    0.711400 0.899703 0.777608 0.099271
H2    H     H_    0.634134 0.499934 0.713899 0.131894
H3    H     H_    0.938553 0.501711 0.794917 0.143544
H4    H     H_    0.877327 0.454851 0.688078 0.142282
H5    H     H_    0.879177 0.121611 0.675755 0.123951
H6    H     H_    0.909603 0.082091 0.805624 0.130328
H7    H     H_    0.456064 0.262683 0.830404 0.130709
H8    H     H_    0.429945 0.282832 0.703487 0.130631
H9    H     H_    0.203563 0.460703 0.694504 0.116249
H10   H     H_    0.187494 0.469398 0.825230 0.117786
H11   H     H_    0.177958 0.872192 0.823151 0.130264
H12   H     H_    0.546861 0.910260 0.795664 0.143788
H13   H     H_    0.190050 0.865062 0.695839 0.127353
H14   H     H_    0.787194 0.675805 0.332364 0.166582
H15   H     H_    0.808651 0.726948 0.207926 0.109919
H16   H     H_    0.458489 0.583752 0.276241 0.100851
H17   H     H_    0.552673 0.023308 0.197568 0.135847
H18   H     H_    0.767811 0.286368 0.304694 0.183839
H19   H     H_    0.054447 0.907620 0.341360 0.145933
H20   H     H_    0.979391 0.945807 0.217293 0.152576
H21   H     H_    0.123969 0.498124 0.192641 0.159413
H22   H     H_    0.199828 0.459409 0.316359 0.146339
H23   H     H_    0.927141 0.663496 0.763502 0.124891
H24   H     H_    0.909311 0.588085 0.651831 0.136082
H25   H     H_    0.688994 0.520655 0.827810 0.146675
H26   H     H_    0.532720 0.693168 0.832722 0.134953
H27   H     H_    0.485279 0.674321 0.716131 0.133882
O1    O     O_R   0.507430 0.255570 0.581420 -0.502742
O2    O     O_R   0.524460 0.695920 0.424060 -0.461394
O3    O     O_R   0.736530 0.504260 0.414810 -0.504076
O4    O     O_R   0.691460 0.277160 0.422180 -0.537397
O5    O     O_3   0.499990 0.499990 0.499980 -0.284950
O6    O     O_R   0.089490 0.825610 0.930610 -0.521291
O7    O     O_R   0.818370 0.054540 0.929880 -0.504772
O8    O     O_R   0.605870 0.077310 0.915530 -0.531618
O9    O     O_R   0.646440 0.806700 0.917570 -0.506704
O10   O     O_R   0.837200 0.593290 0.915250 -0.523931
O11   O     O_R   0.065330 0.635370 0.931590 -0.514747
O12   O     O_R   0.280190 0.527390 0.578910 -0.508579
O13   O     O_R   0.068300 0.828790 0.091860 -0.510897
O14   O     O_R   0.798730 0.057480 0.079370 -0.524704
O15   O     O_R   0.584680 0.080480 0.076790 -0.511925
O16   O     O_R   0.626790 0.809640 0.067050 -0.507715
O17   O     O_R   0.816010 0.596460 0.076500 -0.490179
O18   O     O_R   0.045680 0.638310 0.081070 -0.501774
O19   O     O_3   0.833590 0.833690 0.001120 -0.279915
O20   O     O_R   0.260310 0.739740 0.584580 -0.529342
O21   O     O_R   0.532250 0.695150 0.573830 -0.495908
O22   O     O_R   0.744930 0.503430 0.576380 -0.525720
O23   O     O_R   0.699250 0.276390 0.571950 -0.505503
O24   O     O_R   0.499020 0.256400 0.419850 -0.471845
O25   O     O_R   0.272400 0.528160 0.429140 -0.510028
O26   O     O_R   0.251910 0.740570 0.423020 -0.524769
C51   C     C_3   0.458372 0.626522 0.132131 -0.382399
H28   H     H_    0.526177 0.543873 0.092211 0.118408
H29   H     H_    0.383881 0.596140 0.156251 0.147170
H30   H     H_    0.395163 0.729540 0.104495 0.159331
C52   C     C_2   0.549989 0.009733 0.337555 0.235883
H31   H     H_    0.480764 0.976653 0.313303 0.103551
O27   O     O_2   0.588600 0.974427 0.398988 -0.448611
C53   C     C_2   0.781414 0.288054 0.162861 0.237567
H32   H     H_    0.758669 0.304766 0.106199 0.117726
O28   O     O_2   0.858955 0.326946 0.188911 -0.509226
C54   C     C_3   0.475182 0.930025 0.667749 -0.341672
H33   H     H_    0.455849 0.934535 0.609430 0.201552
H34   H     H_    0.401219 0.904016 0.695782 0.097744
H35   H     H_    0.446381 0.039439 0.684419 0.114487
C55   C     C_2   0.724746 0.865051 0.642447 0.216352
H36   H     H_    0.808721 0.875796 0.667254 0.100177
O29   O     O_2   0.711103 0.878779 0.577654 -0.469520

loop_
_geom_bond_atom_site_label_1
_geom_bond_atom_site_label_2
_ccdc_geom_bond_type
Cr2   O20   S    
C11   C13   A    
C6    H2    S    
C35   C36   A    
C43   O15   A    
C50   H23   S    
C52   H31   S    
C7    C8    A    
Cr6   O11   S    
Cr5   O19   S    
C33   C39   A    
C21   H15   S    
C50   H3    S    
C28   C29   A    
C37   C38   A    
Cr6   O18   S    
C12   O21   A    
C53   O28   D    
C30   C31   A    
C44   O16   A    
C49   C54   S    
C15   C16   A    
C3    C48   S    
C13   C23   S    
C18   C19   A    
C51   H28   S    
C49   C55   S    
Cr5   O8    S    
C26   C45   S    
Cr3   O23   S    
C33   H19   S    
C22   C44   S    
C10   H7    S    
C8    C9    A    
Cr1   O12   S    
Cr4   O14   S    
C36   C46   S    
Cr3   O3    S    
C4    C12   S    
C9    C10   A    
C1    O20   A    
Cr4   O13   S    
C54   H35   S    
C18   H13   S    
C21   C22   A    
C29   C43   S    
C20   H14   S    
C2    C6    S    
C28   H17   S    
C3    C50   S    
C54   H34   S    
Cr6   O10   S    
C46   O18   A    
C41   O10   A    
C35   H20   S    
C17   H11   S    
C1    C19   S    
C23   O1    A    
C34   C39   S    
Cr2   O5    S    
C24   C51   S    
C24   C25   A    
Cr4   O6    S    
C4    C6    S    
C11   H8    S    
C16   C17   A    
C31   H18   S    
C38   H22   S    
C25   C26   A    
C23   O23   A    
C37   H21   S    
C9    C40   S    
C47   O4    A    
C45   O2    A    
C29   C30   A    
C31   C32   A    
C1    O12   A    
C17   C18   A    
Cr3   O4    S    
C25   H16   S    
C48   H12   S    
C5    H24   S    
C51   H30   S    
C48   C49   S    
Cr5   O9    S    
Cr2   O2    S    
Cr1   O25   S    
C47   O24   A    
C32   C47   S    
C22   C24   A    
C5    C50   S    
C2    H26   S    
C48   H1    S    
Cr6   O17   S    
C16   C42   S    
C54   H33   S    
C55   O29   D    
C15   H10   S    
C36   C37   A    
C6    H27   S    
C5    H4    S    
C27   C32   A    
C42   O11   A    
C14   C19   A    
Cr4   O19   S    
C43   O14   A    
C4    C5    S    
Cr1   O5    S    
C52   O27   D    
Cr4   O7    S    
C30   C53   S    
C4    C49   S    
C42   O6    A    
C34   O25   A    
C2    C3    S    
Cr6   O19   S    
C53   H32   S    
C44   O17   A    
C12   O22   A    
C20   C26   A    
Cr2   O26   S    
C38   C39   A    
Cr5   O15   S    
C33   C35   A    
C14   H9    S    
Cr2   O21   S    
C45   O3    A    
Cr3   O5    S    
C40   O8    A    
C51   H29   S    
C3    C41   S    
C10   C11   A    
C27   C52   S    
Cr3   O22   S    
C7    C13   A    
C41   O9    A    
C46   O13   A    
C20   C21   A    
Cr1   O24   S    
Cr5   O16   S    
C27   C28   A    
C34   O26   A    
C14   C15   A    
C2    H25   S    
C40   O7    A    
Cr1   O1    S    
C7    H5    S    
C8    H6    S    
C55   H36   S    
