data_mof_unit_28816.cif
_audit_creation_date              2012-12-11T18:13:36-0500
_audit_creation_method            fapswitch 2.2
_symmetry_space_group_name_H-M    P1
_symmetry_Int_Tables_number       1
_space_group_crystal_system       triclinic
_cell_length_a                    8.255968
_cell_length_b                    12.734087
_cell_length_c                    18.728266
_cell_angle_alpha                 99.93447
_cell_angle_beta                  90.166609
_cell_angle_gamma                 99.031129
_cell_volume                      1914.46822157

loop_
_atom_site_label
_atom_site_type_symbol
_atom_type_description
_atom_site_fract_x
_atom_site_fract_y
_atom_site_fract_z
_atom_type_partial_charge
Ba1   Ba    Ba6+2 0.852780 0.548340 0.465070 1.681857
Ba2   Ba    Ba6+2 0.337060 0.451750 0.534940 1.695398
C1    C     C_3   0.665197 0.921263 0.267692 -0.238928
C2    C     C_3   0.658696 0.819074 0.300574 0.291196
C3    C     C_3   0.460900 0.278044 0.315118 0.310009
C4    C     C_3   0.427054 0.240575 0.234134 -0.339531
C5    C     C_3   0.066598 0.233369 0.731772 0.344293
C6    C     C_3   0.080251 0.204247 0.806724 -0.321305
C7    C     C_3   0.576401 0.177898 0.700423 0.357360
C8    C     C_3   0.648932 0.125962 0.757554 -0.361720
C9    C     C_R   0.999432 0.442188 0.049999 0.012093
C10   C     C_R   0.901599 0.389732 0.098906 0.039334
C11   C     C_R   0.739349 0.345408 0.079953 -0.085872
C12   C     C_3   0.137820 0.754630 0.260283 0.372721
C13   C     C_R   0.673659 0.352457 0.013238 -0.077156
C14   C     C_R   0.770882 0.399263 0.960918 0.022078
C15   C     C_R   0.935204 0.444960 0.979854 0.008446
C16   C     C_R   0.705302 0.402266 0.891402 -0.078153
C17   C     C_R   0.808370 0.443644 0.837232 -0.100387
C18   C     C_R   0.972709 0.494599 0.858443 0.004431
C19   C     C_R   0.033560 0.496031 0.930214 -0.002978
C20   C     C_R   0.758949 0.433872 0.762444 0.024336
C21   C     C_R   0.874110 0.469541 0.712409 -0.212735
C22   C     C_R   0.025749 0.534311 0.734068 0.011225
C23   C     C_3   0.101199 0.770366 0.183438 -0.335693
C24   C     C_R   0.076579 0.546014 0.808749 -0.038634
C25   C     C_R   0.160348 0.492070 0.071654 -0.003723
C26   C     C_R   0.220522 0.493230 0.143231 -0.003530
C27   C     C_R   0.117911 0.442931 0.192789 -0.047370
C28   C     C_R   0.963574 0.385529 0.167570 -0.039099
C29   C     C_R   0.230501 0.605207 0.835210 -0.024804
C30   C     C_R   0.291751 0.603163 0.905027 0.019583
C31   C     C_R   0.194496 0.547406 0.952491 0.005459
C32   C     C_R   0.258129 0.544588 0.022808 0.017362
C33   C     C_R   0.451960 0.653699 0.927406 -0.089598
C34   C     C_3   0.286601 0.801697 0.651937 0.260066
C35   C     C_R   0.515630 0.648799 0.995928 -0.106287
C36   C     C_R   0.419367 0.595200 0.044409 0.026693
C37   C     C_R   0.381855 0.545537 0.165247 -0.041485
C38   C     C_R   0.481149 0.593372 0.114364 -0.120568
C39   C     C_R   0.436026 0.550396 0.238048 -0.000392
C40   C     C_R   0.327796 0.508803 0.287596 -0.303285
C41   C     C_R   0.170486 0.454003 0.266404 0.036458
C42   C     C_R   0.764631 0.180289 0.524174 -0.277602
C43   C     C_R   0.442636 0.801459 0.458855 -0.257160
C44   C     C_R   0.411054 0.979575 0.438435 -0.103205
C45   C     C_3   0.350144 0.910929 0.698657 -0.399129
C46   C     C_R   0.350073 0.870317 0.431616 -0.005168
C47   C     C_R   0.587509 0.843043 0.500420 0.061076
C48   C     C_R   0.649097 0.956321 0.508527 -0.061840
C49   C     C_R   0.559716 0.024480 0.476306 -0.069546
C50   C     C_R   0.618719 0.136882 0.484943 0.036753
C51   C     C_R   0.857322 0.114388 0.552646 -0.015528
C52   C     C_R   0.797663 0.004181 0.547222 -0.082034
C53   C     C_3   0.967871 0.207785 0.378148 0.268015
C54   C     C_3   0.029574 0.100341 0.367649 -0.326639
C55   C     C_3   0.748327 0.791603 0.702927 0.217782
C56   C     C_3   0.658568 0.820554 0.774173 -0.278345
H1    H     H_    0.742072 0.837458 0.349354 0.087386
H2    H     H_    0.372074 0.902148 0.755508 0.152600
H3    H     H_    0.465260 0.946035 0.676104 0.081328
H4    H     H_    0.260976 0.968096 0.700005 0.153560
H5    H     H_    0.833599 0.193283 0.383308 -0.005192
H6    H     H_    0.026457 0.256924 0.429009 0.064693
H7    H     H_    0.965363 0.044760 0.320769 0.121952
H8    H     H_    0.008427 0.063953 0.416981 0.097268
H9    H     H_    0.162301 0.112419 0.356635 0.141331
H10   H     H_    0.659868 0.991209 0.311848 0.081146
H11   H     H_    0.656044 0.908577 0.787155 0.097292
H12   H     H_    0.721192 0.797269 0.820331 0.105336
H13   H     H_    0.530620 0.777181 0.769916 0.116277
H14   H     H_    0.531446 0.794748 0.317250 -0.071997
H15   H     H_    0.348390 0.303978 0.339781 0.006034
H16   H     H_    0.562875 0.347466 0.323171 0.054339
H17   H     H_    0.316258 0.177450 0.224707 0.158361
H18   H     H_    0.406118 0.309309 0.208039 0.031363
H19   H     H_    0.533564 0.206703 0.208963 0.139249
H20   H     H_    0.782042 0.936128 0.239186 0.085212
H21   H     H_    0.158838 0.713353 0.143840 0.060656
H22   H     H_    0.161272 0.304239 0.728455 0.105516
H23   H     H_    0.943619 0.255072 0.724376 -0.078328
H24   H     H_    0.201059 0.179496 0.814179 0.202903
H25   H     H_    0.067001 0.274684 0.849082 0.071044
H26   H     H_    0.983835 0.135476 0.812854 0.125547
H27   H     H_    0.678960 0.216967 0.670836 -0.086663
H28   H     H_    0.503737 0.115448 0.659159 0.046100
H29   H     H_    0.728424 0.068585 0.731441 0.072717
H30   H     H_    0.549822 0.082825 0.786486 0.153149
H31   H     H_    0.070818 0.674593 0.267561 0.061706
H32   H     H_    0.722781 0.189250 0.798036 0.120053
H33   H     H_    0.660961 0.307609 0.117694 0.063727
H34   H     H_    0.545122 0.319818 0.004075 0.120031
H35   H     H_    0.837568 0.455846 0.655620 0.064123
H36   H     H_    0.886372 0.339844 0.201594 0.100258
H37   H     H_    0.307512 0.650719 0.801172 0.105416
H38   H     H_    0.529359 0.695664 0.891351 0.077130
H39   H     H_    0.640045 0.687953 0.011256 0.076628
H40   H     H_    0.605858 0.631677 0.128877 0.106651
H41   H     H_    0.271719 0.755680 0.266553 -0.072203
H42   H     H_    0.368898 0.515875 0.343377 0.070734
H43   H     H_    0.337047 0.029189 0.416162 0.102208
H44   H     H_    0.871983 0.957511 0.571846 0.099989
H45   H     H_    0.811032 0.265710 0.529352 0.053660
H46   H     H_    0.393872 0.716393 0.453247 0.100450
H47   H     H_    0.967001 0.755228 0.171849 0.140721
H48   H     H_    0.150452 0.853965 0.176332 0.161658
H49   H     H_    0.387509 0.756049 0.637845 0.078200
O1    O     O_2   0.873090 0.425890 0.325140 -0.467975
O2    O     O_3   0.660900 0.820722 0.647165 -0.716025
O3    O     O_3   0.086835 0.838009 0.310095 -0.595638
O4    O     O_2   0.316610 0.574140 0.674900 -0.435890
O5    O     O_3   0.067290 0.565720 0.585630 -0.445132
O6    O     O_3   0.530210 0.372990 0.631200 -0.437189
O7    O     O_3   0.170758 0.745345 0.691003 -0.640014
O8    O     O_3   0.611340 0.366290 0.463630 -0.476820
O9    O     O_3   0.108550 0.314140 0.595200 -0.494300
O10   O     O_2   0.195111 0.120747 0.549051 -0.478952
O11   O     O_3   0.091747 0.144676 0.679624 -0.600268
O12   O     O_3   0.122420 0.434370 0.414380 -0.491252
O13   O     O_3   0.578370 0.633800 0.536380 -0.469066
O14   O     O_2   0.341510 0.231850 0.465510 -0.470116
O15   O     O_3   0.504251 0.192227 0.344955 -0.623851
O16   O     O_2   0.415282 0.446587 0.754799 -0.478572
O17   O     O_3   0.470479 0.246788 0.733892 -0.568989
O18   O     O_3   0.659500 0.627100 0.368810 -0.481504
O19   O     O_2   0.772875 0.542678 0.242780 -0.490536
O20   O     O_3   0.002345 0.253488 0.316010 -0.639140
O21   O     O_3   0.712042 0.738077 0.249718 -0.617281
O22   O     O_2   0.848200 0.768190 0.534530 -0.453671
O23   O     O_3   0.081160 0.685950 0.404810 -0.426750
O24   O     O_2   0.016860 0.880381 0.446819 -0.483297
P1    P     P_3+3 0.041040 0.394770 0.336330 0.974237
P2    P     P_3+3 0.672880 0.754030 0.556100 0.965866
P3    P     P_3+3 0.136272 0.820750 0.397865 1.001600
P4    P     P_3+3 0.148670 0.605320 0.663680 1.020109
P5    P     P_3+3 0.062296 0.174004 0.593072 0.951384
P6    P     P_3+3 0.644430 0.612464 0.274291 0.939683
P7    P     P_3+3 0.521883 0.229990 0.439346 0.942931
P8    P     P_3+3 0.546329 0.378646 0.723415 1.030493
C57   C     C_2   0.915729 0.859280 0.711073 0.481432
H50   H     H_    0.970261 0.889907 0.664975 -0.007181
O25   O     O_2   0.991023 0.882338 0.769451 -0.591554
C58   C     C_2   0.752061 0.673541 0.688645 0.472064
H51   H     H_    0.833492 0.641311 0.649078 -0.053129
O26   O     O_2   0.648999 0.612479 0.714110 -0.605816
C59   C     C_2   0.526117 0.910753 0.214093 0.491373
H52   H     H_    0.511082 0.846206 0.167274 0.003790
O27   O     O_2   0.429477 0.974863 0.222653 -0.584976
C60   C     C_2   0.526948 0.366211 0.880169 0.490751
H53   H     H_    0.446435 0.424668 0.878107 0.019200
O28   O     O_2   0.468332 0.271547 0.878081 -0.596032
C61   C     C_2   0.209089 0.819601 0.584561 0.393922
H54   H     H_    0.199498 0.900019 0.574684 -0.007508
O29   O     O_2   0.154952 0.741865 0.539435 -0.526330

loop_
_geom_bond_atom_site_label_1
_geom_bond_atom_site_label_2
_ccdc_geom_bond_type
C53   C54   S    
O19   P6    D    
O13   P2    S    
C6    H25   S    
C39   C40   A    
O17   P8    S    
C17   C18   A    
O24   P3    D    
C34   O7    S    
C45   H4    S    
C35   H39   S    
C23   H47   S    
C4    H17   S    
C37   C39   A    
C51   C52   A    
Ba2   O5    S    
C48   C52   A    
C6    H24   S    
C46   P3    S    
C41   P1    S    
C33   C35   A    
C57   O25   D    
C16   C17   A    
Ba1   P1    S    
Ba1   O22   S    
C60   O28   D    
Ba1   O5    S    
C38   H40   S    
C3    C4    S    
Ba2   O6    S    
C54   H8    S    
C56   H13   S    
Ba2   O14   S    
C19   C31   A    
C13   C14   A    
O16   P8    D    
C7    O17   S    
C34   C45   S    
C12   O3    S    
Ba1   Ba2   S    
Ba1   O12   S    
C3    H16   S    
O20   P1    S    
C7    H27   S    
C45   H2    S    
Ba2   O9    S    
C42   C51   A    
O4    P4    D    
C55   O2    S    
C1    H10   S    
C14   C15   A    
C53   H5    S    
C50   P7    S    
C21   C22   A    
O6    P8    S    
C43   C47   A    
C16   C60   S    
C7    C8    S    
C39   P6    S    
C42   C50   A    
C13   H34   S    
C24   C29   A    
C32   C36   A    
C11   H33   S    
C34   H49   S    
C5    O11   S    
O23   P3    S    
C51   P5    S    
Ba1   P2    S    
C42   H45   S    
C23   H48   S    
C48   C49   A    
C59   O27   D    
C25   C32   A    
C8    H29   S    
C44   H43   S    
C44   C46   A    
Ba2   O4    S    
C55   C58   S    
O2    P2    S    
C49   C50   A    
C30   C33   A    
C5    C6    S    
C17   C20   A    
C57   H50   S    
O15   P7    S    
Ba1   O23   S    
C37   C38   A    
C2    O21   S    
C34   C61   S    
C4    H19   S    
C26   C37   A    
O18   P6    S    
C33   H38   S    
C44   C49   A    
C15   C19   A    
C21   H35   S    
C55   C57   S    
Ba1   O13   S    
O14   P7    D    
O21   P6    S    
C12   H31   S    
C35   C36   A    
C43   H46   S    
C40   H42   S    
C7    H28   S    
Ba2   O8    S    
C29   C30   A    
O8    P7    S    
C9    C25   A    
O7    P4    S    
C8    H30   S    
C53   H6    S    
C31   C32   A    
C10   C11   A    
O22   P2    D    
C22   P4    S    
C5    H23   S    
C53   O20   S    
C11   C13   A    
O3    P3    S    
C40   C41   A    
O5    P4    S    
C1    C2    S    
C26   C27   A    
C2    H14   S    
O11   P5    S    
C59   H52   S    
C43   C46   A    
C58   O26   D    
C47   P2    S    
C9    C15   A    
Ba2   O13   S    
C10   C28   A    
C23   H21   S    
C52   H44   S    
C56   H12   S    
C22   C24   A    
C61   O29   D    
O12   P1    S    
C45   H3    S    
Ba2   O12   S    
C56   H11   S    
C4    H18   S    
O9    P5    S    
C54   H9    S    
Ba2   P4    S    
Ba1   O18   S    
C30   C31   A    
C58   H51   S    
C28   H36   S    
C60   H53   S    
C36   C38   A    
O10   P5    D    
C12   H41   S    
C55   C56   S    
C18   C24   A    
C29   H37   S    
C20   P8    S    
C2    H1    S    
C12   C23   S    
C3    H15   S    
O1    P1    D    
Ba1   O1    S    
C27   C28   A    
C18   C19   A    
C8    H32   S    
C1    C59   S    
C14   C16   A    
C47   C48   A    
C6    H26   S    
C25   C26   A    
C20   C21   A    
C61   H54   S    
Ba1   O8    S    
C1    H20   S    
C3    O15   S    
C27   C41   A    
C54   H7    S    
C9    C10   A    
C5    H22   S    
