data_mof_unit_27891.cif
_audit_creation_date              2012-12-11T14:32:54-0500
_audit_creation_method            fapswitch 2.2
_symmetry_space_group_name_H-M    P1
_symmetry_Int_Tables_number       1
_space_group_crystal_system       triclinic
_cell_length_a                    6.961787
_cell_length_b                    13.775185
_cell_length_c                    17.96423
_cell_angle_alpha                 111.926736
_cell_angle_beta                  95.419412
_cell_angle_gamma                 89.97894
_cell_volume                      1589.86635038

loop_
_atom_site_label
_atom_site_type_symbol
_atom_type_description
_atom_site_fract_x
_atom_site_fract_y
_atom_site_fract_z
_atom_type_partial_charge
O1    O     O_R   0.484560 0.544530 0.414330 -0.535787
O2    O     O_R   0.197040 0.638810 0.585080 -0.545337
O3    O     O_R   0.026800 0.455470 0.585670 -0.539236
C1    C     C_R   0.373496 0.679056 0.610179 0.679640
O4    O     O_R   0.155000 0.556150 0.414940 -0.543521
O5    O     O_R   0.984450 0.372220 0.414320 -0.526748
C2    C     C_R   0.317486 0.565052 0.386730 0.762441
O6    O     O_R   0.526900 0.627780 0.585680 -0.546937
O7    O     O_3   0.339170 0.439750 0.499990 -0.369417
V1    V     V_3+5 0.064350 0.511180 0.500000 1.347428
O8    O     O_R   0.654880 0.361190 0.414920 -0.542696
C3    C     C_R   0.817406 0.326632 0.384680 0.773385
O9    O     O_R   0.696930 0.443850 0.585060 -0.541679
C4    C     C_R   0.873478 0.443005 0.616846 0.691905
V2    V     V_3+5 0.564340 0.488820 0.500000 1.354882
O10   O     O_3   0.839390 0.560250 0.500010 -0.384828
C5    C     C_R   0.046772 0.881162 0.833875 -0.075593
C6    C     C_R   0.907878 0.413887 0.687850 -0.055725
C7    C     C_R   0.946952 0.843483 0.692903 0.115155
C8    C     C_R   0.991631 0.810938 0.757156 -0.129425
C9    C     C_R   0.053737 0.988899 0.848165 -0.213373
C10   C     C_R   0.012663 0.026103 0.783773 0.035662
C11   C     C_R   0.966565 0.950465 0.703385 0.099394
C12   C     C_R   0.014839 0.135674 0.796527 0.071356
C13   C     C_R   0.964535 0.167046 0.730140 0.018912
C14   C     C_R   0.937047 0.090847 0.652622 -0.181999
C15   C     C_R   0.942980 0.985021 0.637215 0.154863
C16   C     C_R   0.068444 0.215448 0.872676 -0.165485
C17   C     C_R   0.076154 0.320758 0.882232 -0.222419
C18   C     C_R   0.023149 0.351047 0.817274 0.115864
C19   C     C_R   0.957862 0.274807 0.741203 0.107216
C20   C     C_R   0.036834 0.456823 0.827119 -0.120125
C21   C     C_R   0.984685 0.487635 0.762323 -0.154185
C22   C     C_R   0.890509 0.309197 0.678236 -0.205995
H1    H     H_    0.822649 0.257159 0.620669 0.099778
H2    H     H_    0.004045 0.568977 0.770411 0.095101
H3    H     H_    0.124375 0.379081 0.941084 0.117388
H4    H     H_    0.978844 0.728764 0.748024 0.082653
H5    H     H_    0.088570 0.041233 0.909858 0.096253
H6    H     H_    0.924441 0.112753 0.600977 0.127578
H7    H     H_    0.111614 0.198989 0.925767 0.120305
H8    H     H_    0.091888 0.515324 0.884627 0.149776
H9    H     H_    0.831867 0.039987 0.189263 0.136679
C23   C     C_2   0.131983 0.040362 0.178538 -0.350565
C24   C     C_2   0.967777 0.085292 0.208098 -0.140083
H10   H     H_    0.702652 0.167302 0.309031 0.099411
C25   C     C_2   0.819056 0.223735 0.316488 -0.354985
C26   C     C_2   0.963945 0.195312 0.267015 0.186147
H11   H     H_    0.270157 0.082885 0.200020 0.137822
C27   C     C_R   0.408222 0.785089 0.677050 -0.060395
C28   C     C_R   0.540821 0.472308 0.827266 -0.055935
C29   C     C_R   0.527421 0.884496 0.816683 -0.125055
C30   C     C_R   0.472936 0.789289 0.754223 -0.139099
C31   C     C_R   0.406877 0.880416 0.663141 -0.223488
C32   C     C_R   0.460955 0.979982 0.726913 0.092849
C33   C     C_R   0.519556 0.979201 0.804316 0.120850
C34   C     C_R   0.458321 0.080078 0.717573 0.058537
C35   C     C_R   0.509107 0.176453 0.785962 0.065028
C36   C     C_R   0.564622 0.169090 0.860965 -0.179725
C37   C     C_R   0.570546 0.072813 0.869593 -0.210551
C38   C     C_R   0.404704 0.087262 0.642390 -0.172489
C39   C     C_R   0.392586 0.183578 0.634183 -0.218429
C40   C     C_R   0.437948 0.277419 0.699856 0.114164
C41   C     C_R   0.501387 0.276796 0.776986 0.099329
C42   C     C_R   0.421135 0.372144 0.687914 -0.129595
C43   C     C_R   0.471064 0.467711 0.750500 -0.136490
C44   C     C_R   0.553266 0.376806 0.840840 -0.209925
H12   H     H_    0.615345 0.071694 0.928718 0.116405
H13   H     H_    0.601978 0.383022 0.901253 0.094550
H14   H     H_    0.453971 0.538847 0.738738 0.092082
H15   H     H_    0.346477 0.184559 0.575120 0.119791
H16   H     H_    0.576372 0.884124 0.875574 0.143518
H17   H     H_    0.483404 0.718138 0.766288 0.093708
H18   H     H_    0.368694 0.873995 0.602049 0.090588
H19   H     H_    0.604788 0.237110 0.914634 0.123454
H20   H     H_    0.367550 0.019197 0.588433 0.129833
H21   H     H_    0.369035 0.372290 0.629231 0.145854
H22   H     H_    0.338880 0.666300 0.194397 0.127435
H23   H     H_    0.608981 0.581844 0.306353 0.168880
C45   C     C_2   0.314238 0.602883 0.319530 -0.368743
C46   C     C_2   0.475210 0.607116 0.284496 -0.123836
C47   C     C_2   0.639316 0.653653 0.183297 0.000604
C48   C     C_2   0.476183 0.644798 0.216878 -0.135662
H24   H     H_    0.179409 0.627513 0.298603 0.141362
O11   O     O_R   0.421600 0.630430 0.917010 -0.540203
O12   O     O_R   0.793840 0.702190 0.087630 -0.537785
O13   O     O_R   0.964010 0.886170 0.088190 -0.536395
C49   C     C_R   0.631892 0.692604 0.115892 0.732262
O14   O     O_R   0.751460 0.619510 0.917500 -0.537096
O15   O     O_R   0.921330 0.802900 0.916840 -0.539940
C50   C     C_R   0.575135 0.578618 0.893537 0.682645
O16   O     O_R   0.464290 0.713700 0.088350 -0.549636
O17   O     O_3   0.609200 0.818520 0.002630 -0.375437
V3    V     V_3+5 0.884140 0.747190 0.002530 1.373072
O18   O     O_R   0.251150 0.814630 0.917340 -0.540056
C51   C     C_R   0.076095 0.838314 0.898416 0.689442
O19   O     O_R   0.293530 0.897310 0.087470 -0.544635
C52   C     C_R   0.130491 0.934151 0.115122 0.748339
V4    V     V_3+5 0.384070 0.769710 0.002370 1.363722
O20   O     O_3   0.109180 0.698190 0.002460 -0.377247
C53   C     C_3   0.939794 0.916106 0.548236 -0.810670
H25   H     H_    0.952168 0.961635 0.509156 0.197453
H26   H     H_    0.066706 0.866267 0.537420 0.195509
H27   H     H_    0.801386 0.870677 0.524836 0.209425
C54   C     C_3   0.114955 0.274353 0.266214 -0.680651
H28   H     H_    0.181339 0.247227 0.208442 0.178626
H29   H     H_    0.047954 0.349520 0.271396 0.187305
H30   H     H_    0.231027 0.287533 0.316175 0.212095
C55   C     C_3   0.832241 0.626029 0.214858 -0.813745
H31   H     H_    0.953078 0.638166 0.182875 0.216089
H32   H     H_    0.863834 0.676403 0.279643 0.208737
H33   H     H_    0.828944 0.542305 0.207489 0.207245
C56   C     C_3   0.859469 0.761615 0.617122 -0.625481
H34   H     H_    0.841176 0.688086 0.627099 0.224734
H35   H     H_    0.717636 0.785448 0.598619 0.185667
H36   H     H_    0.952156 0.744985 0.568116 0.216357

loop_
_geom_bond_atom_site_label_1
_geom_bond_atom_site_label_2
_ccdc_geom_bond_type
C23   H11   S    
C13   C19   A    
C32   C33   A    
C40   C42   A    
O17   V3    S    
C4    C6    S    
O2    C1    A    
O18   C51   A    
C1    O6    A    
C21   H2    S    
O19   C52   A    
O11   C50   A    
C23   C24   D    
C54   H29   S    
C14   C15   A    
C39   C40   A    
C29   H16   S    
C16   C17   A    
C55   H32   S    
O5    C3    A    
C18   C19   A    
O12   C49   A    
C7    C56   S    
V2    O10   S    
O13   V3    S    
C16   H7    S    
C5    C8    A    
C22   H1    S    
O14   V3    S    
O12   V3    S    
O19   V4    S    
C31   H18   S    
O8    V2    S    
H22   C48   S    
C26   C54   S    
O1    V2    S    
C11   C15   A    
O14   C50   A    
O7    V1    S    
O17   V4    S    
C45   H24   S    
C56   H36   S    
C28   C50   S    
C36   C37   A    
C53   H26   S    
O9    C4    A    
C23   C52   S    
C3    C25   S    
C46   C48   S    
C53   H25   S    
O15   V3    S    
C6    C22   A    
C38   H20   S    
C35   C41   A    
C54   H30   S    
C27   C30   A    
C42   H21   S    
C47   C55   S    
C49   O16   A    
C12   C13   A    
C55   H33   S    
H23   C46   S    
C13   C14   A    
C15   C53   S    
C5    C9    A    
C33   C37   A    
C1    C27   S    
C44   H13   S    
C28   C43   A    
C7    C11   A    
C41   C44   A    
C17   C18   A    
O11   V4    S    
C8    H4    S    
C25   C26   D    
C9    H5    S    
V3    O20   S    
C19   C22   A    
C5    C51   S    
C28   C44   A    
C34   C38   A    
H9    C24   S    
O3    C4    A    
C47   C48   D    
C53   H27   S    
O9    V2    S    
C10   C12   A    
O2    V1    S    
C36   H19   S    
C29   C30   A    
O4    C2    A    
C56   H34   S    
C24   C26   S    
C31   C32   A    
H10   C25   S    
O1    C2    A    
C30   H17   S    
C12   C16   A    
C45   C46   D    
O5    V1    S    
O8    C3    A    
O15   C51   A    
O6    V2    S    
C54   H28   S    
V4    O20   S    
C20   C21   A    
O13   C52   A    
C7    C8    A    
C32   C34   A    
C35   C36   A    
O4    V1    S    
C27   C31   A    
O3    V1    S    
V1    O10   S    
C55   H31   S    
C18   C20   A    
C14   H6    S    
C34   C35   A    
C43   H14   S    
C47   C49   S    
C39   H15   S    
O18   V4    S    
O7    V2    S    
C38   C39   A    
C6    C21   A    
C40   C41   A    
C37   H12   S    
C42   C43   A    
C17   H3    S    
C20   H8    S    
C10   C11   A    
C9    C10   A    
C29   C33   A    
O16   V4    S    
C2    C45   S    
C56   H35   S    
