data_mof_unit_67027.cif
_audit_creation_date              2013-03-05T15:58:14-0500
_audit_creation_method            fapswitch 2.2
_symmetry_space_group_name_H-M    P1
_symmetry_Int_Tables_number       1
_space_group_crystal_system       triclinic
_cell_length_a                    8.226457
_cell_length_b                    12.649108
_cell_length_c                    14.196023
_cell_angle_alpha                 92.96308
_cell_angle_beta                  90.802973
_cell_angle_gamma                 97.996561
_cell_volume                      1460.54515399

loop_
_atom_site_label
_atom_site_type_symbol
_atom_site_description
_atom_site_fract_x
_atom_site_fract_y
_atom_site_fract_z
_atom_type_partial_charge
P1    P     P_3+3 0.054400 0.427280 0.286870 0.519243
O1    O     O_2   0.887370 0.460630 0.272300 -0.416401
O2    O     O_3   0.129410 0.451380 0.388510 -0.283396
O3    O     O_3   0.670210 0.653170 0.329170 -0.289863
O4    O     O_2   0.784235 0.589927 0.163611 -0.410147
O5    O     O_3   0.043306 0.290049 0.256791 -0.614366
O6    O     O_3   0.714773 0.785335 0.176317 -0.518398
H1    H     H_    0.669045 0.908726 0.267018 0.154797
C1    C     C_3   0.540945 0.912451 0.134424 -1.035310
H2    H     H_    0.460416 0.969049 0.163784 0.249412
H3    H     H_    0.645655 0.958177 0.098859 0.280287
P2    P     P_3+3 0.668300 0.742890 0.573060 0.458496
P3    P     P_3+3 0.133825 0.843130 0.374968 0.514131
O7    O     O_2   0.845380 0.761330 0.544970 -0.384565
O8    O     O_3   0.088930 0.704860 0.376040 -0.395809
O9    O     O_2   0.006892 0.890328 0.437796 -0.315924
O10   O     O_3   0.680267 0.765837 0.695872 -0.582307
O11   O     O_3   0.096354 0.884931 0.261802 -0.476408
C2    C     C_3   0.116237 0.801947 0.194984 0.497318
H4    H     H_    0.022783 0.731523 0.204173 0.154222
H5    H     H_    0.239581 0.777271 0.201482 -0.013225
C3    C     C_3   0.095619 0.839842 0.095999 -0.933253
H6    H     H_    0.970670 0.861575 0.085670 0.291856
H7    H     H_    0.186714 0.911258 0.084779 0.254163
C4    C     C_3   0.227803 0.762270 0.656437 0.389167
H8    H     H_    0.348722 0.739389 0.638556 0.091231
H9    H     H_    0.140762 0.742119 0.595635 0.137253
C5    C     C_3   0.245653 0.882200 0.677913 -0.920149
H10   H     H_    0.329234 0.904272 0.739754 0.258605
H11   H     H_    0.297008 0.925452 0.616860 0.225537
H12   H     H_    0.123861 0.906413 0.693819 0.280237
Ba1   Ba    Ba6+2 0.855630 0.555280 0.454520 1.628174
C6    C     C_3   0.895586 0.229066 0.279653 0.849174
H13   H     H_    0.813140 0.276509 0.319107 -0.002046
C7    C     C_3   0.810757 0.180209 0.187414 -1.014556
H14   H     H_    0.777805 0.244044 0.143242 0.211161
H15   H     H_    0.697401 0.125973 0.202323 0.269950
H16   H     H_    0.894129 0.133641 0.146613 0.269691
C8    C     C_3   0.713720 0.673797 0.738481 0.430226
H17   H     H_    0.830565 0.650938 0.712436 0.096346
H18   H     H_    0.612751 0.606771 0.724083 0.124938
C9    C     C_3   0.729244 0.698040 0.844656 -0.991366
H19   H     H_    0.835090 0.761204 0.861385 0.273899
H20   H     H_    0.748427 0.625383 0.881255 0.227340
H21   H     H_    0.615290 0.726009 0.871166 0.259056
P4    P     P_3+3 0.135310 0.572810 0.713130 0.455740
O12   O     O_2   0.302330 0.539400 0.727760 -0.376378
O13   O     O_3   0.060300 0.548700 0.611500 -0.402409
O14   O     O_3   0.519500 0.346920 0.670840 -0.382667
O15   O     O_3   0.170777 0.711268 0.737067 -0.569616
P5    P     P_3+3 0.057755 0.156047 0.628306 0.497362
O16   O     O_3   0.614310 0.373510 0.452640 -0.384892
O17   O     O_3   0.100780 0.295230 0.623970 -0.374365
O18   O     O_2   0.193532 0.109565 0.571883 -0.344588
O19   O     O_3   0.090013 0.120137 0.743944 -0.539608
Ba2   Ba    Ba6+2 0.334200 0.444810 0.545490 1.603505
P6    P     P_3+3 0.654172 0.653927 0.206662 0.508620
C10   C     C_3   0.603747 0.851197 0.213512 0.471079
H22   H     H_    0.497597 0.808910 0.250414 0.018226
H23   H     H_    0.470099 0.855572 0.081585 0.261162
O20   O     O_3   0.575400 0.626570 0.547370 -0.376899
C11   C     C_3   0.467470 0.312707 0.257603 0.446169
H24   H     H_    0.369721 0.347737 0.296168 0.154234
H25   H     H_    0.580144 0.372314 0.258164 0.101526
C12   C     C_3   0.408571 0.285831 0.155743 -1.011513
H26   H     H_    0.289956 0.231688 0.153779 0.295007
H27   H     H_    0.391841 0.359858 0.120522 0.217742
H28   H     H_    0.499316 0.245564 0.115635 0.263051
P7    P     P_3+3 0.524945 0.241846 0.420222 0.448760
O21   O     O_2   0.344320 0.238700 0.455090 -0.287544
O22   O     O_3   0.501677 0.219004 0.297825 -0.596813
H29   H     H_    0.114074 0.775111 0.042889 0.219969
C13   C     C_3   0.047541 0.200630 0.807041 0.465662
H30   H     H_    0.131015 0.276582 0.799985 0.150700
H31   H     H_    0.918783 0.214060 0.794619 0.009903
C14   C     C_3   0.064371 0.166787 0.907649 -0.944953
H32   H     H_    0.193741 0.156864 0.923546 0.292647
H33   H     H_    0.027242 0.228611 0.958095 0.221421
H34   H     H_    0.984796 0.089793 0.916944 0.252591
P8    P     P_3+3 0.535814 0.346028 0.793530 0.448823
C15   C     C_3   0.545862 0.143382 0.765597 0.475381
H35   H     H_    0.658220 0.179859 0.730355 0.008308
O23   O     O_2   0.405023 0.409821 0.836213 -0.394033
O24   O     O_3   0.475945 0.215268 0.826560 -0.512690
H36   H     H_    0.453827 0.110098 0.710007 0.127425
H37   H     H_    0.688898 0.084734 0.875647 0.264273
C16   C     C_3   0.592503 0.052785 0.822128 -1.033251
H38   H     H_    0.640245 0.992410 0.774390 0.247053
H39   H     H_    0.483903 0.014033 0.859158 0.276998
C17   C     C_R   0.984380 0.448540 0.061919 -0.068910
C18   C     C_R   0.179949 0.503689 0.197653 0.079631
C19   C     C_R   0.333592 0.556281 0.228019 0.363517
C20   C     C_R   0.447047 0.599717 0.163646 0.095703
C21   C     C_R   0.403301 0.601415 0.068517 -0.407716
C22   C     C_R   0.246903 0.554390 0.035656 0.065323
C23   C     C_R   0.135386 0.501384 0.099248 -0.088777
C24   C     C_R   0.052877 0.504007 0.902157 -0.014890
C25   C     C_R   0.941556 0.450653 0.965627 0.049455
C26   C     C_R   0.008330 0.500814 0.803952 0.247293
C27   C     C_R   0.855545 0.446720 0.773385 -0.541267
C28   C     C_R   0.742440 0.401826 0.837245 0.259763
C29   C     C_R   0.785908 0.401569 0.932617 -0.314337
C30   C     C_R   0.203793 0.557519 0.939354 -0.095695
H40   H     H_    0.492062 0.638380 0.020224 0.187448
H41   H     H_    0.697693 0.364084 0.981009 0.156506
H42   H     H_    0.820384 0.444729 0.699502 0.174107
H43   H     H_    0.896977 0.406419 0.107182 0.149474
H44   H     H_    0.290392 0.601335 0.894106 0.163016
C31   C     C_R   0.763884 0.176486 0.533987 -0.404367
C32   C     C_R   0.430173 0.813196 0.461032 -0.492206
C33   C     C_R   0.406738 0.994730 0.426331 -0.199157
C34   C     C_R   0.341996 0.887307 0.422449 0.165052
C35   C     C_R   0.576576 0.846311 0.511994 0.278954
C36   C     C_R   0.641258 0.956958 0.520908 -0.030980
C37   C     C_R   0.555900 0.031382 0.475287 -0.048528
C38   C     C_R   0.619689 0.141038 0.481985 0.206875
C39   C     C_R   0.852108 0.104631 0.576193 0.264331
C40   C     C_R   0.788697 0.995809 0.572434 -0.193117
H45   H     H_    0.335843 0.048558 0.392992 0.217488
H46   H     H_    0.857528 0.943233 0.608788 0.173052
H47   H     H_    0.812944 0.260584 0.537287 0.163573
H48   H     H_    0.378834 0.729544 0.456658 0.211476
N1    N     N_R   0.936066 0.145425 0.339411 0.202786
O25   O     O_R   0.040410 0.171583 0.408870 -0.367475
O26   O     O_R   0.886563 0.044624 0.318703 -0.406041
F1    F     F_    0.376933 0.560080 0.320698 -0.670900

loop_
_geom_bond_atom_site_label_1
_geom_bond_atom_site_label_2
_geom_bond_distance
_ccdc_geom_bond_type
C16   H38   1.110916 S    
P7    C38   1.837164 S    
C20   C21   1.394708 A    
O3    Ba1   2.775539 S    
Ba1   O13   2.785853 S    
C13   H30   1.110357 S    
C33   C34   1.386773 A    
C14   H34   1.110296 S    
P8    O24   1.748765 S    
C36   C37   1.425804 A    
C31   C39   1.392653 A    
N1    O25   1.296952 A    
C8    H18   1.109905 S    
C4    C5    1.518146 S    
C28   C29   1.395753 A    
P3    O11   1.753497 S    
O1    Ba1   2.824679 S    
C5    H10   1.107138 S    
C7    H15   1.107967 S    
C14   H33   1.110128 S    
Ba1   O20   2.899246 S    
O11   C2    1.406235 S    
P3    C34   1.833508 S    
P7    O21   1.568666 D    
C6    C7    1.534348 S    
N1    O26   1.300543 A    
C37   C38   1.410944 A    
C29   H41   1.084122 S    
C33   H45   1.078793 S    
P1    O1    1.507024 D    
O10   C8    1.397971 S    
P7    O22   1.750024 S    
C4    O15   1.397727 S    
Ba1   O16   2.819650 S    
C11   H25   1.110154 S    
O16   P7    1.759702 S    
C31   C38   1.395126 A    
H1    C10   1.103501 S    
C18   C23   1.437076 A    
C22   C23   1.421539 A    
C12   H27   1.108178 S    
P2    O10   1.751703 S    
C30   H44   1.080311 S    
C1    H2    1.110834 S    
O6    C10   1.409541 S    
C21   H40   1.083505 S    
P1    C18   1.868270 S    
P6    C20   1.829988 S    
P2    Ba1   3.393466 S    
C13   H31   1.108976 S    
C21   C22   1.402983 A    
C9    H20   1.107662 S    
P8    O23   1.544418 D    
C3    H29   1.111700 S    
C24   C26   1.433609 A    
C22   C30   1.411455 A    
C24   C25   1.421263 A    
C8    C9    1.522533 S    
C32   C34   1.391440 A    
P4    O13   1.559641 S    
P1    O5    1.755574 S    
O8    Ba1   2.787845 S    
C2    C3    1.522712 S    
C14   H32   1.110265 S    
C8    H17   1.104765 S    
H37   C16   1.109763 S    
C19   C20   1.393277 A    
C4    H8    1.103303 S    
C25   C29   1.405879 A    
P1    Ba1   3.377388 S    
C15   H35   1.111620 S    
P1    O2    1.559759 S    
C9    H21   1.110846 S    
O3    P6    1.742896 S    
C11   H24   1.108642 S    
O2    Ba2   2.786424 S    
C26   C27   1.396773 A    
C12   H28   1.108424 S    
C7    H16   1.114060 S    
C6    H13   1.105891 S    
C24   C30   1.410397 A    
C17   C25   1.409365 A    
C1    H3    1.111389 S    
C32   C35   1.397592 A    
P4    C26   1.864753 S    
C36   C40   1.421196 A    
P2    O7    1.505615 D    
Ba2   O21   2.858030 S    
P3    O8    1.737468 S    
C13   C14   1.521982 S    
C3    H7    1.110343 S    
C9    H19   1.110835 S    
C18   C19   1.395366 A    
C15   O24   1.408795 S    
C35   C36   1.424986 A    
O17   Ba2   2.788438 S    
O13   Ba2   2.904780 S    
P4    O12   1.507378 D    
C1    C10   1.520797 S    
C11   C12   1.524791 S    
C2    H5    1.106343 S    
Ba2   O20   2.818977 S    
C5    H12   1.110489 S    
O7    Ba1   2.857813 S    
C19   F1    1.354994 S    
C17   H43   1.074935 S    
O14   P8    1.745733 S    
C17   C23   1.408786 A    
C4    H9    1.109881 S    
O14   Ba2   2.774943 S    
P4    O15   1.749693 S    
C27   H42   1.082172 S    
O5    C6    1.397576 S    
O4    P6    1.543327 D    
P8    C28   1.834102 S    
C1    H23   1.111421 S    
P5    O18   1.547245 D    
C2    H4    1.107191 S    
C5    H11   1.106332 S    
C10   H22   1.111272 S    
C39   C40   1.400560 A    
C32   H48   1.081656 S    
P2    O20   1.582964 S    
C15   C16   1.520954 S    
C31   H47   1.082374 S    
C27   C28   1.392813 A    
P5    C39   1.855087 S    
Ba1   Ba2   4.549115 S    
C11   O22   1.402966 S    
P2    C35   1.845477 S    
P5    O19   1.752144 S    
O2    Ba1   2.904016 S    
C40   H46   1.077643 S    
O19   C13   1.405177 S    
C12   H26   1.110538 S    
P3    O9    1.544928 D    
P4    Ba2   3.377844 S    
C6    N1    1.460410 S    
C16   H39   1.110277 S    
C3    H6    1.110043 S    
C33   C37   1.410024 A    
C7    H14   1.107776 S    
P5    O17   1.751295 S    
O6    P6    1.745411 S    
C15   H36   1.110621 S    
O16   Ba2   2.898463 S    
O12   Ba2   2.825193 S    
