data_mof_unit_33961.cif
_audit_creation_date              2012-12-11T15:49:10-0500
_audit_creation_method            fapswitch 2.2
_symmetry_space_group_name_H-M    P1
_symmetry_Int_Tables_number       1
_space_group_crystal_system       triclinic
_cell_length_a                    21.625565
_cell_length_b                    7.180231
_cell_length_c                    14.88703
_cell_angle_alpha                 90.000128
_cell_angle_beta                  106.504575
_cell_angle_gamma                 90.000088
_cell_volume                      2216.36168421

loop_
_atom_site_label
_atom_site_type_symbol
_atom_type_description
_atom_site_fract_x
_atom_site_fract_y
_atom_site_fract_z
_atom_type_partial_charge
O1    O     O_R   0.335860 0.638190 0.002110 -0.541498
O2    O     O_R   0.664140 0.361810 0.997890 -0.541496
O3    O     O_R   0.164140 0.138190 0.997890 -0.541502
O4    O     O_R   0.835860 0.861810 0.002110 -0.541500
O5    O     O_R   0.217530 0.305920 0.861960 -0.534904
O6    O     O_R   0.782470 0.694080 0.138040 -0.534903
O7    O     O_R   0.282470 0.805920 0.138040 -0.534898
O8    O     O_R   0.717530 0.194080 0.861960 -0.534898
C1    C     C_R   0.205981 0.476790 0.825802 0.686917
C2    C     C_R   0.794017 0.523210 0.174199 0.686911
C3    C     C_R   0.294016 0.976791 0.174199 0.686913
C4    C     C_R   0.705987 0.023209 0.825801 0.686908
O9    O     O_R   0.338690 0.308320 0.993240 -0.543910
O10   O     O_R   0.661310 0.691680 0.006760 -0.543913
O11   O     O_R   0.161310 0.808320 0.006760 -0.543910
O12   O     O_R   0.838690 0.191680 0.993240 -0.543912
O13   O     O_R   0.286170 0.140430 0.130100 -0.534789
O14   O     O_R   0.713830 0.859570 0.869900 -0.534789
O15   O     O_R   0.213830 0.640430 0.869900 -0.534783
O16   O     O_R   0.786170 0.359570 0.130100 -0.534783
C5    C     C_R   0.364974 0.477237 0.997789 0.670772
C6    C     C_R   0.635026 0.522763 0.002211 0.670770
C7    C     C_R   0.135026 0.977237 0.002211 0.670767
C8    C     C_R   0.864974 0.022763 0.997789 0.670767
O17   O     O_3   0.232630 0.472410 0.044750 -0.372731
O18   O     O_3   0.767370 0.527590 0.955250 -0.372729
O19   O     O_3   0.267370 0.972410 0.955250 -0.372726
O20   O     O_3   0.732630 0.027590 0.044750 -0.372725
V1    V     V_3+5 0.253220 0.196620 0.991700 1.449436
V2    V     V_3+5 0.746780 0.803380 0.008300 1.449437
V3    V     V_3+5 0.246780 0.696620 0.008300 1.449431
V4    V     V_3+5 0.753220 0.303380 0.991700 1.449432
C9    C     C_R   0.030119 0.826392 0.004733 -0.142600
C10   C     C_R   0.969881 0.173608 0.995267 -0.142608
C11   C     C_R   0.469879 0.326392 0.995261 -0.142599
C12   C     C_R   0.530121 0.673608 0.004739 -0.142607
H1    H     H_    0.052109 0.690075 0.008250 0.122666
H2    H     H_    0.947891 0.309924 0.991749 0.122667
H3    H     H_    0.447889 0.190075 0.991739 0.122669
H4    H     H_    0.552111 0.809925 0.008261 0.122670
C13   C     C_R   0.965132 0.837754 0.003058 -0.134744
C14   C     C_R   0.034868 0.162246 0.996942 -0.134753
C15   C     C_R   0.534867 0.337754 0.996937 -0.134743
C16   C     C_R   0.465133 0.662246 0.003063 -0.134752
H5    H     H_    0.939385 0.709434 0.005635 0.123603
H6    H     H_    0.060615 0.290566 0.994365 0.123603
H7    H     H_    0.560613 0.209433 0.994354 0.123602
H8    H     H_    0.439387 0.790567 0.005646 0.123603
C17   C     C_R   0.934004 0.011552 0.998301 -0.042466
C18   C     C_R   0.065996 0.988448 0.001699 -0.042467
C19   C     C_R   0.565996 0.511551 0.001699 -0.042466
C20   C     C_R   0.434003 0.488449 0.998301 -0.042467
C21   C     C_R   0.679268 0.015286 0.723818 -0.023580
C22   C     C_R   0.320736 0.984721 0.276180 -0.023577
C23   C     C_R   0.820735 0.515287 0.276180 -0.023573
C24   C     C_R   0.179261 0.484720 0.723822 -0.023569
C25   C     C_R   0.689990 0.017419 0.566602 -0.108746
C26   C     C_R   0.310013 0.982713 0.433395 -0.108747
C27   C     C_R   0.810009 0.517279 0.433394 -0.108750
C28   C     C_R   0.189989 0.482856 0.566610 -0.108752
C29   C     C_R   0.718854 0.020148 0.663349 0.113023
C30   C     C_R   0.281149 0.979946 0.336649 0.113023
C31   C     C_R   0.781145 0.520022 0.336647 0.113036
C32   C     C_R   0.218852 0.480075 0.663356 0.113037
C33   C     C_R   0.612175 0.007431 0.687202 -0.212582
C34   C     C_R   0.387829 0.992538 0.312793 -0.212585
C35   C     C_R   0.887828 0.507508 0.312796 -0.212586
C36   C     C_R   0.112167 0.492458 0.687209 -0.212589
C37   C     C_R   0.582111 0.005783 0.589475 0.043604
C38   C     C_R   0.417892 0.994266 0.410520 0.043606
C39   C     C_R   0.917891 0.505782 0.410524 0.043607
C40   C     C_R   0.082106 0.494265 0.589482 0.043609
C41   C     C_R   0.622564 0.010895 0.529302 -0.025020
C42   C     C_R   0.377438 0.989213 0.470693 -0.025021
C43   C     C_R   0.877435 0.510843 0.470695 -0.025017
C44   C     C_R   0.122563 0.489266 0.529310 -0.025018
C45   C     C_R   0.513470 0.000221 0.549788 -0.023127
C46   C     C_R   0.486533 0.999849 0.450206 -0.023124
C47   C     C_R   0.986531 0.500209 0.450212 -0.023127
C48   C     C_R   0.013466 0.499860 0.549794 -0.023124
C49   C     C_R   0.529122 0.004868 0.393648 -0.230873
C50   C     C_R   0.470880 0.995258 0.606347 -0.230874
C51   C     C_R   0.970878 0.504936 0.606351 -0.230875
C52   C     C_R   0.029121 0.495190 0.393655 -0.230876
C53   C     C_R   0.595503 0.010131 0.432293 0.583265
C54   C     C_R   0.404499 0.990020 0.567702 0.583267
C55   C     C_R   0.904496 0.510138 0.567705 0.583272
C56   C     C_R   0.095502 0.490014 0.432300 0.583275
H9    H     H_    0.414913 0.995294 0.262298 0.100713
H10   H     H_    0.585094 0.004577 0.737697 0.100719
H11   H     H_    0.085080 0.495079 0.737702 0.100704
H12   H     H_    0.914913 0.504786 0.262302 0.100710
H13   H     H_    0.720691 0.021160 0.520312 0.183907
H14   H     H_    0.279311 0.979028 0.479685 0.183908
H15   H     H_    0.779304 0.520948 0.479681 0.183902
H16   H     H_    0.220694 0.479245 0.520322 0.183903
H17   H     H_    0.512954 0.005154 0.318355 0.150685
H18   H     H_    0.487048 0.995032 0.681639 0.150685
H19   H     H_    0.987046 0.505331 0.681643 0.150686
H20   H     H_    0.012953 0.494855 0.318363 0.150686
F1    F     F_    0.633552 0.015126 0.373674 -0.709792
F2    F     F_    0.366450 0.985092 0.626321 -0.709793
F3    F     F_    0.866446 0.515166 0.626322 -0.709797
F4    F     F_    0.133553 0.485055 0.373683 -0.709798
C57   C     C_3   0.208537 0.972200 0.301575 -0.716203
H21   H     H_    0.190081 0.972429 0.224072 0.185495
H22   H     H_    0.191068 0.843513 0.327839 0.244540
H23   H     H_    0.187802 0.094854 0.328123 0.238946
C58   C     C_3   0.791465 0.027944 0.698422 -0.716208
H24   H     H_    0.809920 0.027652 0.775926 0.185494
H25   H     H_    0.812210 0.905341 0.671849 0.238964
H26   H     H_    0.808921 0.156682 0.672186 0.244527
C59   C     C_3   0.291467 0.472467 0.698435 -0.716216
H27   H     H_    0.309915 0.472364 0.775940 0.185513
H28   H     H_    0.308976 0.344003 0.672031 0.244466
H29   H     H_    0.312171 0.595337 0.672016 0.239004
C60   C     C_3   0.708532 0.527683 0.301569 -0.716223
H30   H     H_    0.690083 0.527720 0.224064 0.185512
H31   H     H_    0.687817 0.404866 0.328014 0.239020
H32   H     H_    0.691037 0.656201 0.327943 0.244456

loop_
_geom_bond_atom_site_label_1
_geom_bond_atom_site_label_2
_ccdc_geom_bond_type
O17   V3    S    
C51   C55   A    
C26   C30   A    
O19   V1    S    
O13   V1    S    
C37   C45   A    
C10   C14   A    
C40   C44   A    
C29   C58   S    
C11   C15   A    
C39   C47   A    
C30   C57   S    
C45   C46   A    
O1    C5    A    
C57   H22   S    
O9    V1    S    
C58   H25   S    
C47   C52   A    
C31   C60   S    
C33   C37   A    
C38   C46   A    
O1    V3    S    
C36   H11   S    
O2    V4    S    
C14   H6    S    
C25   C41   A    
O3    V1    S    
C38   C42   A    
O3    C7    A    
C1    O15   A    
C2    O16   A    
C23   C31   A    
O2    C6    A    
C24   C32   A    
C37   C41   A    
O14   V2    S    
C21   C33   A    
C44   C56   A    
C4    C21   S    
C36   C40   A    
C59   H29   S    
C16   C20   A    
O11   C7    A    
O15   V3    S    
O12   C8    A    
C25   H13   S    
C50   H18   S    
C27   H15   S    
O10   V2    S    
C48   C51   A    
C13   C17   A    
C56   F4    S    
C34   H9    S    
O5    V1    S    
C33   H10   S    
C57   H23   S    
O7    V3    S    
C52   H20   S    
C12   H4    S    
C58   H26   S    
O18   V4    S    
C7    C18   S    
C22   C30   A    
C9    C18   A    
C50   C54   A    
C28   C44   A    
C9    H1    S    
O8    V4    S    
O7    C3    A    
O5    C1    A    
O8    C4    A    
O9    C5    A    
C1    C24   S    
C42   C54   A    
C25   C29   A    
C2    C23   S    
C3    C22   S    
C41   C53   A    
C12   C19   A    
C14   C18   A    
C55   F3    S    
C28   H16   S    
C43   C55   A    
O6    V2    S    
C60   H32   S    
C21   C29   A    
C54   F2    S    
C27   C43   A    
C53   F1    S    
C26   C42   A    
C59   H27   S    
O16   V4    S    
C8    C17   S    
C3    O13   A    
C10   C17   A    
C32   C59   S    
C10   H2    S    
C52   C56   A    
O6    C2    A    
C23   C35   A    
O11   V3    S    
C22   C34   A    
O12   V4    S    
C57   H21   S    
C27   C31   A    
C28   C32   A    
C9    C13   A    
O10   C6    A    
C60   H31   S    
C26   H14   S    
C40   C48   A    
C24   C36   A    
C60   H30   S    
C39   C43   A    
C46   C49   A    
C15   C19   A    
C34   C38   A    
C49   H17   S    
C45   C50   A    
O4    C8    A    
C11   H3    S    
O20   V2    S    
C35   H12   S    
C35   C39   A    
O4    V2    S    
C12   C16   A    
C47   C48   A    
C4    O14   A    
C11   C20   A    
C13   H5    S    
C51   H19   S    
C58   H24   S    
C15   H7    S    
C5    C20   S    
C49   C53   A    
C16   H8    S    
C6    C19   S    
C59   H28   S    
