data_mof_unit_39725.cif
_audit_creation_date              2012-12-11T16:04:54-0500
_audit_creation_method            fapswitch 2.2
_symmetry_space_group_name_H-M    P1
_symmetry_Int_Tables_number       1
_space_group_crystal_system       triclinic
_cell_length_a                    10.636868
_cell_length_b                    10.624724
_cell_length_c                    16.882593
_cell_angle_alpha                 98.712817
_cell_angle_beta                  98.847586
_cell_angle_gamma                 61.8268
_cell_volume                      1655.07935933

loop_
_atom_site_label
_atom_site_type_symbol
_atom_type_description
_atom_site_fract_x
_atom_site_fract_y
_atom_site_fract_z
_atom_type_partial_charge
C1    C     C_R   0.383240 0.705333 0.386827 0.562285
C2    C     C_3   0.740706 0.393600 0.254784 -0.138473
C3    C     C_3   0.845121 0.332451 0.328411 0.065513
C4    C     C_3   0.918740 0.185980 0.281326 0.073093
C5    C     C_3   0.025091 0.233019 0.257219 -0.149085
C6    C     C_3   0.948758 0.380535 0.305795 -0.135905
C7    C     C_3   0.843956 0.443075 0.231657 -0.117423
C8    C     C_3   0.919534 0.297233 0.183912 0.033479
C9    C     C_3   0.434274 0.675095 0.184941 -0.152543
C10   C     C_3   0.314351 0.686335 0.231608 -0.128878
C11   C     C_3   0.376198 0.744871 0.307134 0.050489
C12   C     C_R   0.369511 0.345834 0.359256 0.529766
C13   C     C_3   0.497422 0.733042 0.262599 -0.126716
C14   C     C_3   0.401260 0.888455 0.240586 -0.123935
C15   C     C_3   0.282342 0.899096 0.286973 -0.098834
C16   C     C_3   0.219042 0.841326 0.210928 -0.081753
C17   C     C_3   0.338734 0.829449 0.165022 0.048176
C18   C     C_3   0.459757 0.269960 0.777259 -0.117878
C19   C     C_3   0.390837 0.409720 0.735417 -0.112549
C20   C     C_3   0.337425 0.333950 0.663384 0.054322
C21   C     C_3   0.406324 0.195045 0.704602 -0.109193
C22   C     C_3   0.263815 0.247266 0.741132 -0.106728
C23   C     C_R   0.783458 0.373104 0.404709 0.560938
C24   C     C_3   0.195106 0.387142 0.698747 -0.119522
C25   C     C_3   0.248351 0.461776 0.772381 -0.119152
C26   C     C_3   0.318166 0.322240 0.813100 0.052459
C27   C     C_1   0.767746 0.368022 0.715581 -0.044512
C28   C     C_1   0.812527 0.330077 0.782279 -0.050391
C29   C     C_1   0.338593 0.812217 0.709810 -0.051635
C30   C     C_1   0.313403 0.838796 0.778595 -0.046130
C31   C     C_R   0.959444 0.284183 0.102916 0.560346
C32   C     C_R   0.318961 0.298850 0.120426 0.534020
C33   C     C_R   0.296421 0.887904 0.087551 0.539712
C34   C     C_R   0.356541 0.772244 0.627122 0.549196
C35   C     C_R   0.878419 0.302304 0.862242 0.552053
C36   C     C_R   0.308379 0.294550 0.892201 0.543684
C37   C     C_R   0.280301 0.884005 0.859154 0.545585
C38   C     C_R   0.367110 0.345521 0.585154 0.536668
C39   C     C_R   0.717863 0.410683 0.635618 0.547703
C40   C     C_1   0.342172 0.334149 0.275551 -0.058506
C41   C     C_1   0.330892 0.323965 0.204242 -0.057558
C42   C     C_3   0.815954 0.247996 0.206337 -0.091025
Cr1   Cr    Cr6+3 0.608340 0.611040 0.520430 1.022585
Cr2   Cr    Cr6+3 0.287650 0.601120 0.489350 1.037527
Cr3   Cr    Cr6+3 0.604040 0.287870 0.490280 1.055830
Cr4   Cr    Cr6+3 0.054020 0.052700 0.970850 1.023961
Cr5   Cr    Cr6+3 0.059230 0.375120 0.993390 1.026065
Cr6   Cr    Cr6+3 0.374950 0.061200 0.992340 1.026382
H1    H     H_    0.623571 0.449384 0.257751 0.108667
H2    H     H_    0.436480 0.972060 0.242367 0.138412
H3    H     H_    0.226179 0.986408 0.333250 0.152310
H4    H     H_    0.104390 0.885209 0.187652 0.166363
H5    H     H_    0.443233 0.477058 0.730959 0.101459
H6    H     H_    0.567506 0.224182 0.811101 0.128722
H7    H     H_    0.469046 0.085966 0.675149 0.135931
H8    H     H_    0.211073 0.180309 0.745803 0.121622
H9    H     H_    0.087836 0.432946 0.664421 0.142542
H10   H     H_    0.185760 0.570355 0.802392 0.133794
H11   H     H_    0.761363 0.194693 0.163786 0.145564
H12   H     H_    0.142240 0.173427 0.253551 0.097405
H13   H     H_    0.002773 0.434306 0.348436 0.137756
H14   H     H_    0.813064 0.548541 0.210276 0.143450
H15   H     H_    0.275468 0.605894 0.229660 0.126660
H16   H     H_    0.495701 0.585753 0.140827 0.120058
H17   H     H_    0.610354 0.692876 0.288448 0.137056
O1    O     O_R   0.751220 0.499230 0.435170 -0.530428
O2    O     O_R   0.297880 0.469080 0.560050 -0.503611
O3    O     O_R   0.489720 0.254590 0.564810 -0.517729
O4    O     O_R   0.725220 0.304230 0.585080 -0.481352
O5    O     O_3   0.500010 0.500010 0.500020 -0.306229
O6    O     O_R   0.171830 0.913880 0.057510 -0.531429
O7    O     O_R   0.940690 0.186050 0.054730 -0.503768
O8    O     O_R   0.920470 0.405720 0.075010 -0.514472
O9    O     O_R   0.196690 0.370460 0.084120 -0.513730
O10   O     O_R   0.412990 0.180750 0.091610 -0.508127
O11   O     O_R   0.366620 0.943130 0.065760 -0.500870
O12   O     O_R   0.477220 0.727600 0.436870 -0.498841
O13   O     O_R   0.160510 0.906330 0.879210 -0.508338
O14   O     O_R   0.930190 0.179050 0.889450 -0.490041
O15   O     O_R   0.909140 0.398170 0.896710 -0.501453
O16   O     O_R   0.186190 0.363460 0.918830 -0.499211
O17   O     O_R   0.401670 0.173200 0.913310 -0.513385
O18   O     O_R   0.356120 0.936130 0.900470 -0.493556
O19   O     O_3   0.162740 0.163010 0.985530 -0.277077
O20   O     O_R   0.258650 0.745120 0.411470 -0.475981
O21   O     O_R   0.297070 0.467240 0.395960 -0.519559
O22   O     O_R   0.488830 0.252610 0.387790 -0.490469
O23   O     O_R   0.724400 0.302390 0.420980 -0.467937
O24   O     O_R   0.752100 0.501210 0.612190 -0.507121
O25   O     O_R   0.478040 0.729440 0.600970 -0.507502
O26   O     O_R   0.259530 0.747110 0.588490 -0.492365
I1    I     I_    0.933586 0.001532 0.327891 -0.376700

loop_
_geom_bond_atom_site_label_1
_geom_bond_atom_site_label_2
_ccdc_geom_bond_type
C18   C21   S    
C1    O12   A    
Cr6   O11   S    
C3    C23   S    
C19   C20   S    
C1    C11   S    
C3    C6    S    
C32   O10   A    
C7    C8    S    
C13   H17   S    
Cr1   O24   S    
C6    H13   S    
Cr3   O22   S    
C8    C42   S    
C32   O9    A    
C5    C6    S    
C31   O8    A    
C15   C16   S    
C9    H16   S    
C35   O15   A    
C18   C19   S    
C9    C13   S    
C34   O26   A    
C11   C15   S    
C10   H15   S    
C2    C7    S    
C28   C35   S    
C36   O17   A    
C24   H9    S    
C18   C26   S    
C32   C41   S    
Cr2   O5    S    
C15   H3    S    
C9    C10   S    
Cr4   O7    S    
C5    H12   S    
C19   H5    S    
C21   C22   S    
Cr6   O10   S    
C17   C33   S    
Cr5   O15   S    
Cr2   O21   S    
C1    O20   A    
Cr1   O25   S    
C14   H2    S    
Cr3   O4    S    
C20   C24   S    
Cr3   O23   S    
C24   C25   S    
Cr5   O8    S    
C27   C39   S    
Cr4   O13   S    
C18   H6    S    
C16   C17   S    
C22   H8    S    
C25   C26   S    
C29   C34   S    
Cr6   O19   S    
C30   C37   S    
C12   C40   S    
C34   O25   A    
C7    H14   S    
C29   C30   T    
C2    H1    S    
C20   C38   S    
C33   O11   A    
C36   O16   A    
Cr3   O3    S    
C39   O4    A    
Cr5   O19   S    
C20   C21   S    
Cr4   O6    S    
Cr2   O26   S    
Cr4   O19   S    
C9    C17   S    
C31   O7    A    
C38   O3    A    
Cr1   O5    S    
C23   O23   A    
C22   C24   S    
C25   H10   S    
C3    C4    S    
C23   O1    A    
C21   H7    S    
C26   C36   S    
C40   C41   T    
C12   O22   A    
Cr3   O5    S    
C8    C31   S    
C16   H4    S    
Cr5   O9    S    
C4    C5    S    
C42   H11   S    
C5    C8    S    
C6    C7    S    
Cr1   O12   S    
C37   O13   A    
Cr6   O18   S    
C12   O21   A    
C2    C3    S    
C10   C16   S    
C11   C13   S    
Cr4   O14   S    
C4    C42   S    
C2    C42   S    
Cr1   O1    S    
C35   O14   A    
Cr6   O17   S    
Cr5   O16   S    
C19   C25   S    
C10   C11   S    
C33   O6    A    
C38   O2    A    
C22   C26   S    
C27   C28   T    
C14   C15   S    
C37   O18   A    
Cr2   O2    S    
C13   C14   S    
C39   O24   A    
Cr2   O20   S    
C4    I1    S    
C14   C17   S    
