data_mof_unit_41611.cif
_audit_creation_date              2012-12-10T17:58:56-0500
_audit_creation_method            fapswitch 2.2
_symmetry_space_group_name_H-M    P1
_symmetry_Int_Tables_number       1
_space_group_crystal_system       triclinic
_cell_length_a                    9.665046
_cell_length_b                    10.768686
_cell_length_c                    13.915122
_cell_angle_alpha                 92.892055
_cell_angle_beta                  85.081694
_cell_angle_gamma                 90.408614
_cell_volume                      1441.10757687

loop_
_atom_site_label
_atom_site_type_symbol
_atom_type_description
_atom_site_fract_x
_atom_site_fract_y
_atom_site_fract_z
_atom_type_partial_charge
C1    C     C_R   0.500368 0.736961 0.500746 0.818660
C2    C     C_R   0.499556 0.263040 0.499965 0.809994
C3    C     C_R   0.498735 0.128871 0.500162 -0.095668
C4    C     C_R   0.501110 0.871297 0.500658 -0.083127
C5    C     C_R   0.477582 0.501998 0.682449 0.775120
C6    C     C_R   0.522426 0.500048 0.317617 0.788618
C7    C     C_R   0.920583 0.582354 0.559873 0.224946
C8    C     C_R   0.079657 0.419428 0.438531 0.219747
C9    C     C_R   0.068798 0.582214 0.558871 0.072674
C10   C     C_R   0.931417 0.420400 0.438927 0.065397
C11   C     C_1   0.535742 0.501635 0.215066 -0.062920
C12   C     C_1   0.464256 0.502204 0.785093 -0.108686
C13   C     C_2   0.557861 0.506160 0.025050 -0.013718
C14   C     C_2   0.441972 0.501005 0.975276 -0.017929
C15   C     C_1   0.453580 0.501874 0.871615 -0.015608
C16   C     C_1   0.546365 0.503542 0.128620 -0.007126
C17   C     C_R   0.485143 0.940367 0.589661 0.152988
C18   C     C_R   0.514946 0.059274 0.410939 0.117288
C19   C     C_R   0.483459 0.071001 0.589592 0.138061
C20   C     C_R   0.515786 0.928563 0.411425 0.136410
Cu1   Cu    Cu3+1 0.359340 0.499980 0.500000 0.959702
Cu2   Cu    Cu3+1 0.640660 0.500020 0.500000 0.963143
N1    N     N_R   0.147930 0.499970 0.499980 -0.208962
N2    N     N_R   0.852070 0.500030 0.500020 -0.207566
O1    O     O_R   0.381260 0.680340 0.500000 -0.546315
O2    O     O_R   0.618740 0.319660 0.500000 -0.598864
O3    O     O_R   0.618830 0.680370 0.500010 -0.593071
O4    O     O_R   0.381170 0.319630 0.499990 -0.580303
O5    O     O_R   0.364420 0.499960 0.637840 -0.610157
O6    O     O_R   0.635580 0.500040 0.362160 -0.544528
O7    O     O_R   0.601990 0.499990 0.637850 -0.559737
O8    O     O_R   0.398010 0.500010 0.362150 -0.570037
C21   C     C_3   0.844509 0.676563 0.629341 -0.712304
H1    H     H_    0.871545 0.772019 0.607432 0.230630
H2    H     H_    0.732430 0.670926 0.635108 0.263010
H3    H     H_    0.875011 0.665249 0.703568 0.205538
C22   C     C_3   0.155768 0.326608 0.367603 -0.706772
H4    H     H_    0.132967 0.346023 0.292978 0.250031
H5    H     H_    0.268123 0.325244 0.366173 0.268866
H6    H     H_    0.119938 0.231007 0.383547 0.180806
C23   C     C_2   0.137512 0.673162 0.622083 0.423848
H7    H     H_    0.179789 0.644184 0.686888 0.061331
O9    O     O_2   0.141343 0.782977 0.604023 -0.553400
C24   C     C_2   0.862903 0.333744 0.372222 0.434423
H8    H     H_    0.821938 0.245881 0.396916 0.070338
O10   O     O_2   0.859155 0.357186 0.287571 -0.548596
C25   C     C_2   0.296737 0.493187 0.020758 0.359594
H9    H     H_    0.211324 0.488477 0.974793 0.076697
O11   O     O_2   0.269453 0.492015 0.107994 -0.530457
C26   C     C_2   0.703048 0.514557 0.979593 0.361299
H10   H     H_    0.788705 0.515266 0.025310 0.093248
O12   O     O_2   0.729979 0.521326 0.892695 -0.543596
C27   C     C_3   0.472328 0.871959 0.683166 -0.820032
H11   H     H_    0.453007 0.932249 0.749534 0.240574
H12   H     H_    0.385113 0.804671 0.682832 0.239074
H13   H     H_    0.569551 0.820584 0.689942 0.207602
C28   C     C_3   0.531090 0.123143 0.315581 -0.832119
H14   H     H_    0.529305 0.225894 0.322938 0.210582
H15   H     H_    0.632163 0.097124 0.275951 0.244668
H16   H     H_    0.444753 0.094886 0.271374 0.239663
C29   C     C_3   0.466491 0.147154 0.684780 -0.807205
H17   H     H_    0.467546 0.248575 0.677017 0.215893
H18   H     H_    0.365411 0.124700 0.724265 0.238302
H19   H     H_    0.552812 0.126582 0.729246 0.235381
C30   C     C_3   0.531857 0.847251 0.318477 -0.820048
H20   H     H_    0.439391 0.786101 0.314028 0.236082
H21   H     H_    0.542811 0.898883 0.251577 0.239582
H22   H     H_    0.625754 0.788361 0.318152 0.229038

loop_
_geom_bond_atom_site_label_1
_geom_bond_atom_site_label_2
_ccdc_geom_bond_type
C29   H19   S    
C6    O8    A    
C3    C19   A    
C14   C25   S    
C13   C14   D    
C25   O11   D    
C23   O9    D    
C23   H7    S    
C18   C28   S    
C9    C23   S    
C25   H9    S    
C30   H21   S    
C12   C15   T    
C1    C4    S    
C10   N2    A    
Cu2   O7    S    
C30   H22   S    
Cu1   N1    S    
C2    C3    S    
C13   C16   S    
C2    O2    A    
Cu1   Cu2   S    
C21   H3    S    
C1    O1    A    
C7    C21   S    
C28   H14   S    
C22   H4    S    
C26   O12   D    
C19   C29   S    
C4    C17   A    
C8    C10   A    
C17   C19   A    
Cu1   O4    S    
C24   O10   D    
C26   H10   S    
C22   H6    S    
C18   C20   A    
Cu2   O3    S    
C27   H12   S    
C29   H17   S    
Cu1   O8    S    
Cu2   N2    S    
C28   H15   S    
C11   C16   T    
C2    O4    A    
C8    C22   S    
C10   C24   S    
C13   C26   S    
C4    C20   A    
C5    O5    A    
C17   C27   S    
C20   C30   S    
C8    N1    A    
C21   H1    S    
C24   H8    S    
C3    C18   A    
C22   H5    S    
C30   H20   S    
Cu2   O2    S    
C27   H13   S    
C6    C11   S    
C1    O3    A    
C7    C9    A    
C14   C15   S    
C9    N1    A    
C28   H16   S    
Cu1   O1    S    
Cu2   O6    S    
C21   H2    S    
C27   H11   S    
Cu1   O5    S    
C6    O6    A    
C29   H18   S    
C7    N2    A    
C5    O7    A    
C5    C12   S    
