data_mof_unit_67646.cif
_audit_creation_date              2013-03-05T16:35:15-0500
_audit_creation_method            fapswitch 2.2
_symmetry_space_group_name_H-M    P1
_symmetry_Int_Tables_number       1
_space_group_crystal_system       triclinic
_cell_length_a                    11.045864
_cell_length_b                    9.202815
_cell_length_c                    7.929593
_cell_angle_alpha                 91.350325
_cell_angle_beta                  88.580836
_cell_angle_gamma                 93.129475
_cell_volume                      804.419047987

loop_
_atom_site_label
_atom_site_type_symbol
_atom_site_description
_atom_site_fract_x
_atom_site_fract_y
_atom_site_fract_z
_atom_type_partial_charge
O1    O     O_R   0.500000 0.288400 0.642760 -0.613699
O2    O     O_R   0.500000 0.288400 0.357240 -0.595265
C1    C     C_R   0.503055 0.220588 0.499063 0.763861
O3    O     O_R   0.317700 0.499990 0.642790 -0.514791
O4    O     O_R   0.317700 0.499990 0.357210 -0.569568
O5    O     O_R   0.682300 0.499990 0.642790 -0.596240
O6    O     O_R   0.682300 0.499990 0.357210 -0.532242
N1    N     N_1   0.500000 0.499970 0.076820 -0.021816
N2    N     N_1   0.500000 0.499970 0.923180 -0.024751
C2    C     C_R   0.259823 0.491146 0.501135 0.841091
C3    C     C_R   0.739839 0.488349 0.499738 0.826596
Cu1   Cu    Cu3+1 0.500000 0.500010 0.669080 1.036686
Cu2   Cu    Cu3+1 0.500000 0.500010 0.330920 1.020403
O7    O     O_R   0.500000 0.711620 0.642810 -0.561807
O8    O     O_R   0.500000 0.711620 0.357190 -0.593865
C4    C     C_R   0.497433 0.779376 0.501633 0.845128
C5    C     C_1   0.497593 0.065106 0.500070 -0.221420
C6    C     C_3   0.069124 0.461151 0.691004 0.632823
C7    C     C_3   0.070187 0.356791 0.370118 0.511138
C8    C     C_3   0.922900 0.449118 0.696504 0.564619
C9    C     C_3   0.924365 0.343662 0.385866 0.551344
C10   C     C_1   0.495412 0.934378 0.503598 -0.177704
H1    H     H_    0.107317 0.721238 0.522599 0.209191
H2    H     H_    0.114753 0.659541 0.319668 0.259289
H3    H     H_    0.902762 0.712083 0.514513 0.213916
H4    H     H_    0.912357 0.631650 0.306302 0.273641
C11   C     C_3   0.076116 0.626328 0.444051 -0.487009
C12   C     C_3   0.937146 0.618589 0.439607 -0.533756
C13   C     C_3   0.121926 0.478502 0.503206 -0.232369
C14   C     C_3   0.878051 0.472186 0.505589 -0.205127
Br1   Br    Br    0.133323 0.633793 0.823308 -0.455565
Br2   Br    Br    0.120377 0.420475 0.142009 -0.422932
Br3   Br    Br    0.858325 0.601086 0.855896 -0.469854
Br4   Br    Br    0.845679 0.351286 0.165163 -0.503499
O9    O     O_3   0.125718 0.354720 0.785533 -0.527638
C15   C     C_3   0.113589 0.206780 0.739045 0.159107
H5    H     H_    0.200331 0.173906 0.680946 0.137764
H6    H     H_    0.038240 0.177304 0.656754 0.242431
C16   C     C_3   0.090939 0.120673 0.897713 -0.357055
H7    H     H_    0.172642 0.133631 0.974405 0.239478
H8    H     H_    0.014034 0.162922 0.971580 0.288903
C17   C     C_3   0.063929 0.961775 0.855260 -0.902218
H9    H     H_    0.979733 0.945695 0.782144 0.270236
H10   H     H_    0.052448 0.900260 0.973790 0.301023
H11   H     H_    0.141039 0.922674 0.777857 0.281474
O10   O     O_3   0.110118 0.214411 0.396646 -0.692505
C18   C     C_3   0.223176 0.172299 0.330871 0.071620
H12   H     H_    0.289723 0.202517 0.426097 0.137771
H13   H     H_    0.255431 0.221899 0.212189 0.207395
C19   C     C_3   0.217003 0.005642 0.307511 -0.401890
H14   H     H_    0.226983 0.955882 0.432468 0.202366
H15   H     H_    0.126934 0.967353 0.259798 0.229485
C20   C     C_3   0.313733 0.950011 0.183827 -0.819556
H16   H     H_    0.286903 0.960364 0.051494 0.261515
H17   H     H_    0.324201 0.832589 0.204314 0.283420
H18   H     H_    0.402308 0.010565 0.199029 0.259319
O11   O     O_3   0.889121 0.308852 0.765169 -0.600416
C21   C     C_3   0.764912 0.262704 0.781368 0.239949
H19   H     H_    0.722334 0.252402 0.657488 0.153789
H20   H     H_    0.715383 0.336464 0.867606 0.222535
C22   C     C_3   0.753266 0.108178 0.850596 -0.371712
H21   H     H_    0.780298 0.029413 0.750312 0.213658
H22   H     H_    0.814521 0.097872 0.957125 0.257326
C23   C     C_3   0.624169 0.066629 0.912256 -0.876597
H23   H     H_    0.557022 0.090418 0.818251 0.275245
H24   H     H_    0.602271 0.127450 0.030579 0.267698
H25   H     H_    0.614549 0.948056 0.933526 0.268810
O12   O     O_3   0.883642 0.210089 0.461932 -0.642514
C24   C     C_3   0.889739 0.081594 0.359938 0.122930
H26   H     H_    0.941385 0.002339 0.428795 0.161835
H27   H     H_    0.936430 0.097457 0.235831 0.179469
C25   C     C_3   0.761928 0.016334 0.337865 -0.420748
H28   H     H_    0.725140 0.991151 0.465356 0.219026
H29   H     H_    0.705657 0.097407 0.280994 0.260933
C26   C     C_3   0.756504 0.876981 0.230432 -0.822232
H30   H     H_    0.824814 0.880406 0.125231 0.272471
H31   H     H_    0.664766 0.858683 0.178604 0.275792
H32   H     H_    0.769277 0.783935 0.311305 0.253863

loop_
_geom_bond_atom_site_label_1
_geom_bond_atom_site_label_2
_geom_bond_distance
_ccdc_geom_bond_type
N1    Cu2   2.014900 S    
C11   C13   1.563268 S    
O9    C15   1.402250 S    
H2    C11   1.107912 S    
C7    O10   1.427008 S    
C18   H13   1.098566 S    
C8    C14   1.626681 S    
C20   H16   1.105098 S    
H3    C12   1.112553 S    
O6    C3    1.319644 A    
C15   H5    1.106808 S    
C7    C9    1.610634 S    
O5    Cu1   2.019291 S    
C21   H20   1.108082 S    
O8    C4    1.291573 A    
C24   H27   1.108691 S    
C22   H22   1.104295 S    
O2    Cu2   1.963445 S    
C3    C14   1.543905 S    
O12   C24   1.420539 S    
C19   H15   1.109600 S    
H1    C11   1.105321 S    
C16   C17   1.508253 S    
C6    O9    1.427118 S    
O4    Cu2   2.019273 S    
C21   C22   1.534117 S    
C24   H26   1.111381 S    
O1    Cu1   1.953664 S    
C17   H10   1.109636 S    
C25   C26   1.522048 S    
C7    Br2   1.971658 S    
N2    Cu1   2.014917 S    
C18   C19   1.538524 S    
C20   H17   1.109200 S    
C19   C20   1.532902 S    
C23   H25   1.107063 S    
C25   H29   1.107580 S    
C16   H7    1.100248 S    
N1    N2    1.218303 T    
C9    Br4   1.977614 S    
C21   H19   1.099436 S    
O1    C1    1.286790 A    
C17   H11   1.108526 S    
C23   H24   1.109465 S    
C24   C25   1.516299 S    
C26   H30   1.110714 S    
C18   H12   1.087712 S    
C19   H14   1.111730 S    
C6    C13   1.594140 S    
C26   H31   1.105809 S    
C8    Br3   2.010750 S    
Cu1   O7    1.963391 S    
Cu2   O8    1.953629 S    
C9    O12   1.427704 S    
O7    C4    1.295855 A    
O3    Cu1   2.029543 S    
C17   H9    1.109334 S    
O3    C2    1.304848 A    
C7    C13   1.612207 S    
O5    C3    1.291573 A    
C20   H18   1.107002 S    
O10   C18   1.411674 S    
C4    C10   1.427563 S    
C15   C16   1.511053 S    
C25   H28   1.105113 S    
C9    C14   1.597200 S    
H4    C12   1.109367 S    
C5    C10   1.202961 T    
C23   H23   1.098406 S    
C12   C14   1.560574 S    
O2    C1    1.300986 A    
O4    C2    1.296289 A    
C22   C23   1.527568 S    
C2    C13   1.520997 S    
O11   C21   1.417544 S    
C15   H6    1.089029 S    
C1    C5    1.429054 S    
C6    C8    1.612497 S    
C22   H21   1.109792 S    
C26   H32   1.099062 S    
O6    Cu2   2.029563 S    
Cu1   Cu2   2.681472 S    
C16   H8    1.102982 S    
C11   C12   1.534046 S    
C6    Br1   1.990742 S    
C8    O11   1.439587 S    
