data_mof_unit_11464.cif
_audit_creation_date              2012-12-11T15:15:44-0500
_audit_creation_method            fapswitch 2.2
_symmetry_space_group_name_H-M    P1
_symmetry_Int_Tables_number       1
_space_group_crystal_system       triclinic
_cell_length_a                    18.826369
_cell_length_b                    18.859508
_cell_length_c                    20.370592
_cell_angle_alpha                 107.34163
_cell_angle_beta                  106.415434
_cell_angle_gamma                 111.014648
_cell_volume                      5796.45890104

loop_
_atom_site_label
_atom_site_type_symbol
_atom_type_description
_atom_site_fract_x
_atom_site_fract_y
_atom_site_fract_z
_atom_type_partial_charge
C1    C     C_R   0.040154 0.088360 0.345408 -0.143649
C2    C     C_R   0.238383 0.074011 0.494598 -0.138631
C3    C     C_R   0.160894 0.180906 0.718353 -0.123440
C4    C     C_R   0.754508 0.930140 0.455422 -0.129952
C5    C     C_R   0.050283 0.802866 0.479150 -0.130827
C6    C     C_R   0.242760 0.203045 0.725774 0.038262
C7    C     C_R   0.032822 0.776944 0.532705 0.076581
C8    C     C_R   0.242552 0.005126 0.450416 0.083506
C9    C     C_R   0.931998 0.980256 0.711804 0.048935
C10   C     C_R   0.133262 0.719406 0.556274 -0.261010
C11   C     C_R   0.069410 0.734142 0.569615 0.114769
C12   C     C_R   0.746654 0.002762 0.464982 0.073838
C13   C     C_R   0.033852 0.699823 0.612147 -0.255861
C14   C     C_R   0.050166 0.639795 0.629302 0.138076
C15   C     C_R   0.106535 0.617116 0.607426 0.050979
C16   C     C_R   0.846194 0.779622 0.288637 -0.137654
C17   C     C_R   0.151997 0.660658 0.574975 0.144372
C18   C     C_R   0.004602 0.596334 0.661199 -0.204566
C19   C     C_R   0.007899 0.524753 0.663685 -0.186222
C20   C     C_R   0.058099 0.497400 0.635722 0.145740
C21   C     C_R   0.111629 0.546186 0.611833 -0.022920
C22   C     C_R   0.165497 0.520729 0.587382 0.089779
C23   C     C_R   0.768062 0.730896 0.283838 0.075230
C24   C     C_R   0.217571 0.570856 0.563008 -0.191651
C25   C     C_R   0.209911 0.639454 0.555887 -0.213554
C26   C     C_R   0.048232 0.417587 0.623409 -0.318370
C27   C     C_R   0.093462 0.386432 0.590365 0.064529
C28   C     C_R   0.006226 0.238138 0.573787 -0.152754
C29   C     C_R   0.161747 0.443259 0.583611 0.240606
C30   C     C_R   0.299516 0.931969 0.373853 -0.239402
C31   C     C_R   0.305829 0.007851 0.420861 0.116634
C32   C     C_R   0.376760 0.085709 0.444930 -0.253916
C33   C     C_R   0.445924 0.087278 0.431892 0.142125
C34   C     C_R   0.060402 0.293359 0.556394 0.105522
C35   C     C_R   0.443104 0.010033 0.392853 0.027303
C36   C     C_R   0.368173 0.932412 0.360497 0.137257
C37   C     C_R   0.520687 0.164210 0.463761 -0.203803
C38   C     C_R   0.594723 0.163930 0.464113 -0.205068
C39   C     C_R   0.594359 0.086696 0.432820 0.140912
C40   C     C_R   0.768173 0.772944 0.352442 -0.154156
C41   C     C_R   0.517536 0.009728 0.393366 0.028563
C42   C     C_R   0.516692 0.931785 0.361796 0.139882
C43   C     C_R   0.440014 0.855543 0.322476 -0.203932
C44   C     C_R   0.365909 0.855858 0.321834 -0.197116
C45   C     C_R   0.238936 0.187449 0.653406 -0.129482
C46   C     C_R   0.670193 0.084461 0.447884 -0.256596
C47   C     C_R   0.669775 0.006214 0.426999 0.114796
C48   C     C_R   0.593168 0.930731 0.377616 -0.255712
C49   C     C_R   0.317613 0.229455 0.794888 0.141637
C50   C     C_R   0.308715 0.216183 0.857087 -0.184511
C51   C     C_R   0.380030 0.246467 0.924223 -0.149497
C52   C     C_R   0.080596 0.244304 0.506912 -0.155436
C53   C     C_R   0.461326 0.291119 0.930235 0.223623
C54   C     C_R   0.470044 0.298219 0.866080 -0.187035
C55   C     C_R   0.398947 0.268168 0.799162 -0.167217
C56   C     C_R   0.971199 0.796551 0.543186 -0.133588
C57   C     C_R   0.629946 0.529688 0.097666 -0.192520
C58   C     C_R   0.684544 0.615540 0.148404 0.279340
C59   C     C_R   0.675613 0.581885 0.253475 -0.235013
C60   C     C_R   0.619783 0.496861 0.201967 -0.175245
C61   C     C_R   0.597898 0.470103 0.124076 0.169728
C62   C     C_2   0.537121 0.343756 0.004355 -0.230561
C63   C     C_2   0.532321 0.382627 0.068600 -0.203553
C64   C     C_R   0.824706 0.071518 0.519733 -0.130869
C65   C     C_R   0.708666 0.641848 0.227578 0.085752
C66   C     C_R   0.948298 0.023863 0.201477 -0.010490
C67   C     C_R   0.169116 0.933692 0.430625 -0.136646
C68   C     C_R   0.936498 0.967231 0.131082 0.455998
C69   C     C_R   0.891460 0.966780 0.063723 -0.245241
C70   C     C_R   0.858447 0.023052 0.064878 0.157281
C71   C     C_R   0.872437 0.081026 0.135080 -0.170146
C72   C     C_R   0.916438 0.080971 0.202918 -0.227531
C73   C     C_R   0.887002 0.050391 0.882050 -0.141780
C74   C     C_R   0.923962 0.051120 0.831914 -0.189817
C75   C     C_R   0.817947 0.904960 0.745507 -0.169269
C76   C     C_R   0.971457 0.946775 0.281248 -0.053601
C77   C     C_R   0.781189 0.904009 0.796156 -0.182030
C78   C     C_R   0.981821 0.053059 0.709248 -0.142928
C79   C     C_R   0.816186 0.976077 0.865576 0.218170
C80   C     C_2   0.823162 0.031247 0.994707 -0.190318
C81   C     C_2   0.790050 0.966047 0.925661 -0.229875
C82   C     C_R   0.890845 0.978173 0.763665 0.141698
C83   C     C_R   0.988844 0.020534 0.272709 0.105643
C84   C     C_3   0.232345 0.425302 0.577770 -1.068983
C85   C     C_3   0.711816 0.677685 0.116328 -1.002762
C86   C     C_R   0.911777 0.912923 0.645303 -0.136215
Cl1   Cl    Cl    0.982834 0.900587 0.124532 -0.688292
H1    H     H_    0.063279 0.154941 0.360066 0.104186
H2    H     H_    0.987230 0.712976 0.626030 0.119066
H3    H     H_    0.961952 0.614018 0.679140 0.131902
H4    H     H_    0.706531 0.865311 0.417367 0.096420
H5    H     H_    0.967614 0.488152 0.683400 0.127557
H6    H     H_    0.999266 0.377606 0.633713 0.133231
H7    H     H_    0.259970 0.554064 0.544002 0.149035
H8    H     H_    0.246398 0.673354 0.532066 0.131712
H9    H     H_    0.244312 0.871519 0.352475 0.118995
H10   H     H_    0.381744 0.145046 0.479075 0.116914
H11   H     H_    0.523233 0.224101 0.492755 0.129557
H12   H     H_    0.942956 0.787014 0.581131 0.096654
H13   H     H_    0.653226 0.223595 0.493540 0.129971
H14   H     H_    0.728884 0.143612 0.482334 0.118452
H15   H     H_    0.874372 0.758295 0.252975 0.110994
H16   H     H_    0.591931 0.870180 0.357424 0.119535
H17   H     H_    0.438372 0.795344 0.296910 0.131764
H18   H     H_    0.308246 0.795890 0.295604 0.132677
H19   H     H_    0.246868 0.183752 0.854629 0.117945
H20   H     H_    0.693236 0.600693 0.313825 0.133001
H21   H     H_    0.473607 0.359306 0.073988 0.134507
H22   H     H_    0.532084 0.332372 0.869346 0.114180
H23   H     H_    0.144423 0.870202 0.387434 0.094032
H24   H     H_    0.609539 0.509657 0.036805 0.131629
H25   H     H_    0.408240 0.278907 0.752236 0.111835
H26   H     H_    0.987790 0.255135 0.619279 0.091777
H27   H     H_    0.597980 0.369467 0.002592 0.138947
H28   H     H_    0.371199 0.237450 0.971922 0.114860
H29   H     H_    0.593687 0.451949 0.222829 0.128499
H30   H     H_    0.980549 0.108376 0.848404 0.112965
H31   H     H_    0.789759 0.847843 0.693008 0.109986
H32   H     H_    0.762221 0.901886 0.920197 0.142625
H33   H     H_    0.849866 0.126672 0.137372 0.128326
H34   H     H_    0.996155 0.116783 0.743811 0.090246
H35   H     H_    0.918026 0.106785 0.935696 0.113484
H36   H     H_    0.924828 0.124978 0.256489 0.142975
H37   H     H_    0.723683 0.746460 0.373614 0.091932
H38   H     H_    0.842291 0.095268 0.000694 0.129771
H39   H     H_    0.886384 0.925099 0.010791 0.167394
H40   H     H_    0.727504 0.845604 0.782634 0.117517
H41   H     H_    0.126425 0.266080 0.485778 0.118649
H42   H     H_    0.842785 0.137997 0.541082 0.096669
H43   H     H_    0.929977 0.882487 0.236995 0.137345
H44   H     H_    0.289969 0.194299 0.637230 0.096603
H45   H     H_    0.863212 0.847978 0.622136 0.084662
H46   H     H_    0.234750 0.377009 0.597498 0.259900
H47   H     H_    0.225445 0.405070 0.518246 0.248773
H48   H     H_    0.294430 0.483343 0.616544 0.258770
H49   H     H_    0.674510 0.648075 0.053331 0.251407
H50   H     H_    0.702237 0.732424 0.141664 0.255852
H51   H     H_    0.779233 0.700364 0.128244 0.257039
H52   H     H_    0.277809 0.139932 0.510280 0.088685
H53   H     H_    0.140230 0.183526 0.762910 0.094931
H54   H     H_    0.095371 0.798115 0.457583 0.096295
H55   H     H_    0.164310 0.748802 0.526866 0.121716
N1    N     N_R   0.052580 0.056040 0.395500 -0.043584
N2    N     N_R   0.890210 0.849400 0.355780 -0.044938
N3    N     N_R   0.997110 0.161140 0.539580 -0.039394
N4    N     N_R   0.841950 0.845400 0.395490 -0.037880
N5    N     N_R   0.045360 0.165140 0.499870 -0.041483
N6    N     N_R   0.877490 0.041510 0.539580 -0.040851
N7    N     N_R   0.009820 0.969030 0.355780 -0.051900
N8    N     N_R   0.158050 0.154600 0.604510 -0.038850
N9    N     N_R   0.954640 0.834860 0.500130 -0.041551
N10   N     N_R   0.122510 0.958490 0.460420 -0.039550
N11   N     N_R   0.990180 0.030970 0.644220 -0.037247
N12   N     N_R   0.947420 0.943960 0.604500 -0.037448
N13   N     N_R   0.165270 0.045500 0.500140 -0.039020
N14   N     N_R   0.109790 0.150600 0.644220 -0.038754
N15   N     N_R   0.002890 0.838860 0.460420 -0.041078
N16   N     N_R   0.834730 0.954500 0.499860 -0.040908
Ni1   Ni    Ni4+2 0.104370 0.104380 0.500010 0.212527
Ni2   Ni    Ni4+2 0.895630 0.895620 0.499990 0.208556
Ni3   Ni    Ni4+2 0.006300 0.904810 0.408930 0.222012
Ni4   Ni    Ni4+2 0.993700 0.095190 0.591070 0.211128

loop_
_geom_bond_atom_site_label_1
_geom_bond_atom_site_label_2
_ccdc_geom_bond_type
C66   C68   A    
C84   H48   S    
C2    N13   A    
C6    C45   A    
N15   Ni3   S    
N2    Ni3   S    
C27   C29   A    
C41   C42   A    
C14   C18   A    
C35   C36   A    
C3    C6    A    
N5    Ni1   S    
C52   H41   S    
C39   C41   A    
C57   H24   S    
C44   H18   S    
C7    C11   S    
C84   H47   S    
C28   N3    A    
C37   C38   A    
C71   H33   S    
C2    H52   S    
N9    N15   A    
C22   C29   A    
C62   H27   S    
C30   C31   A    
C55   H25   S    
N4    Ni2   S    
N3    Ni4   S    
C10   C17   A    
C23   C40   A    
C32   H10   S    
C51   H28   S    
C45   N8    A    
C10   H55   S    
C61   C63   S    
C78   H34   S    
C43   H17   S    
C30   H9    S    
C19   H5    S    
C58   C65   A    
C66   C83   S    
C46   C47   A    
C76   H43   S    
C4    N16   A    
C47   C48   A    
C68   C69   A    
C70   C71   A    
C4    C12   A    
N10   Ni3   S    
C77   H40   S    
C9    C82   S    
C4    H4    S    
C13   H2    S    
C1    H1    S    
N14   Ni4   S    
C59   C60   A    
N8    N14   A    
C13   C14   A    
C64   N6    A    
N16   Ni2   S    
C75   H31   S    
C7    C56   A    
C74   C82   A    
C12   C47   S    
C76   C83   A    
C37   H11   S    
N3    N5    A    
C77   C79   A    
C27   C34   S    
C40   H37   S    
C46   H14   S    
C66   C72   A    
C84   H46   S    
C45   H44   S    
N8    Ni1   S    
C70   C80   S    
C18   H3    S    
C24   C25   A    
C29   C84   S    
C38   H13   S    
C28   H26   S    
C5    C7    A    
C18   C19   A    
C42   C48   A    
C53   C54   A    
C48   H16   S    
N13   Ni1   S    
C59   H20   S    
C54   H22   S    
C60   C61   A    
C51   C53   A    
C43   C44   A    
N12   Ni2   S    
C62   C63   D    
C1    N1    A    
C24   H7    S    
C9    C86   A    
C53   C62   S    
C67   H23   S    
C5    H54   S    
C31   C32   A    
N10   N13   A    
N1    N7    A    
C50   C51   A    
C73   C79   A    
C78   N11   A    
N6    N16   A    
C20   C21   A    
C56   N9    A    
C57   C61   A    
C75   C77   A    
C39   C46   A    
N2    N4    A    
C69   H39   S    
C25   H8    S    
C16   C23   A    
C5    N15   A    
C63   H21   S    
C72   H36   S    
C26   C27   A    
C49   C50   A    
C22   C24   A    
C36   C44   A    
N7    Ni3   S    
C42   C43   A    
C58   C85   S    
C85   H50   S    
C79   C81   S    
C16   H15   S    
C15   C17   A    
C74   H30   S    
C54   C55   A    
C73   C74   A    
C16   N2    A    
C67   N10   A    
C8    C31   S    
C2    C8    A    
C80   C81   D    
C75   C82   A    
N1    Ni1   S    
C30   C36   A    
C1    C83   A    
C81   H32   S    
C34   C52   A    
C40   N4    A    
N11   Ni4   S    
C17   C25   A    
N9    Ni2   S    
C23   C65   S    
C19   C20   A    
C86   N12   A    
N6    Ni4   S    
C71   C72   A    
C49   C55   A    
C32   C33   A    
C11   C13   A    
C86   H45   S    
C57   C58   A    
C38   C39   A    
C20   C26   A    
C76   N7    A    
C26   H6    S    
C12   C64   A    
C3    N14   A    
C33   C35   A    
C9    C78   A    
C6    C49   S    
C69   C70   A    
C35   C41   A    
C33   C37   A    
C60   H29   S    
C10   C11   A    
C85   H49   S    
C28   C34   A    
C15   C21   A    
C64   H42   S    
C8    C67   A    
C73   H35   S    
C80   H38   S    
C50   H19   S    
C68   Cl1   S    
C14   C15   A    
C3    H53   S    
C56   H12   S    
N11   N12   A    
C21   C22   A    
C85   H51   S    
C59   C65   A    
C52   N5    A    
