data_mof_unit_36586.cif
_audit_creation_date              2012-12-11T15:27:00-0500
_audit_creation_method            fapswitch 2.2
_symmetry_space_group_name_H-M    P1
_symmetry_Int_Tables_number       1
_space_group_crystal_system       triclinic
_cell_length_a                    13.885736
_cell_length_b                    13.975678
_cell_length_c                    27.426527
_cell_angle_alpha                 90.216795
_cell_angle_beta                  90.062151
_cell_angle_gamma                 119.898306
_cell_volume                      4614.04371808

loop_
_atom_site_label
_atom_site_type_symbol
_atom_type_description
_atom_site_fract_x
_atom_site_fract_y
_atom_site_fract_z
_atom_type_partial_charge
C1    C     C_R   0.235048 0.786981 0.568874 0.541694
C2    C     C_R   0.213065 0.448064 0.568906 0.543964
C3    C     C_R   0.552012 0.764957 0.568846 0.546986
C4    C     C_3   0.737947 0.770804 0.783224 0.195255
C5    C     C_3   0.229309 0.966628 0.783549 0.197022
C6    C     C_3   0.032010 0.261902 0.782874 0.199676
C7    C     C_3   0.698123 0.738023 0.728007 0.240682
C8    C     C_3   0.262368 0.959820 0.728416 0.241537
C9    C     C_3   0.039099 0.301846 0.727806 0.247376
C10   C     C_1   0.706852 0.855303 0.859124 0.035951
C11   C     C_1   0.144475 0.851511 0.859104 0.034911
C12   C     C_1   0.147938 0.291761 0.858962 0.027390
C13   C     C_1   0.621610 0.803900 0.659273 0.000938
C14   C     C_1   0.196645 0.817901 0.659315 0.001025
C15   C     C_1   0.182230 0.378352 0.659194 0.001293
C16   C     C_1   0.596442 0.792336 0.616908 0.042678
C17   C     C_1   0.208023 0.804189 0.616949 0.042656
C18   C     C_1   0.196071 0.403755 0.616898 0.042871
C19   C     C_R   0.107215 0.220566 0.949140 0.588725
C20   C     C_R   0.779295 0.886437 0.949202 0.574538
C21   C     C_R   0.113678 0.892858 0.949214 0.590218
C22   C     C_R   0.595038 0.792788 0.380493 0.021645
C23   C     C_R   0.198927 0.802479 0.383899 0.052399
C24   C     C_R   0.191580 0.392094 0.384362 0.030516
C25   C     C_R   0.647498 0.904411 0.366793 -0.146397
C26   C     C_R   0.121543 0.838230 0.378904 -0.134155
C27   C     C_R   0.158392 0.437613 0.346947 -0.134858
C28   C     C_R   0.674679 0.934256 0.318280 -0.093215
C29   C     C_R   0.090747 0.853775 0.332520 -0.085961
C30   C     C_R   0.144165 0.396729 0.300085 -0.081505
C31   C     C_R   0.648698 0.852579 0.283064 0.064251
C32   C     C_R   0.135293 0.830663 0.291347 0.061824
C33   C     C_R   0.158326 0.306715 0.290372 0.058489
C34   C     C_R   0.232922 0.787528 0.431957 0.529035
C35   C     C_R   0.211994 0.445718 0.431702 0.524552
C36   C     C_R   0.548898 0.762891 0.429862 0.531430
C37   C     C_R   0.598944 0.742051 0.296088 -0.053330
C38   C     C_R   0.209893 0.791860 0.296267 -0.031944
C39   C     C_R   0.188453 0.258050 0.327491 -0.051302
C40   C     C_R   0.571419 0.710164 0.344366 -0.028472
C41   C     C_R   0.243519 0.778655 0.342384 -0.012033
C42   C     C_R   0.207932 0.301927 0.374825 -0.011659
C43   C     C_R   0.789782 0.891690 0.220760 -0.040163
C44   C     C_R   0.190405 0.963665 0.223158 -0.062860
C45   C     C_R   0.025753 0.201135 0.224327 -0.029120
C46   C     C_R   0.815942 0.891248 0.172007 -0.106377
C47   C     C_R   0.179611 0.985578 0.174567 -0.134776
C48   C     C_R   0.005381 0.165373 0.176034 -0.118473
C49   C     C_R   0.640894 0.874663 0.146978 -0.102152
C50   C     C_R   0.021106 0.801994 0.164652 -0.105222
C51   C     C_R   0.203208 0.249218 0.161282 -0.105129
C52   C     C_R   0.611775 0.873909 0.195834 0.283835
C53   C     C_R   0.029967 0.777766 0.213198 0.255047
C54   C     C_R   0.226125 0.287809 0.209152 0.255608
C55   C     C_R   0.685931 0.880229 0.232881 0.006724
C56   C     C_R   0.115491 0.858790 0.242603 0.003120
C57   C     C_R   0.136752 0.261713 0.241091 0.012813
C58   C     C_R   0.741008 0.879605 0.135433 -0.025297
C59   C     C_R   0.096463 0.905206 0.145016 -0.054439
C60   C     C_R   0.093264 0.189231 0.144571 -0.049640
C61   C     C_R   0.068093 0.155928 0.093650 0.523946
C62   C     C_R   0.776630 0.884694 0.085522 0.535078
C63   C     C_R   0.088314 0.931071 0.093943 0.520799
C64   C     C_3   0.535307 0.772553 0.740800 -0.219999
C65   C     C_3   0.228466 0.763851 0.740961 -0.219524
C66   C     C_3   0.236271 0.463181 0.741323 -0.220042
C67   C     C_3   0.721809 0.934589 0.725301 -0.290918
C68   C     C_3   0.065079 0.786846 0.724881 -0.293863
C69   C     C_3   0.213013 0.277867 0.724713 -0.293368
C70   C     C_3   0.737305 0.950299 0.781091 -0.265707
C71   C     C_3   0.049084 0.786656 0.780614 -0.270343
C72   C     C_3   0.213001 0.261802 0.780426 -0.269779
C73   C     C_1   0.733841 0.870396 0.901304 0.081381
C74   C     C_1   0.129382 0.863374 0.901278 0.071908
C75   C     C_1   0.136301 0.265074 0.901141 0.067306
C76   C     C_3   0.644728 0.810875 0.711849 0.035230
C77   C     C_3   0.189586 0.834017 0.711906 0.036151
C78   C     C_3   0.165736 0.354800 0.711755 0.033871
C79   C     C_3   0.557678 0.776854 0.796366 -0.235128
C80   C     C_3   0.224005 0.781885 0.796530 -0.234490
C81   C     C_3   0.218160 0.440438 0.796807 -0.233704
C82   C     C_3   0.684334 0.836613 0.806598 0.006598
C83   C     C_3   0.163412 0.847754 0.806609 0.008320
C84   C     C_3   0.151642 0.314527 0.806432 0.004985
Cr1   Cr    Cr6+3 0.164410 0.584450 0.499910 1.064017
Cr2   Cr    Cr6+3 0.415550 0.579960 0.499910 1.041110
Cr3   Cr    Cr6+3 0.420040 0.835590 0.499910 1.052978
Cr4   Cr    Cr6+3 0.156760 0.076070 0.017830 1.070230
Cr5   Cr    Cr6+3 0.923930 0.080690 0.017830 1.080990
Cr6   Cr    Cr6+3 0.919310 0.843240 0.017830 1.070110
H1    H     H_    0.519672 0.821055 0.814818 0.139437
H2    H     H_    0.179771 0.700085 0.814771 0.138794
H3    H     H_    0.300509 0.477795 0.815316 0.140270
H4    H     H_    0.469496 0.688611 0.729930 0.171414
H5    H     H_    0.313042 0.782574 0.730393 0.171270
H6    H     H_    0.217487 0.528702 0.730918 0.172259
H7    H     H_    0.516847 0.692255 0.811600 0.204990
H8    H     H_    0.309136 0.825982 0.812089 0.205373
H9    H     H_    0.173955 0.481133 0.812404 0.205386
H10   H     H_    0.828376 0.831971 0.782007 0.076115
H11   H     H_    0.167528 0.995240 0.782191 0.077230
H12   H     H_    0.003058 0.171967 0.781156 0.069386
H13   H     H_    0.665206 0.968366 0.393551 0.132949
H14   H     H_    0.087209 0.856268 0.410764 0.106924
H15   H     H_    0.145085 0.506510 0.353834 0.146670
H16   H     H_    0.895542 0.900729 0.162193 0.110072
H17   H     H_    0.237656 0.065475 0.159489 0.151049
H18   H     H_    0.920874 0.121642 0.162311 0.139265
H19   H     H_    0.715564 0.020450 0.308185 0.128990
H20   H     H_    0.034246 0.885582 0.328628 0.115703
H21   H     H_    0.120503 0.434165 0.271392 0.169997
H22   H     H_    0.584967 0.868669 0.118045 0.171387
H23   H     H_    0.955911 0.739952 0.141949 0.196830
H24   H     H_    0.271184 0.269967 0.136400 0.193339
H25   H     H_    0.582380 0.680673 0.268072 0.173275
H26   H     H_    0.244941 0.776348 0.263950 0.188179
H27   H     H_    0.197227 0.186880 0.319318 0.113733
H28   H     H_    0.501558 0.827664 0.732150 0.171395
H29   H     H_    0.173418 0.675218 0.732063 0.168359
H30   H     H_    0.325409 0.496942 0.732688 0.170689
H31   H     H_    0.803603 0.967422 0.707392 0.110520
H32   H     H_    0.032034 0.835241 0.706849 0.111098
H33   H     H_    0.164460 0.196862 0.706311 0.111172
H34   H     H_    0.685531 0.984804 0.711626 0.175872
H35   H     H_    0.014810 0.700691 0.710955 0.173665
H36   H     H_    0.299775 0.313848 0.711160 0.173744
H37   H     H_    0.698262 0.998119 0.794590 0.188084
H38   H     H_    0.001007 0.700185 0.793880 0.191399
H39   H     H_    0.300018 0.300037 0.794023 0.192318
H40   H     H_    0.827471 0.999580 0.789790 0.148580
H41   H     H_    0.999344 0.826992 0.789104 0.152663
H42   H     H_    0.172303 0.172094 0.788572 0.151283
O1    O     O_R   0.137310 0.468260 0.552980 -0.479461
O2    O     O_R   0.531740 0.669050 0.552980 -0.477370
O3    O     O_R   0.330950 0.862690 0.552980 -0.480754
O4    O     O_R   0.180530 0.983530 0.965090 -0.467872
O5    O     O_R   0.016470 0.197000 0.965090 -0.454984
O6    O     O_R   0.803000 0.819470 0.965090 -0.475476
O7    O     O_R   0.174120 0.688790 0.549730 -0.490596
O8    O     O_R   0.311210 0.485330 0.549730 -0.490670
O9    O     O_R   0.514670 0.825880 0.549730 -0.488055
O10   O     O_R   0.139940 0.470480 0.446230 -0.509730
O11   O     O_R   0.529520 0.669460 0.446230 -0.521466
O12   O     O_R   0.330540 0.860060 0.446230 -0.512799
O13   O     O_R   0.176560 0.690850 0.450770 -0.497657
O14   O     O_R   0.309150 0.485710 0.450770 -0.517713
O15   O     O_R   0.514290 0.823440 0.450770 -0.508171
O16   O     O_3   0.333333 0.666667 0.499990 -0.286817
O17   O     O_3   0.000000 1.000000 0.017910 -0.294405
O18   O     O_R   0.149710 0.171070 0.967700 -0.492092
O19   O     O_R   0.828930 0.978640 0.967700 -0.485679
O20   O     O_R   0.021360 0.850290 0.967700 -0.487933
O21   O     O_R   0.178510 0.985930 0.071830 -0.486936
O22   O     O_R   0.014070 0.192580 0.071830 -0.470032
O23   O     O_R   0.807420 0.821490 0.071830 -0.503246
O24   O     O_R   0.147830 0.173300 0.066650 -0.508075
O25   O     O_R   0.826700 0.974530 0.066650 -0.526101
O26   O     O_R   0.025470 0.852170 0.066650 -0.484571
C85   C     C_3   0.870512 0.897855 0.259203 -0.382522
H43   H     H_    0.953417 0.923910 0.243470 0.132593
H44   H     H_    0.881996 0.958852 0.287763 0.119731
H45   H     H_    0.838294 0.815904 0.276460 0.191514
C86   C     C_3   0.284549 0.053640 0.252169 -0.361473
H46   H     H_    0.275582 0.127987 0.252061 0.168230
H47   H     H_    0.287117 0.031613 0.290706 0.145711
H48   H     H_    0.364962 0.074168 0.235020 0.196877
C87   C     C_3   0.929041 0.180099 0.256460 -0.386719
H49   H     H_    0.930282 0.258799 0.263827 0.164530
H50   H     H_    0.848243 0.122740 0.238914 0.143504
H51   H     H_    0.934148 0.143989 0.291637 0.121327
S1    S     S_3+6 0.479418 0.856664 0.209186 -0.013888
O27   O     O_2   0.400599 0.736437 0.218529 -0.272611
O28   O     O_2   0.485621 0.922951 0.253571 -0.324915
O29   O     O_3   0.432325 0.897669 0.161704 -0.511599
H52   H     H_    0.359145 0.886253 0.172306 0.371789
S2    S     S_3+6 0.935860 0.644351 0.235486 0.000570
O30   O     O_2   0.996709 0.581564 0.242307 -0.272331
O31   O     O_2   0.889515 0.653452 0.283662 -0.300617
O32   O     O_3   0.830718 0.575817 0.195770 -0.522801
H53   H     H_    0.781041 0.504278 0.211639 0.380714
S3    S     S_3+6 0.366169 0.379816 0.226010 -0.018398
O33   O     O_2   0.378149 0.490357 0.237802 -0.270204
O34   O     O_2   0.397148 0.337523 0.270136 -0.328200
O35   O     O_3   0.452588 0.394380 0.180086 -0.516285
H54   H     H_    0.527319 0.450570 0.191790 0.381927
C88   C     C_3   0.512586 0.587912 0.354879 -0.332760
H55   H     H_    0.500911 0.537981 0.321549 0.197965
H56   H     H_    0.562249 0.568850 0.380692 0.166310
H57   H     H_    0.428861 0.561188 0.369808 0.162522
C89   C     C_3   0.330796 0.745039 0.346718 -0.346780
H58   H     H_    0.346731 0.716950 0.311323 0.195631
H59   H     H_    0.409238 0.817068 0.359544 0.175390
H60   H     H_    0.305042 0.676731 0.373126 0.115764
C90   C     C_3   0.242570 0.250809 0.414369 -0.381611
H61   H     H_    0.245267 0.177129 0.400865 0.127653
H62   H     H_    0.326713 0.311562 0.427906 0.162364
H63   H     H_    0.182577 0.224705 0.444982 0.128116
S4    S     S_3+6 0.598867 0.590146 0.718073 0.036217
O36   O     O_2   0.529834 0.573805 0.673262 -0.309194
O37   O     O_2   0.659759 0.527528 0.710354 -0.187852
O38   O     O_3   0.512062 0.534260 0.765370 -0.523795
H64   H     H_    0.480580 0.453577 0.761672 0.380243
S5    S     S_3+6 0.411297 0.009238 0.718948 0.034169
O39   O     O_2   0.427975 0.957383 0.674019 -0.308021
O40   O     O_2   0.473896 0.132208 0.711707 -0.189729
O41   O     O_3   0.467844 0.978720 0.766264 -0.528056
H65   H     H_    0.548901 0.029142 0.763223 0.375693
S6    S     S_3+6 0.989848 0.400957 0.718264 0.039255
O42   O     O_2   0.041572 0.468297 0.673313 -0.309477
O43   O     O_2   0.866041 0.341191 0.710886 -0.178474
O44   O     O_3   0.021935 0.488736 0.765417 -0.524888
H66   H     H_    0.973143 0.521119 0.761656 0.379244
C91   C     C_3   0.800428 0.764253 0.696138 -0.356085
H67   H     H_    0.837548 0.714328 0.708518 0.180439
H68   H     H_    0.776729 0.743469 0.657232 0.165992
H69   H     H_    0.866112 0.852115 0.698510 0.049802
C92   C     C_3   0.235424 0.034989 0.696573 -0.356132
H70   H     H_    0.285298 0.121726 0.709197 0.180674
H71   H     H_    0.256287 0.032188 0.657716 0.165321
H72   H     H_    0.146921 0.012390 0.698700 0.049591
C93   C     C_3   0.963403 0.200346 0.695492 -0.351907
H73   H     H_    0.876061 0.163319 0.707767 0.188658
H74   H     H_    0.966317 0.224122 0.656708 0.163886
H75   H     H_    0.986177 0.134954 0.697479 0.048204
S7    S     S_3+6 0.738843 0.666652 0.822430 0.032279
O45   O     O_2   0.629201 0.599966 0.847652 -0.227787
O46   O     O_2   0.767021 0.591509 0.794347 -0.221407
O47   O     O_3   0.838010 0.731832 0.865041 -0.567126
H76   H     H_    0.838815 0.672169 0.884092 0.377785
S8    S     S_3+6 0.333938 0.071659 0.823163 0.029727
O48   O     O_2   0.401566 0.029720 0.848474 -0.232887
O49   O     O_2   0.409103 0.174688 0.795423 -0.224014
O50   O     O_3   0.268077 0.104813 0.865651 -0.565092
H77   H     H_    0.328008 0.165146 0.884992 0.377757
S9    S     S_3+6 0.926292 0.261423 0.822155 0.034320
O51   O     O_2   0.898817 0.176385 0.861156 -0.319793
O52   O     O_2   0.967362 0.371785 0.846283 -0.220382
O53   O     O_3   0.808616 0.225676 0.791200 -0.474774
H78   H     H_    0.754618 0.220080 0.816188 0.389794

loop_
_geom_bond_atom_site_label_1
_geom_bond_atom_site_label_2
_ccdc_geom_bond_type
C70   H37   S    
C58   C62   S    
C15   C18   T    
C90   H62   S    
C6    S9    S    
Cr6   O26   S    
C89   H58   S    
C2    C18   S    
C24   C42   A    
Cr4   O17   S    
C86   H46   S    
C3    O9    A    
C24   C27   A    
S1    O29   S    
S5    O39   D    
C61   O22   A    
S7    O47   S    
C6    C9    S    
C51   H24   S    
C72   H39   S    
C87   H50   S    
C91   H67   S    
O35   H54   S    
C25   C28   A    
C85   H45   S    
S1    O28   D    
C34   O12   A    
C33   C39   A    
Cr3   O15   S    
C41   C89   S    
C50   C59   A    
Cr4   O24   S    
C86   H47   S    
C36   O11   A    
Cr1   O13   S    
C81   H3    S    
C93   H75   S    
C43   C85   S    
C80   C83   S    
C5    C83   S    
C10   C73   T    
C21   O20   A    
C15   C78   S    
C40   C88   S    
C69   H33   S    
S7    O46   D    
Cr2   O14   S    
C45   C57   A    
C70   H40   S    
C19   O18   A    
C64   H28   S    
C62   O23   A    
C12   C84   S    
S8    O50   S    
O38   H64   S    
C14   C77   S    
C20   O6    A    
C42   C90   S    
O29   H52   S    
C8    C92   S    
C89   H60   S    
C26   H14   S    
Cr2   O2    S    
S2    O32   S    
C85   H43   S    
S6    O42   D    
C22   C25   A    
C20   C73   S    
C33   C57   S    
S9    O51   D    
Cr1   O16   S    
C48   C60   A    
S4    O36   D    
C44   C86   S    
C32   C38   A    
Cr3   O12   S    
C87   H51   S    
C51   C54   A    
O50   H77   S    
Cr1   O7    S    
C21   O4    A    
C79   H1    S    
C1    O7    A    
C44   C47   A    
Cr2   O8    S    
C80   H8    S    
C49   C52   A    
S2    O31   D    
C90   H61   S    
C65   C80   S    
C66   H30   S    
C67   H34   S    
C27   C30   A    
S9    O52   D    
C14   C17   T    
C69   C78   S    
Cr6   O17   S    
C67   H31   S    
C52   S1    S    
O47   H76   S    
Cr6   O6    S    
Cr2   O11   S    
C72   H42   S    
C39   C42   A    
C71   C83   S    
S3    O34   D    
C65   H29   S    
C66   C78   S    
S5    O41   S    
C5    H11   S    
C54   S3    S    
C24   C35   S    
C6    C84   S    
Cr3   O16   S    
C50   C53   A    
Cr3   O3    S    
C29   H20   S    
C86   H48   S    
C65   C77   S    
C63   O21   A    
C38   C41   A    
Cr6   O20   S    
C68   H32   S    
C87   H49   S    
O41   H65   S    
C25   H13   S    
C81   H9    S    
C4    C7    S    
C92   H70   S    
S3    O33   D    
C47   C59   A    
C21   C74   S    
C11   C74   T    
C49   C58   A    
C31   C37   A    
C60   C61   S    
C92   H72   S    
C35   O14   A    
C38   H26   S    
C80   H2    S    
C69   C72   S    
C28   C31   A    
C93   H73   S    
S9    O53   S    
C79   C82   S    
S5    O40   D    
C44   C56   A    
C36   O15   A    
O44   H66   S    
C13   C76   S    
Cr5   O19   S    
C19   O5    A    
C23   C34   S    
C22   C40   A    
S4    O38   S    
C85   H44   S    
C2    O1    A    
C64   C76   S    
C62   O25   A    
C72   C84   S    
C4    S7    S    
Cr3   O9    S    
S8    O49   D    
C45   C87   S    
S1    O27   D    
Cr4   O4    S    
C7    C91   S    
C49   H22   S    
C43   C55   A    
S2    O30   D    
C69   H36   S    
C47   H17   S    
C4    H10   S    
S6    O44   S    
C8    C77   S    
C64   C79   S    
C71   H38   S    
C13   C16   T    
C92   H71   S    
C88   H56   S    
C61   O24   A    
C81   C84   S    
C66   H6    S    
C91   H69   S    
C68   C77   S    
O53   H78   S    
C89   H59   S    
S3    O35   S    
C30   C33   A    
S7    O45   D    
Cr4   O18   S    
C79   H7    S    
C8    S5    S    
C9    S6    S    
Cr2   O16   S    
Cr1   O10   S    
C5    C8    S    
C63   O26   A    
C52   C55   A    
Cr5   O25   S    
C7    C76   S    
C37   H25   S    
C28   H19   S    
C37   C40   A    
C64   H4    S    
C22   C36   S    
Cr5   O5    S    
C23   C41   A    
C20   O19   A    
C30   H21   S    
C3    O2    A    
C11   C83   S    
Cr4   O21   S    
C50   H23   S    
C88   H57   S    
C19   C75   S    
Cr6   O23   S    
C91   H68   S    
C2    O8    A    
C29   C32   A    
C93   H74   S    
C39   H27   S    
C66   C81   S    
Cr5   O22   S    
C48   H18   S    
C7    S4    S    
C68   C71   S    
C46   H16   S    
Cr5   O17   S    
C34   O13   A    
C23   C26   A    
C10   C82   S    
C59   C63   S    
C9    C78   S    
C6    H12   S    
S8    O48   D    
C70   C82   S    
C43   C46   A    
C53   C56   A    
C35   O10   A    
C71   H41   S    
O32   H53   S    
C90   H63   S    
C9    C93   S    
C65   H5    S    
C4    C82   S    
C1    C17   S    
C26   C29   A    
S6    O43   D    
C12   C75   T    
C27   H15   S    
C5    S8    S    
S4    O37   D    
C51   C60   A    
C67   C70   S    
C31   C55   S    
C88   H55   S    
C1    O3    A    
C68   H35   S    
C32   C56   S    
C46   C58   A    
C3    C16   S    
C67   C76   S    
C53   S2    S    
Cr1   O1    S    
C45   C48   A    
C54   C57   A    
