data_mof_unit_47802.cif
_audit_creation_date              2012-12-10T18:33:36-0500
_audit_creation_method            fapswitch 2.2
_symmetry_space_group_name_H-M    P1
_symmetry_Int_Tables_number       1
_space_group_crystal_system       triclinic
_cell_length_a                    10.502684
_cell_length_b                    15.00688
_cell_length_c                    15.494685
_cell_angle_alpha                 82.186655
_cell_angle_beta                  89.188298
_cell_angle_gamma                 104.610967
_cell_volume                      2338.24692661

loop_
_atom_site_label
_atom_site_type_symbol
_atom_type_description
_atom_site_fract_x
_atom_site_fract_y
_atom_site_fract_z
_atom_type_partial_charge
C1    C     C_R   0.478799 0.441659 0.662081 0.870172
C2    C     C_R   0.514898 0.558281 0.338088 0.849263
C3    C     C_R   0.448722 0.462900 0.816006 0.097547
C4    C     C_R   0.469410 0.533491 0.186011 0.100627
C5    C     C_R   0.491096 0.445109 0.900453 0.041856
C6    C     C_R   0.523409 0.555285 0.100048 0.080994
C7    C     C_R   0.502012 0.354481 0.931882 0.151573
C8    C     C_R   0.582160 0.649645 0.066832 0.141934
C9    C     C_R   0.521839 0.514522 0.954824 0.049908
C10   C     C_R   0.516498 0.487105 0.045269 0.077390
C11   C     C_R   0.516779 0.394612 0.077787 -0.222177
C12   C     C_R   0.569083 0.609848 0.920960 -0.252088
C13   C     C_R   0.515150 0.329861 0.020951 -0.230441
C14   C     C_R   0.605052 0.676305 0.976871 -0.223009
C15   C     C_R   0.693367 0.842416 0.637278 -0.321745
C16   C     C_R   0.301378 0.156125 0.366170 -0.320307
C17   C     C_R   0.661284 0.753292 0.615092 0.000446
C18   C     C_R   0.333886 0.245345 0.388074 0.006972
C19   C     C_R   0.515127 0.793900 0.510344 -0.063846
C20   C     C_R   0.487580 0.206814 0.487952 -0.061069
C21   C     C_R   0.542592 0.885651 0.530136 -0.004463
C22   C     C_R   0.457874 0.114447 0.469642 -0.004834
C23   C     C_R   0.742743 0.501436 0.498685 0.861269
C24   C     C_R   0.257440 0.499288 0.499497 0.844517
C25   C     C_R   0.634579 0.909047 0.594833 0.184080
C26   C     C_R   0.363084 0.090289 0.406750 0.181956
C27   C     C_R   0.482634 0.954151 0.488402 0.080504
C28   C     C_R   0.517770 0.045932 0.511436 0.081669
C29   C     C_R   0.610648 0.065912 0.575887 -0.241188
C30   C     C_R   0.388169 0.933744 0.424977 -0.240297
C31   C     C_R   0.667332 0.998542 0.616751 -0.214852
C32   C     C_R   0.329747 0.000645 0.385220 -0.214284
C33   C     C_3   0.934473 0.443037 0.566852 -0.185643
C34   C     C_3   0.066244 0.558851 0.428418 -0.188326
C35   C     C_3   0.050839 0.528416 0.571534 -0.171041
C36   C     C_3   0.949404 0.473580 0.423553 -0.166168
C37   C     C_3   0.121871 0.498771 0.497968 0.032303
C38   C     C_3   0.878614 0.503022 0.497489 0.028432
C39   C     C_3   0.007853 0.413470 0.493062 -0.142930
C40   C     C_3   0.992527 0.588371 0.502084 -0.140823
C41   C     C_R   0.469718 0.406018 0.755048 -0.061900
C42   C     C_R   0.523116 0.594200 0.245213 -0.114198
C43   C     C_R   0.501632 0.291215 0.873187 -0.212348
C44   C     C_R   0.616710 0.714972 0.124533 -0.217273
C45   C     C_R   0.493629 0.319142 0.784211 -0.249656
C46   C     C_R   0.594792 0.685774 0.214087 -0.231641
H1    H     H_    0.558267 0.232463 0.534052 0.127075
H2    H     H_    0.448289 0.769263 0.461788 0.129854
H3    H     H_    0.641690 0.133054 0.597129 0.135025
H4    H     H_    0.355725 0.866239 0.404645 0.137843
H5    H     H_    0.876476 0.396237 0.623374 0.130143
H6    H     H_    0.124668 0.605605 0.372036 0.130131
H7    H     H_    0.522834 0.260664 0.046650 0.144943
H8    H     H_    0.647624 0.748420 0.949798 0.143637
H9    H     H_    0.633128 0.734553 0.258714 0.169991
H10   H     H_    0.506006 0.273087 0.738448 0.163586
H11   H     H_    0.514604 0.222568 0.895392 0.141875
H12   H     H_    0.666280 0.786890 0.100840 0.141872
H13   H     H_    0.529903 0.374187 0.146065 0.150755
H14   H     H_    0.585881 0.632543 0.851424 0.154160
N1    N     N_R   0.574200 0.731700 0.552740 -0.100886
N2    N     N_R   0.425800 0.268300 0.447260 -0.097724
O1    O     O_R   0.462600 0.383110 0.605620 -0.617605
O2    O     O_R   0.537400 0.616890 0.394380 -0.615098
O3    O     O_R   0.510210 0.531900 0.639510 -0.621397
O4    O     O_R   0.489790 0.468100 0.360490 -0.621811
O5    O     O_R   0.662240 0.425610 0.483080 -0.619571
O6    O     O_R   0.337760 0.574390 0.516920 -0.617338
O7    O     O_R   0.709860 0.574400 0.516970 -0.623973
O8    O     O_R   0.290140 0.425600 0.483030 -0.630591
Zn1   Zn    Zn3+2 0.468210 0.400660 0.477370 0.929108
Zn2   Zn    Zn3+2 0.531790 0.599340 0.522630 0.929437
H15   H     H_    0.096138 0.552960 0.630872 0.142825
H16   H     H_    0.903470 0.451615 0.363181 0.137780
H17   H     H_    0.285502 0.296554 0.358390 0.125235
H18   H     H_    0.705885 0.700975 0.647295 0.133714
H19   H     H_    0.763450 0.859136 0.687040 0.141826
H20   H     H_    0.228107 0.138559 0.318467 0.143282
H21   H     H_    0.018011 0.342199 0.489356 0.143640
H22   H     H_    0.982350 0.659636 0.505804 0.143527
C47   C     C_3   0.339316 0.459126 0.209677 -0.389353
C48   C     C_3   0.232197 0.471887 0.146771 -0.878208
H23   H     H_    0.221354 0.544169 0.141317 0.261784
H24   H     H_    0.255398 0.456707 0.081116 0.268902
H25   H     H_    0.136652 0.423128 0.171732 0.244664
H26   H     H_    0.352011 0.387878 0.212629 0.202521
H27   H     H_    0.298669 0.463802 0.274952 0.211266
C49   C     C_3   0.357415 0.527529 0.797866 -0.410554
C50   C     C_3   0.221365 0.473966 0.774489 -0.867916
H28   H     H_    0.225806 0.451789 0.709291 0.249068
H29   H     H_    0.182356 0.411563 0.823958 0.264562
H30   H     H_    0.152355 0.519142 0.773837 0.239802
H31   H     H_    0.339880 0.558311 0.856698 0.215498
H32   H     H_    0.399606 0.587009 0.746358 0.231741
H33   H     H_    0.737695 0.016801 0.666072 0.141691
H34   H     H_    0.257303 0.981833 0.337240 0.142397

loop_
_geom_bond_atom_site_label_1
_geom_bond_atom_site_label_2
_ccdc_geom_bond_type
C25   C31   A    
C38   C40   S    
C26   C32   A    
C18   H17   S    
C34   C37   S    
C23   O7    A    
C47   C48   S    
C24   O8    A    
C29   H3    S    
C33   C39   S    
C48   H25   S    
C34   C40   S    
C28   C29   A    
C35   C37   S    
C19   N1    A    
C15   C25   A    
O5    Zn1   S    
C42   C46   A    
C23   O5    A    
C17   N1    A    
C3    C41   A    
C4    C47   S    
C45   H10   S    
C2    O2    A    
C46   H9    S    
C17   H18   S    
C1    O3    A    
C40   H22   S    
O8    Zn1   S    
C7    C43   A    
C50   H29   S    
C9    C10   A    
C16   H20   S    
C47   H26   S    
C30   H4    S    
C22   C28   A    
C27   C30   A    
C20   N2    A    
C11   H13   S    
C1    O1    A    
C44   C46   A    
C13   H7    S    
C16   C26   A    
C49   H32   S    
C4    C6    A    
C44   H12   S    
C5    C7    A    
C43   H11   S    
C19   H2    S    
C18   N2    A    
C6    C8    A    
C2    O4    A    
C39   H21   S    
O7    Zn2   S    
C5    C9    A    
O4    Zn1   S    
O6    Zn2   S    
C24   C37   S    
C16   C18   A    
C50   H30   S    
C43   C45   A    
C47   H27   S    
C36   H16   S    
N1    Zn2   S    
C1    C41   S    
C14   H8    S    
C12   C14   A    
C48   H24   S    
C23   C38   S    
C15   C17   A    
C21   C25   A    
C49   H31   S    
C35   H15   S    
C8    C14   A    
C32   H34   S    
C3    C49   S    
C36   C39   S    
C8    C44   A    
C20   C22   A    
C3    C5    A    
C6    C10   A    
C33   H5    S    
O3    Zn2   S    
C34   H6    S    
C33   C38   S    
C36   C38   S    
C35   C40   S    
C37   C39   S    
C30   C32   A    
C11   C13   A    
C15   H19   S    
C4    C42   A    
C2    C42   S    
C31   H33   S    
C33   C35   S    
N2    Zn1   S    
C34   C36   S    
O2    Zn2   S    
C21   C27   A    
C9    C12   A    
C20   H1    S    
C10   C11   A    
C24   O6    A    
C12   H14   S    
C7    C13   A    
C49   C50   S    
C29   C31   A    
C48   H23   S    
C22   C26   A    
C27   C28   A    
C41   C45   A    
C50   H28   S    
O1    Zn1   S    
C19   C21   A    
