data_mof_unit_38799.cif
_audit_creation_date              2013-03-05T16:47:54-0500
_audit_creation_method            fapswitch 2.2
_symmetry_space_group_name_H-M    P1
_symmetry_Int_Tables_number       1
_space_group_crystal_system       triclinic
_cell_length_a                    10.930736
_cell_length_b                    10.82154
_cell_length_c                    9.819604
_cell_angle_alpha                 90.680666
_cell_angle_beta                  94.346153
_cell_angle_gamma                 96.429514
_cell_volume                      1150.66754699

loop_
_atom_site_label
_atom_site_type_symbol
_atom_site_description
_atom_site_fract_x
_atom_site_fract_y
_atom_site_fract_z
_atom_type_partial_charge
O1    O     O_R   0.499990 0.319640 0.618810 -0.576394
O2    O     O_R   0.500000 0.319660 0.381240 -0.521965
C1    C     C_R   0.508273 0.263791 0.500935 0.852346
O3    O     O_R   0.319640 0.500000 0.618780 -0.479721
O4    O     O_R   0.319650 0.500020 0.381210 -0.562144
C2    C     C_R   0.262195 0.500627 0.495822 0.811768
Cu1   Cu    Cu3+1 0.499990 0.499990 0.640660 1.020244
Cu2   Cu    Cu3+1 0.500010 0.500010 0.359340 1.077158
O5    O     O_R   0.500000 0.680340 0.618760 -0.618132
O6    O     O_R   0.500010 0.680360 0.381190 -0.582417
O7    O     O_R   0.680350 0.499980 0.618790 -0.603284
O8    O     O_R   0.680360 0.500000 0.381220 -0.488618
C3    C     C_R   0.489024 0.735524 0.499796 0.799779
C4    C     C_R   0.736869 0.498564 0.504985 0.879037
C5    C     C_R   0.148991 0.559265 0.071496 -0.216463
H1    H     H_    0.184224 0.649730 0.035920 0.179141
C6    C     C_R   0.114617 0.550806 0.202161 -0.177900
H2    H     H_    0.122162 0.635174 0.264372 0.150313
C7    C     C_R   0.074881 0.434693 0.254216 0.157179
C8    C     C_R   0.056453 0.328259 0.169255 -0.039539
H3    H     H_    0.022491 0.238689 0.208118 0.171519
C9    C     C_R   0.085766 0.337995 0.034037 -0.147015
H4    H     H_    0.074735 0.255501 0.968875 0.187199
C10   C     C_R   0.135907 0.453293 0.986966 0.378111
C11   C     C_R   0.916872 0.417532 0.414846 0.340273
C12   C     C_R   0.870419 0.491283 0.513496 -0.134154
C13   C     C_R   0.953549 0.572368 0.599474 -0.027983
C14   C     C_R   0.079726 0.578702 0.584686 -0.132773
H5    H     H_    0.142488 0.644597 0.646708 0.182843
C15   C     C_R   0.126503 0.503307 0.490783 -0.107376
C16   C     C_R   0.043228 0.433930 0.394903 -0.090713
C17   C     C_R   0.951008 0.768546 0.733391 -0.146270
H6    H     H_    0.978339 0.822871 0.646542 0.161236
C18   C     C_R   0.958100 0.826153 0.862340 -0.160183
H7    H     H_    0.986201 0.925075 0.873970 0.163697
C19   C     C_R   0.932760 0.755163 0.976897 -0.100394
H8    H     H_    0.940890 0.799274 0.077115 0.183308
C20   C     C_R   0.895179 0.627569 0.961379 -0.127126
H9    H     H_    0.876302 0.570864 0.048399 0.221948
C21   C     C_R   0.889076 0.569881 0.833444 -0.110288
H10   H     H_    0.870313 0.469682 0.825552 0.197791
C22   C     C_R   0.918778 0.639332 0.718908 0.108626
H11   H     H_    0.508216 0.109943 0.283137 0.207687
C23   C     C_R   0.558423 0.115456 0.759444 0.256162
C24   C     C_R   0.515842 0.058006 0.876240 -0.132491
H12   H     H_    0.547853 0.096428 0.976539 0.197976
C25   C     C_R   0.436934 0.947409 0.864344 -0.137033
H13   H     H_    0.400846 0.904879 0.954455 0.166417
C26   C     C_R   0.418442 0.883557 0.738996 -0.170553
H14   H     H_    0.364043 0.793556 0.734064 0.189706
C27   C     C_R   0.469316 0.936816 0.622352 0.028783
C28   C     C_R   0.516477 0.063276 0.628589 0.048392
C29   C     C_R   0.517802 0.129435 0.504120 -0.063834
C30   C     C_R   0.505195 0.062838 0.379682 -0.107854
H15   H     H_    0.489478 0.885667 0.280927 0.160528
C31   C     C_R   0.490360 0.934135 0.378076 -0.148754
C32   C     C_R   0.476369 0.869305 0.499803 -0.089571
C33   C     C_R   0.630792 0.710060 0.147330 0.385313
C34   C     C_R   0.656625 0.817701 0.072103 -0.285860
H16   H     H_    0.699069 0.902961 0.122995 0.204908
C35   C     C_R   0.662994 0.808267 0.932940 -0.239514
H17   H     H_    0.705669 0.885837 0.878198 0.199646
C36   C     C_R   0.629086 0.695058 0.867031 -0.080737
H18   H     H_    0.660764 0.683764 0.767619 0.205872
C37   C     C_R   0.562687 0.597492 0.931220 0.151624
C38   C     C_R   0.564169 0.599920 0.079666 0.024359
N1    N     N_R   0.501190 0.501210 0.147910 -0.242417
C39   C     C_R   0.443337 0.402864 0.065565 0.401572
H19   H     H_    0.399800 0.325435 0.859385 0.193318
C40   C     C_R   0.446211 0.403551 0.919665 0.021996
N2    N     N_R   0.501230 0.501290 0.852040 -0.194168
N3    N     N_R   0.180349 0.464721 0.856124 0.092028
O9    O     O_R   0.252709 0.564658 0.832696 -0.429519
O10   O     O_R   0.163971 0.371460 0.769216 -0.381290
Br1   Br    Br    0.700736 0.237109 0.787122 -0.519797
N4    N     N_R   0.376701 0.296534 0.123225 0.102422
O11   O     O_R   0.361714 0.189934 0.058151 -0.444612
O12   O     O_R   0.309261 0.310250 0.223914 -0.353720
N5    N     N_R   0.713750 0.706778 0.267006 0.144640
O13   O     O_R   0.720450 0.796561 0.357617 -0.395293
O14   O     O_R   0.814113 0.655059 0.254311 -0.416141
N6    N     N_R   0.834609 0.330840 0.329736 0.101839
O15   O     O_R   0.783662 0.229897 0.382297 -0.371182
O16   O     O_R   0.799184 0.359234 0.205584 -0.353513

loop_
_geom_bond_atom_site_label_1
_geom_bond_atom_site_label_2
_geom_bond_distance
_ccdc_geom_bond_type
C11   C16   1.401564 A    
H15   C31   1.082046 S    
C36   C37   1.397255 A    
C21   H10   1.081470 S    
C7    C8    1.401049 A    
C7    C16   1.449271 S    
Cu1   Cu2   2.762470 S    
C25   C26   1.394330 A    
C24   H12   1.082029 S    
C23   C24   1.396975 A    
Cu1   O7    1.999255 S    
C12   C13   1.412787 A    
C14   H5    1.080210 S    
N4    O12   1.294039 A    
Cu1   N2    2.074556 S    
C15   C16   1.406733 A    
O7    C4    1.317998 A    
C3    C32   1.469651 S    
C5    H1    1.082972 S    
C31   C32   1.402835 A    
Cu1   O5    1.966003 S    
C18   H7    1.082353 S    
C35   C36   1.378484 A    
O5    C3    1.321752 A    
C33   C38   1.451155 A    
C26   C27   1.412015 A    
C40   N2    1.362385 A    
C27   C32   1.411954 A    
C23   C28   1.419728 A    
C21   C22   1.398557 A    
C38   N1    1.409351 A    
C34   H16   1.083645 S    
C35   H17   1.082690 S    
O3    Cu1   1.966791 S    
C24   C25   1.392917 A    
C20   H9    1.077091 S    
C30   C31   1.383781 A    
C34   C35   1.376721 A    
C36   H18   1.070348 S    
C27   C28   1.406229 A    
N4    O11   1.300071 A    
N3    O10   1.301837 A    
N5    O14   1.299556 A    
C33   C34   1.400229 A    
C37   N2    1.372801 A    
N1    C39   1.392005 A    
O1    C1    1.313296 A    
C17   C18   1.397680 A    
C23   Br1   1.922395 S    
H11   C30   1.082663 S    
C25   H13   1.082728 S    
Cu2   O8    1.966791 S    
C6    H2    1.084337 S    
C4    C12   1.466841 S    
C33   N5    1.432226 S    
O3    C2    1.318474 A    
C5    C10   1.395425 A    
C2    C15   1.483832 S    
C8    C9    1.391775 A    
N6    O15   1.300186 A    
N6    O16   1.301773 A    
C11   N6    1.437242 S    
C9    C10   1.403470 A    
C28   C29   1.424009 A    
C10   N3    1.409600 S    
C5    C6    1.365291 A    
C19   H8    1.081802 S    
O1    Cu1   1.960888 S    
Cu2   O6    1.960887 S    
O2    Cu2   1.966004 S    
O8    C4    1.321970 A    
N3    O9    1.300003 A    
O6    C3    1.322102 A    
O4    Cu2   1.999255 S    
C29   C30   1.400995 A    
C39   N4    1.437153 S    
C17   H6    1.083206 S    
C14   C15   1.387222 A    
O2    C1    1.329733 A    
C11   C12   1.407171 A    
C20   C21   1.389863 A    
C1    C29   1.469792 S    
C13   C22   1.467676 S    
O4    C2    1.330024 A    
C19   C20   1.398912 A    
C6    C7    1.398377 A    
C18   C19   1.397281 A    
C37   C38   1.456430 A    
H19   C40   1.081155 S    
N5    O13   1.301792 A    
C8    H3    1.082874 S    
Cu2   N1    2.077362 S    
C39   C40   1.435490 A    
C26   H14   1.081338 S    
C13   C14   1.391913 A    
C17   C22   1.406040 A    
C9    H4    1.082369 S    
