data_mof_unit_26634.cif
_audit_creation_date              2013-03-05T15:44:23-0500
_audit_creation_method            fapswitch 2.2
_symmetry_space_group_name_H-M    P1
_symmetry_Int_Tables_number       1
_space_group_crystal_system       triclinic
_cell_length_a                    19.269302
_cell_length_b                    18.850128
_cell_length_c                    20.190064
_cell_angle_alpha                 106.636975
_cell_angle_beta                  106.503924
_cell_angle_gamma                 111.569253
_cell_volume                      5877.77404319

loop_
_atom_site_label
_atom_site_type_symbol
_atom_site_description
_atom_site_fract_x
_atom_site_fract_y
_atom_site_fract_z
_atom_type_partial_charge
C1    C     C_R   0.036354 0.089140 0.346149 -0.142143
H1    H     H_    0.057808 0.155732 0.361609 0.126121
N1    N     N_R   0.052580 0.056040 0.395500 -0.046469
C2    C     C_R   0.755486 0.929481 0.458392 -0.125473
H2    H     H_    0.706556 0.864362 0.426545 0.094041
N2    N     N_R   0.834730 0.954500 0.499860 -0.044649
C3    C     C_R   0.848801 0.778657 0.290068 -0.175068
H3    H     H_    0.877460 0.758944 0.254877 0.104653
N3    N     N_R   0.890210 0.849400 0.355780 -0.039168
C4    C     C_R   0.003157 0.237405 0.569349 -0.156745
H4    H     H_    0.980355 0.253840 0.611115 0.095907
N4    N     N_R   0.997110 0.161140 0.539580 -0.045153
C5    C     C_R   0.771339 0.770474 0.353538 -0.134637
H5    H     H_    0.727578 0.744748 0.375168 0.149946
N5    N     N_R   0.841950 0.845400 0.395490 -0.049508
C6    C     C_R   0.080212 0.243780 0.505844 -0.139039
H6    H     H_    0.128768 0.264800 0.488453 0.159514
N6    N     N_R   0.045360 0.165140 0.499870 -0.053078
C7    C     C_R   0.826260 0.071550 0.521162 -0.129449
H7    H     H_    0.841884 0.137459 0.546014 0.122420
N7    N     N_R   0.877490 0.041510 0.539580 -0.046336
C8    C     C_R   0.966262 0.947873 0.281697 -0.139762
H8    H     H_    0.924308 0.883993 0.237109 0.106718
N8    N     N_R   0.009820 0.969030 0.355780 -0.042783
C9    C     C_R   0.980162 0.022257 0.274260 0.082927
C10   C     C_R   0.748987 0.002309 0.470232 0.167432
C11   C     C_R   0.774070 0.726940 0.286629 0.134074
C12   C     C_R   0.056757 0.292537 0.550773 0.116577
C13   C     C_R   0.238170 0.197844 0.657432 0.506132
N9    N     N_R   0.158050 0.154600 0.604510 -0.137736
C14   C     C_R   0.973447 0.799486 0.546360 -0.130573
H9    H     H_    0.946361 0.789614 0.584985 0.103785
N10   N     N_R   0.954640 0.834860 0.500130 -0.042532
C15   C     C_R   0.170129 0.933450 0.434601 -0.091031
H10   H     H_    0.150587 0.869853 0.394776 0.116460
N11   N     N_R   0.122510 0.958490 0.460420 -0.047771
C16   C     C_R   0.983331 0.050914 0.710718 -0.011442
H11   H     H_    0.998082 0.113222 0.748224 0.133485
N12   N     N_R   0.990180 0.030970 0.644220 -0.048435
C17   C     C_R   0.915232 0.911078 0.646298 -0.149209
H12   H     H_    0.867130 0.846151 0.623692 0.104285
N13   N     N_R   0.947420 0.943960 0.604500 -0.040949
C18   C     C_R   0.238530 0.074157 0.498947 -0.078108
H13   H     H_    0.280767 0.139128 0.514947 0.124719
N14   N     N_R   0.165270 0.045500 0.500140 -0.035817
C19   C     C_R   0.160003 0.193744 0.719695 0.467345
N15   N     N_R   0.109790 0.150600 0.644220 -0.137171
C20   C     C_R   0.051120 0.805958 0.482235 -0.114426
H14   H     H_    0.095515 0.801615 0.461127 0.095184
N16   N     N_R   0.002890 0.838860 0.460420 -0.043744
Ni1   Ni    Ni4+2 0.104370 0.104380 0.500010 0.212427
Ni2   Ni    Ni4+2 0.895630 0.895620 0.499990 0.220229
Ni3   Ni    Ni4+2 0.006300 0.904810 0.408930 0.217865
Ni4   Ni    Ni4+2 0.993700 0.095190 0.591070 0.215596
C21   C     C_R   0.240708 0.220416 0.730130 -0.134751
C22   C     C_R   0.035758 0.782779 0.538239 0.079160
C23   C     C_R   0.243324 0.005425 0.459925 0.092069
C24   C     C_R   0.936712 0.976836 0.713533 0.063996
C25   C     C_R   0.136971 0.730375 0.563662 -0.223498
C26   C     C_R   0.075118 0.744192 0.578573 0.107789
C27   C     C_R   0.043176 0.710331 0.623560 -0.218659
C28   C     C_R   0.058528 0.648468 0.638420 0.080602
C29   C     C_R   0.109414 0.623702 0.611133 0.065668
C30   C     C_R   0.153297 0.669054 0.578524 0.146951
C31   C     C_R   0.016737 0.604983 0.672635 -0.298371
C32   C     C_R   0.016947 0.530670 0.671822 0.366362
C33   C     C_R   0.061153 0.500451 0.637002 -0.043202
C34   C     C_R   0.110548 0.549378 0.610003 -0.024161
C35   C     C_R   0.156496 0.521228 0.576727 0.001853
C36   C     C_R   0.208444 0.573527 0.553784 -0.096361
C37   C     C_R   0.206290 0.646542 0.554153 -0.221478
C38   C     C_R   0.053524 0.420719 0.624684 -0.223363
C39   C     C_R   0.088032 0.385819 0.580870 -0.078512
C40   C     C_R   0.145479 0.439386 0.562273 0.320055
H15   H     H_    0.166826 0.760832 0.533963 0.127245
H16   H     H_    0.999348 0.724515 0.639970 0.124463
H17   H     H_    0.978646 0.625001 0.694844 0.170559
H18   H     H_    0.016012 0.383756 0.645425 0.178757
H19   H     H_    0.247415 0.556069 0.531193 0.187972
H20   H     H_    0.242176 0.682353 0.530963 0.144206
C41   C     C_R   0.387165 0.052739 0.523807 -0.232888
C42   C     C_R   0.316927 0.011251 0.454436 -0.102360
C43   C     C_R   0.318633 0.979058 0.383601 0.469849
C44   C     C_R   0.392460 0.982768 0.383576 0.017559
C45   C     C_R   0.462667 0.020013 0.454732 -0.038666
C46   C     C_R   0.460311 0.057050 0.525182 -0.042973
C47   C     C_R   0.397494 0.949268 0.314583 -0.168402
C48   C     C_R   0.469812 0.948551 0.315829 -0.173762
C49   C     C_R   0.537252 0.978697 0.386061 -0.017551
C50   C     C_R   0.534236 0.017382 0.455843 0.023714
C51   C     C_R   0.601978 0.051135 0.527246 0.090164
C52   C     C_R   0.599987 0.089667 0.596326 -0.341461
C53   C     C_R   0.529986 0.095103 0.595952 0.561193
C54   C     C_R   0.607679 0.970748 0.388999 0.482742
C55   C     C_R   0.674159 0.005753 0.461215 -0.072804
C56   C     C_R   0.670921 0.044747 0.529172 -0.268279
H21   H     H_    0.383203 0.078703 0.577201 0.224419
H22   H     H_    0.345341 0.922639 0.259502 0.162576
H23   H     H_    0.471928 0.923124 0.261592 0.160727
H24   H     H_    0.722541 0.069376 0.584349 0.164796
H25   H     H_    0.651863 0.113539 0.650706 0.143571
C57   C     C_R   0.311470 0.259522 0.804588 0.011005
C58   C     C_R   0.353568 0.215716 0.824930 0.179550
C59   C     C_R   0.409575 0.248234 0.902627 0.415231
C60   C     C_R   0.424125 0.324517 0.957424 -0.028007
C61   C     C_R   0.382541 0.366998 0.935623 -0.236744
C62   C     C_R   0.327017 0.335005 0.859941 -0.146649
C63   C     C_R   0.674140 0.529124 0.104026 -0.196439
C64   C     C_R   0.718731 0.613273 0.157688 -0.223845
C65   C     C_R   0.681983 0.572720 0.251976 0.406724
C66   C     C_R   0.632592 0.487141 0.195970 0.201936
C67   C     C_R   0.628572 0.466214 0.121360 -0.050008
C68   C     C_2   0.485160 0.365133 0.037862 -0.128897
C69   C     C_2   0.564255 0.385176 0.055204 -0.009673
C70   C     C_R   0.722031 0.636492 0.231404 -0.069423
H26   H     H_    0.749665 0.660807 0.140756 0.159870
H27   H     H_    0.580424 0.359303 0.010101 0.149942
H28   H     H_    0.393679 0.425824 0.977472 0.156142
H29   H     H_    0.670068 0.513860 0.046557 0.151244
H30   H     H_    0.294335 0.368241 0.844686 0.145805
H31   H     H_    0.470690 0.399318 0.080485 0.146126
C71   C     C_R   0.934458 0.028568 0.206308 0.085241
C72   C     C_R   0.852245 0.965331 0.155614 -0.294651
C73   C     C_R   0.809649 0.967428 0.087784 0.347838
C74   C     C_R   0.852366 0.032594 0.069650 0.037265
C75   C     C_R   0.931527 0.099722 0.124081 -0.194446
C76   C     C_R   0.972280 0.097854 0.192020 -0.148283
C77   C     C_R   0.825618 0.008633 0.837544 -0.319142
C78   C     C_R   0.861357 0.018788 0.786676 0.554822
C79   C     C_R   0.895039 0.907536 0.792646 -0.231200
C80   C     C_R   0.861278 0.899468 0.844135 -0.158605
C81   C     C_R   0.829077 0.951906 0.869036 0.133334
C82   C     C_2   0.826725 0.023833 0.990332 -0.116104
C83   C     C_2   0.808417 0.951651 0.933838 -0.101116
C84   C     C_R   0.897532 0.968456 0.765453 -0.012653
H32   H     H_    0.821130 0.914451 0.169088 0.170429
H33   H     H_    0.921643 0.867848 0.775710 0.148084
H34   H     H_    0.797860 0.896214 0.944716 0.136825
H35   H     H_    0.964772 0.150275 0.111171 0.139651
H36   H     H_    0.795880 0.045279 0.852861 0.144069
H37   H     H_    0.035182 0.148030 0.231135 0.137542
H38   H     H_    0.845994 0.081958 0.983229 0.119771
H39   H     H_    0.863793 0.854745 0.867282 0.131602
O1    O     O_3   0.137221 0.221343 0.776795 -0.658423
C85   C     C_3   0.100431 0.270546 0.760277 0.147780
H40   H     H_    0.034365 0.227860 0.717814 0.100632
H41   H     H_    0.132892 0.312309 0.736932 0.089556
C86   C     C_3   0.104991 0.327927 0.834101 -0.308868
H42   H     H_    0.076187 0.289039 0.860799 0.197863
H43   H     H_    0.171078 0.372984 0.875529 0.209168
C87   C     C_3   0.060889 0.378148 0.818179 -0.929424
H44   H     H_    0.091552 0.420404 0.794795 0.271809
H45   H     H_    0.063535 0.417790 0.872434 0.277114
H46   H     H_    0.994799 0.334459 0.776222 0.266467
N17   N     N_R   0.967177 0.484105 0.701539 0.227072
O2    O     O_R   0.903794 0.408879 0.655507 -0.416113
O3    O     O_R   0.973739 0.523485 0.769356 -0.397128
N18   N     N_R   0.190710 0.411097 0.526571 0.201416
O4    O     O_R   0.261386 0.420770 0.569188 -0.468532
O5    O     O_R   0.169412 0.390739 0.453780 -0.428756
O6    O     O_3   0.247199 0.939050 0.315631 -0.669785
C88   C     C_3   0.237367 0.001105 0.294184 0.165892
H47   H     H_    0.283713 0.027120 0.272885 0.108513
H48   H     H_    0.245069 0.054420 0.343047 0.095421
C89   C     C_3   0.150099 0.959801 0.230022 -0.241732
H49   H     H_    0.141653 0.907945 0.179669 0.205516
H50   H     H_    0.103775 0.931869 0.250558 0.204262
C90   C     C_3   0.134856 0.024104 0.205302 -1.002459
H51   H     H_    0.142156 0.076117 0.254670 0.267827
H52   H     H_    0.070717 0.992217 0.159307 0.273583
H53   H     H_    0.179195 0.051362 0.182745 0.272584
O7    O     O_3   0.615020 0.935148 0.322789 -0.649965
C91   C     C_3   0.573387 0.845590 0.293359 0.155898
H54   H     H_    0.506329 0.819193 0.257275 0.111721
H55   H     H_    0.579009 0.823692 0.339428 0.081823
C92   C     C_3   0.609875 0.809855 0.243166 -0.230939
H56   H     H_    0.600822 0.827824 0.194777 0.228725
H57   H     H_    0.677595 0.837760 0.277776 0.207336
C93   C     C_3   0.568899 0.713342 0.210748 -0.984052
H58   H     H_    0.579651 0.693961 0.258112 0.271604
H59   H     H_    0.595898 0.689608 0.173647 0.281771
H60   H     H_    0.501110 0.684095 0.175592 0.269215
O8    O     O_3   0.525584 0.128267 0.664491 -0.636930
C94   C     C_3   0.580871 0.216619 0.703906 0.161220
H61   H     H_    0.570435 0.248150 0.665853 0.099088
H62   H     H_    0.646318 0.229726 0.725267 0.109843
C95   C     C_3   0.565933 0.254180 0.772851 -0.173410
H63   H     H_    0.501795 0.244583 0.752089 0.228394
H64   H     H_    0.572431 0.220886 0.809721 0.239207
C96   C     C_3   0.627255 0.348835 0.820865 -1.052123
H65   H     H_    0.691669 0.359566 0.844900 0.280083
H66   H     H_    0.613143 0.374257 0.869174 0.275908
H67   H     H_    0.622483 0.383611 0.785217 0.278281
N19   N     N_R   0.336618 0.136643 0.768859 0.243640
O9    O     O_R   0.260537 0.077057 0.722667 -0.413297
O10   O     O_R   0.396555 0.119858 0.769995 -0.372041
O11   O     O_3   0.691193 0.593658 0.326539 -0.642077
C97   C     C_3   0.755669 0.581521 0.366671 0.221885
H68   H     H_    0.815321 0.622899 0.367857 0.080249
H69   H     H_    0.740350 0.513943 0.339381 0.132886
C98   C     C_3   0.766796 0.604835 0.449342 -0.247437
H70   H     H_    0.789613 0.674018 0.479374 0.179496
H71   H     H_    0.706057 0.569950 0.449315 0.235551
C99   C     C_3   0.828200 0.582453 0.492512 -0.999228
H72   H     H_    0.802529 0.512553 0.467434 0.287852
H73   H     H_    0.840055 0.605989 0.553849 0.269171
H74   H     H_    0.887755 0.611962 0.489003 0.267836
O12   O     O_3   0.450257 0.206062 0.925372 -0.637235
C100  C     C_3   0.396150 0.136060 0.931842 0.254817
H75   H     H_    0.411884 0.084768 0.914034 0.162067
H76   H     H_    0.329168 0.108755 0.893378 0.093732
C101  C     C_3   0.409184 0.160499 0.015306 -0.310818
H77   H     H_    0.476045 0.188345 0.053345 0.260086
H78   H     H_    0.389624 0.208606 0.032831 0.214808
C102  C     C_3   0.358869 0.083638 0.025378 -0.953903
H79   H     H_    0.291638 0.055298 0.988408 0.263581
H80   H     H_    0.369166 0.103619 0.086252 0.283892
H81   H     H_    0.378491 0.035111 0.010089 0.272108
N20   N     N_R   0.587093 0.422423 0.214904 0.237137
O13   O     O_R   0.578348 0.346806 0.185772 -0.410285
O14   O     O_R   0.555652 0.439134 0.262642 -0.359952
O15   O     O_3   0.852865 0.069433 0.750205 -0.673955
C103  C     C_3   0.883679 0.153963 0.803481 0.140621
H82   H     H_    0.932744 0.196211 0.793071 0.124329
H83   H     H_    0.912915 0.167379 0.865129 0.085353
C104  C     C_3   0.814358 0.176981 0.788569 -0.279329
H84   H     H_    0.793933 0.173764 0.730022 0.198567
H85   H     H_    0.760624 0.130838 0.791499 0.208148
C105  C     C_3   0.843547 0.266283 0.846830 -0.958133
H86   H     H_    0.862892 0.270766 0.905874 0.264328
H87   H     H_    0.792017 0.281174 0.833768 0.266530
H88   H     H_    0.896507 0.313679 0.844068 0.279264
N21   N     N_R   0.724452 0.903230 0.037882 0.232567
O16   O     O_R   0.693845 0.831490 0.042187 -0.409204
O17   O     O_R   0.674893 0.919076 0.993050 -0.370622
O18   O     O_3   0.306661 0.226255 0.643286 -0.648205
C106  C     C_3   0.307874 0.288544 0.617294 0.205734
H89   H     H_    0.298329 0.336915 0.654917 0.121374
H90   H     H_    0.258243 0.258156 0.557704 0.069174
C107  C     C_3   0.391613 0.333805 0.616661 -0.265566
H91   H     H_    0.405089 0.286199 0.584074 0.184361
H92   H     H_    0.388818 0.374936 0.587189 0.205016
C108  C     C_3   0.461656 0.388658 0.698047 -0.820242
H93   H     H_    0.451436 0.439598 0.730025 0.255741
H94   H     H_    0.521710 0.418497 0.695380 0.238999
H95   H     H_    0.464966 0.349509 0.729480 0.275546

loop_
_geom_bond_atom_site_label_1
_geom_bond_atom_site_label_2
_geom_bond_distance
_ccdc_geom_bond_type
C6    C12   1.390251 A    
N19   O10   1.300910 A    
N9    Ni1   1.820443 S    
C96   H65   1.110859 S    
C82   C83   1.344080 D    
N17   O3    1.300950 A    
C57   C58   1.416331 A    
C39   C40   1.420342 A    
C55   C56   1.389813 A    
C44   C47   1.402384 A    
C47   C48   1.391691 A    
C77   C78   1.408258 A    
C67   C69   1.467207 S    
C41   C42   1.386584 A    
C103  C104  1.528260 S    
C72   C73   1.402491 A    
C91   H54   1.110332 S    
C94   H61   1.116064 S    
N10   Ni2   1.887412 S    
C57   C62   1.396107 A    
C21   C57   1.457521 S    
C82   H38   1.086299 S    
C89   H49   1.111542 S    
C41   H21   1.086110 S    
C103  H83   1.116761 S    
C60   C68   1.465500 S    
C7    N7    1.325303 A    
C16   H11   1.075486 S    
C86   H43   1.111512 S    
C15   H10   1.081470 S    
C105  H88   1.110522 S    
C35   C36   1.409914 A    
C102  H80   1.110506 S    
N7    Ni4   1.878309 S    
C30   C37   1.396217 A    
N12   Ni4   1.829326 S    
C61   C62   1.382872 A    
N14   Ni1   1.888527 S    
C74   C82   1.474774 S    
C108  H93   1.110828 S    
C49   C54   1.405880 A    
C100  C101  1.531321 S    
C3    C11   1.378799 A    
O18   C106  1.412161 S    
C3    N3    1.333517 A    
C1    H1    1.079270 S    
C76   H37   1.083012 S    
C87   H46   1.110907 S    
C71   C76   1.398391 A    
C7    C10   1.382277 A    
C65   C66   1.414895 A    
C37   H20   1.083887 S    
C95   C96   1.525837 S    
C38   H18   1.073348 S    
N11   Ni3   1.878312 S    
N10   N16   1.385460 A    
C64   H26   1.083278 S    
C54   O7    1.385958 S    
C51   C56   1.368157 A    
C78   C84   1.411673 A    
C92   C93   1.526424 S    
C66   C67   1.414836 A    
O12   C100  1.417697 S    
C108  H94   1.110204 S    
C8    C9    1.388371 A    
C19   C21   1.376196 A    
C15   C23   1.370249 A    
C87   H44   1.110979 S    
C14   N10   1.337546 A    
C92   H56   1.111661 S    
C36   C37   1.390114 A    
C58   N19   1.440731 S    
C63   C64   1.383158 A    
C14   C22   1.388532 A    
O11   C97   1.412674 S    
C9    C71   1.468342 S    
C16   C24   1.382829 A    
C96   H67   1.110429 S    
C93   H60   1.110704 S    
C48   C49   1.403937 A    
C90   H52   1.110521 S    
C32   C33   1.418449 A    
C43   O6    1.384774 S    
C25   C26   1.402224 A    
C89   H50   1.111594 S    
C5    H5    1.080171 S    
C61   H28   1.084013 S    
C65   O11   1.382067 S    
N18   O5    1.301597 A    
C99   H72   1.110704 S    
C98   H71   1.111666 S    
C63   H29   1.084337 S    
N1    N8    1.374737 A    
C27   C28   1.393186 A    
C66   N20   1.440188 S    
C97   C98   1.527233 S    
C12   C39   1.491742 S    
C77   C81   1.403484 A    
C59   C60   1.409502 A    
C85   H41   1.118512 S    
C105  H86   1.110789 S    
N6    Ni1   1.887412 S    
C85   H40   1.111228 S    
N12   N13   1.374734 A    
C88   H48   1.115667 S    
C90   H53   1.110715 S    
C27   H16   1.081096 S    
C97   H69   1.114741 S    
C16   N12   1.345161 A    
C75   H35   1.083805 S    
N17   O2    1.301268 A    
N16   Ni3   1.830109 S    
C31   H17   1.084421 S    
C40   N18   1.429038 S    
C33   C34   1.410985 A    
C48   H23   1.081545 S    
N9    N15   1.385619 A    
C35   C40   1.405850 A    
C86   C87   1.527183 S    
C17   C24   1.374984 A    
C44   C45   1.416634 A    
C103  H82   1.107900 S    
C2    N2    1.331584 A    
C102  H81   1.110819 S    
C51   C52   1.394668 A    
N1    Ni1   1.820058 S    
C6    H6    1.072123 S    
C19   O1    1.380025 S    
C13   C21   1.387126 A    
N8    Ni3   1.829325 S    
C45   C46   1.415657 A    
N2    N7    1.374734 A    
C107  C108  1.527011 S    
C63   C67   1.395137 A    
C26   C27   1.404264 A    
C1    N1    1.342489 A    
N18   O4    1.300046 A    
C18   H13   1.076037 S    
C13   O18   1.375589 S    
C13   N9    1.352179 A    
C46   C53   1.404909 A    
N20   O14   1.301324 A    
C88   C89   1.527820 S    
N21   O17   1.301518 A    
C17   N13   1.339889 A    
C43   C44   1.398563 A    
C99   H74   1.109431 S    
C108  H95   1.109609 S    
C28   C29   1.406809 A    
C107  H92   1.111201 S    
C100  H75   1.111045 S    
C25   C30   1.391947 A    
C18   C23   1.361142 A    
O8    C94   1.413093 S    
N11   N14   1.374736 A    
N5    Ni2   1.820443 S    
C86   H42   1.110428 S    
C20   N16   1.337907 A    
C18   N14   1.323369 A    
C97   H68   1.115641 S    
C91   H55   1.114780 S    
C4    N4    1.335603 A    
C52   H25   1.081652 S    
N15   Ni4   1.876956 S    
C73   N21   1.440848 S    
C6    N6    1.335155 A    
C17   H12   1.082142 S    
C79   C84   1.399245 A    
C99   H73   1.110308 S    
C104  H84   1.110380 S    
C89   C90   1.526273 S    
C104  H85   1.110962 S    
C5    N5    1.345655 A    
C74   C75   1.402793 A    
C98   C99   1.526220 S    
C8    N8    1.341569 A    
N3    Ni3   1.876956 S    
C31   C32   1.397705 A    
C80   C81   1.399452 A    
C49   C50   1.417594 A    
C25   H15   1.081833 S    
C62   H30   1.083673 S    
N20   O13   1.301180 A    
C85   C86   1.527032 S    
C80   H39   1.083622 S    
O7    C91   1.416187 S    
C68   C69   1.336365 D    
N21   O16   1.301606 A    
C91   C92   1.528822 S    
C4    C12   1.393369 A    
C10   C55   1.429270 S    
C20   C22   1.391064 A    
C19   N15   1.339314 A    
C90   H51   1.110814 S    
C96   H66   1.110765 S    
C28   C31   1.397355 A    
C36   H19   1.081951 S    
C8    H8    1.078878 S    
C101  C102  1.525911 S    
C34   C35   1.412839 A    
C14   H9    1.076169 S    
C41   C46   1.373409 A    
C101  H78   1.110373 S    
C38   C39   1.407154 A    
C83   H34   1.087265 S    
C2    C10   1.383091 A    
C45   C50   1.392168 A    
C1    C9    1.387136 A    
C24   C84   1.466505 S    
C88   H47   1.113511 S    
C104  C105  1.525727 S    
C60   C61   1.396505 A    
C29   C34   1.402979 A    
C98   H70   1.111679 S    
C72   H32   1.082881 S    
O1    C85   1.414310 S    
C94   C95   1.528050 S    
C47   H22   1.083103 S    
C7    H7    1.080806 S    
C106  H90   1.113149 S    
C79   C80   1.388922 A    
C77   H36   1.081941 S    
C95   H63   1.110738 S    
C105  H87   1.110325 S    
C78   O15   1.388990 S    
C107  H91   1.111714 S    
C53   O8    1.386799 S    
C50   C51   1.407836 A    
C32   N17   1.435165 S    
O6    C88   1.413543 S    
C75   C76   1.391200 A    
C20   H14   1.076482 S    
C56   H24   1.086602 S    
C92   H57   1.111101 S    
C52   C53   1.387919 A    
C100  H76   1.116729 S    
C94   H62   1.112814 S    
N19   O9    1.301248 A    
C15   N11   1.336340 A    
C87   H45   1.110174 S    
C102  H79   1.110976 S    
N3    N5    1.385617 A    
C54   C55   1.403106 A    
O15   C103  1.417243 S    
C95   H64   1.111766 S    
C69   H27   1.087565 S    
C3    H3    1.081911 S    
C4    H4    1.077542 S    
C64   C70   1.401259 A    
C29   C30   1.409385 A    
C22   C26   1.470141 S    
C2    H2    1.077878 S    
C68   H31   1.088329 S    
C101  H77   1.111310 S    
C59   O12   1.385640 S    
C81   C83   1.472571 S    
C42   C43   1.399677 A    
C106  C107  1.528893 S    
N4    N6    1.385461 A    
C58   C59   1.415057 A    
C93   H58   1.110858 S    
C23   C42   1.420420 S    
C5    C11   1.392287 A    
C33   C38   1.394680 A    
N2    Ni2   1.888529 S    
C71   C72   1.403509 A    
C106  H89   1.117259 S    
C79   H33   1.083749 S    
C65   C70   1.413875 A    
N4    Ni4   1.830109 S    
N13   Ni2   1.820058 S    
C73   C74   1.416285 A    
C93   H59   1.110216 S    
C11   C70   1.474711 S    
