data_mof_unit_65097.cif
_audit_creation_date              2012-10-26T18:22:19-0400
_audit_creation_method            fapswitch 2.2
_symmetry_space_group_name_H-M    P1
_symmetry_Int_Tables_number       1
_space_group_crystal_system       triclinic
_cell_length_a                    27.913996
_cell_length_b                    27.857198
_cell_length_c                    27.933711
_cell_angle_alpha                 109.367376
_cell_angle_beta                  109.723381
_cell_angle_gamma                 109.334313
_cell_volume                      16718.6192157

loop_
_atom_site_label
_atom_site_type_symbol
_atom_type_description
_atom_site_fract_x
_atom_site_fract_y
_atom_site_fract_z
_atom_type_partial_charge
C1    C     C_R   0.420490 0.420387 0.499978 0.549161
C2    C     C_R   0.207312 0.203060 0.497625 -0.047009
C3    C     C_3   0.880269 0.277313 0.715727 0.001679
C4    C     C_3   0.815105 0.257093 0.689748 -0.369708
C5    C     C_3   0.927640 0.711378 0.097702 -0.110939
C6    C     C_3   0.620516 0.505792 0.785360 0.028015
C7    C     C_3   0.637428 0.556369 0.842441 -0.361559
C8    C     C_3   0.927722 0.827211 0.210728 -0.093603
C9    C     C_3   0.070778 0.788676 0.399246 -0.110949
C10   C     C_3   0.069767 0.672756 0.286559 0.006835
C11   C     C_3   0.072826 0.618897 0.285311 -0.362665
C12   C     C_3   0.582100 0.406290 0.673422 -0.084987
C13   C     C_R   0.267253 0.225986 0.536701 0.254213
C14   C     C_3   0.680606 0.429581 0.830585 -0.082294
C15   C     C_3   0.793609 0.551724 0.910156 0.020982
C16   C     C_3   0.783858 0.583800 0.958676 -0.408325
C17   C     C_3   0.821910 0.637373 0.731147 -0.080501
C18   C     C_3   0.717941 0.623875 0.751957 -0.084182
C19   C     C_3   0.914122 0.575921 0.811213 0.021979
C20   C     C_3   0.960845 0.609516 0.800358 -0.390571
C21   C     C_R   0.579736 0.499975 0.579824 0.539053
C22   C     C_R   0.310768 0.270438 0.537314 0.253845
C23   C     C_R   0.294498 0.290796 0.497924 -0.046201
C24   C     C_R   0.234970 0.265618 0.456850 0.234477
C25   C     C_1   0.161981 0.159805 0.498699 0.018777
C26   C     C_1   0.338939 0.337363 0.499304 0.023241
C27   C     C_1   0.376120 0.375577 0.499878 -0.009282
C28   C     C_1   0.124191 0.123387 0.499331 -0.007012
C29   C     C_3   0.766767 0.446558 0.727520 0.516166
C30   C     C_R   0.247998 0.553103 0.259220 0.256145
C31   C     C_R   0.203853 0.500130 0.206797 -0.050011
C32   C     C_R   0.202632 0.447086 0.198815 0.223359
C33   C     C_R   0.579561 0.579622 0.500074 0.554354
C34   C     C_R   0.244870 0.446705 0.243773 0.232830
C35   C     C_R   0.290620 0.499891 0.295012 -0.047161
C36   C     C_R   0.291509 0.553115 0.303356 0.255092
C37   C     C_1   0.159781 0.500137 0.160902 0.020276
C38   C     C_1   0.336733 0.499586 0.338573 0.021344
C39   C     C_1   0.374920 0.499532 0.375454 -0.006268
C40   C     C_3   0.789708 0.499953 0.790321 0.006332
C41   C     C_1   0.122660 0.500122 0.122922 -0.007869
C42   C     C_R   0.746635 0.799528 0.501498 0.243618
C43   C     C_R   0.793753 0.792758 0.499128 -0.055727
C44   C     C_R   0.797478 0.743033 0.497726 0.252682
C45   C     C_R   0.420110 0.499941 0.420120 0.556012
C46   C     C_R   0.754055 0.700333 0.498871 0.251844
C47   C     C_R   0.706916 0.707096 0.501231 -0.052658
C48   C     C_R   0.703397 0.756986 0.502957 0.252091
C49   C     C_1   0.838690 0.837737 0.499367 0.009850
C50   C     C_1   0.661775 0.662110 0.500824 0.009570
C51   C     C_3   0.817033 0.561274 0.791699 0.504337
C52   C     C_1   0.624210 0.624386 0.500392 -0.013490
C53   C     C_1   0.876034 0.875520 0.499673 -0.017021
C54   C     C_R   0.998396 0.420490 0.918923 0.544490
C55   C     C_R   0.918442 0.500021 0.918392 0.534726
C56   C     C_R   0.997986 0.579715 0.077486 0.544202
C57   C     C_3   0.723142 0.452132 0.677474 0.508100
C58   C     C_R   0.078077 0.500023 0.078012 0.546203
C59   C     C_R   0.999718 0.079442 0.579410 0.547977
C60   C     C_R   0.079554 0.079557 0.499975 0.553115
C61   C     C_R   0.000171 0.920451 0.420601 0.550029
C62   C     C_3   0.764548 0.563934 0.747706 0.512862
C63   C     C_R   0.920486 0.920394 0.499968 0.544557
C64   C     C_R   0.052805 0.253012 0.756523 0.253740
C65   C     C_R   0.999319 0.205417 0.706735 -0.054992
C66   C     C_R   0.945665 0.201431 0.700374 0.237428
C67   C     C_R   0.945449 0.245861 0.742985 0.242225
C68   C     C_R   0.998962 0.293251 0.793197 -0.059863
C69   C     C_3   0.683234 0.482913 0.748755 0.508318
C70   C     C_R   0.052689 0.296637 0.800093 0.245031
C71   C     C_1   0.999412 0.160818 0.661677 0.010091
C72   C     C_1   0.998683 0.338281 0.837546 -0.005874
C73   C     C_1   0.836102 0.499818 0.836291 -0.000218
C74   C     C_1   0.998493 0.375830 0.874644 -0.025108
C75   C     C_1   0.999485 0.123678 0.624040 -0.015520
C76   C     C_R   0.990718 0.794901 0.240874 0.254229
C77   C     C_R   0.000137 0.794060 0.293364 -0.052841
C78   C     C_R   0.008400 0.749310 0.301222 0.248024
C79   C     C_R   0.006942 0.705454 0.256391 0.241697
C80   C     C_R   0.997601 0.706335 0.203960 -0.055995
C81   C     C_3   0.736652 0.491842 0.803550 0.512203
C82   C     C_R   0.989337 0.751073 0.196064 0.254312
C83   C     C_1   0.000237 0.838696 0.338516 0.007807
C84   C     C_1   0.661304 0.499646 0.662243 0.009653
C85   C     C_1   0.997701 0.661730 0.159015 0.008394
C86   C     C_1   0.997878 0.624327 0.121782 -0.017761
C87   C     C_1   0.000220 0.876008 0.376028 -0.016393
C88   C     C_1   0.873801 0.499892 0.873779 -0.079360
C89   C     C_3   0.707491 0.499633 0.708536 0.009478
C90   C     C_3   0.768347 0.372011 0.753869 -0.080837
C91   C     C_3   0.717911 0.466856 0.594976 0.022773
C92   C     C_3   0.744541 0.456768 0.555753 -0.389788
C93   C     C_3   0.809803 0.405176 0.674845 -0.087398
C94   C     C_3   0.877372 0.665076 0.865212 -0.084155
C95   C     C_1   0.624024 0.499788 0.624517 -0.072116
C96   C     C_3   0.213158 0.248967 0.365101 -0.099529
C97   C     C_3   0.112675 0.236526 0.443359 -0.087316
C98   C     C_3   0.277935 0.152905 0.550626 -0.105440
C99   C     C_3   0.396890 0.270864 0.556755 -0.109294
C100  C     C_3   0.329611 0.612508 0.401468 -0.104430
C101  C     C_3   0.215895 0.616630 0.287684 -0.102600
C102  C     C_3   0.177645 0.382427 0.107515 0.011987
C103  C     C_3   0.127418 0.327528 0.050073 -0.371559
C104  C     C_3   0.669861 0.350696 0.598941 -0.086125
C105  C     C_3   0.207871 0.368445 0.255335 -0.097128
C106  C     C_R   0.191276 0.223430 0.458267 0.237344
C107  C     C_3   0.663363 0.782871 0.559295 -0.103242
C108  C     C_3   0.772862 0.895554 0.554511 0.003382
C109  C     C_3   0.786610 0.950380 0.548913 -0.366363
C110  C     C_3   0.841087 0.721152 0.443638 -0.098848
C111  C     C_3   0.729601 0.605643 0.445048 -0.097148
C112  C     C_3   0.118248 0.340703 0.898280 0.000908
C113  C     C_3   0.184443 0.373542 0.938731 -0.357456
C114  C     C_3   0.122193 0.227154 0.785424 -0.097268
C115  C     C_3   0.874960 0.156555 0.604171 0.000328
C116  C     C_3   0.833911 0.095396 0.550614 -0.370042
Cu1   Cu    Cu3+1 0.500150 0.458980 0.459120 0.937609
Cu2   Cu    Cu3+1 0.499850 0.541020 0.540880 0.935001
Cu3   Cu    Cu3+1 0.957230 0.459100 0.998270 0.945287
Cu4   Cu    Cu3+1 0.039250 0.541110 0.998230 0.952691
Cu5   Cu    Cu3+1 0.041170 0.999960 0.541120 0.949819
Cu6   Cu    Cu3+1 0.958830 0.000040 0.458870 0.947255
H1    H     H_    0.815349 0.393037 0.766617 0.124854
H2    H     H_    0.773927 0.361668 0.659575 0.103588
H3    H     H_    0.635541 0.395912 0.793572 0.160171
H4    H     H_    0.839523 0.580264 0.923203 0.178108
H5    H     H_    0.790020 0.510753 0.909860 0.146777
H6    H     H_    0.740010 0.555940 0.950998 0.126428
H7    H     H_    0.817568 0.594154 0.001528 0.088338
H8    H     H_    0.787514 0.625457 0.960737 0.164725
H9    H     H_    0.865285 0.640696 0.741939 0.161949
H10   H     H_    0.824600 0.670426 0.768830 0.104117
H11   H     H_    0.810589 0.649160 0.696270 0.118795
H12   H     H_    0.714447 0.616659 0.709153 0.129626
H13   H     H_    0.850606 0.402549 0.689365 0.101201
H14   H     H_    0.737019 0.671708 0.780102 0.102076
H15   H     H_    0.673120 0.602164 0.745075 0.169108
H16   H     H_    0.913248 0.533760 0.802502 0.182939
H17   H     H_    0.928368 0.600900 0.858320 0.148262
H18   H     H_    0.965345 0.653244 0.809960 0.127258
H19   H     H_    0.003795 0.615771 0.829196 0.104550
H20   H     H_    0.948719 0.584512 0.753859 0.175493
H21   H     H_    0.899137 0.669499 0.839296 0.109020
H22   H     H_    0.913034 0.689645 0.911636 0.110190
H23   H     H_    0.850742 0.687058 0.862818 0.161999
H24   H     H_    0.177599 0.202972 0.344259 0.154528
H25   H     H_    0.255297 0.250190 0.371842 0.101317
H26   H     H_    0.201061 0.265275 0.334194 0.132860
H27   H     H_    0.136305 0.281213 0.450051 0.155441
H28   H     H_    0.116848 0.239377 0.485417 0.110404
H29   H     H_    0.749005 0.324164 0.725586 0.101861
H30   H     H_    0.065429 0.217244 0.412282 0.138685
H31   H     H_    0.286807 0.144558 0.513479 0.079592
H32   H     H_    0.233390 0.118223 0.535104 0.128694
H33   H     H_    0.309849 0.149083 0.583682 0.143849
H34   H     H_    0.394157 0.273562 0.517140 0.095111
H35   H     H_    0.378569 0.224435 0.546431 0.121702
H36   H     H_    0.444095 0.294615 0.590292 0.128865
H37   H     H_    0.353145 0.595209 0.425183 0.129280
H38   H     H_    0.282803 0.591045 0.390195 0.074735
H39   H     H_    0.349772 0.659971 0.432211 0.146618
H40   H     H_    0.765325 0.378246 0.793817 0.174449
H41   H     H_    0.232234 0.623457 0.332881 0.114684
H42   H     H_    0.169311 0.580723 0.258696 0.095541
H43   H     H_    0.217041 0.657520 0.289884 0.142568
H44   H     H_    0.214694 0.374204 0.124085 0.171656
H45   H     H_    0.191899 0.419120 0.098310 0.119626
H46   H     H_    0.090455 0.335109 0.031499 0.158614
H47   H     H_    0.142511 0.316403 0.018023 0.082555
H48   H     H_    0.111868 0.290038 0.057682 0.169185
H49   H     H_    0.703668 0.363952 0.586685 0.107025
H50   H     H_    0.627053 0.323813 0.557421 0.103388
H51   H     H_    0.718503 0.508910 0.603772 0.183419
H52   H     H_    0.673575 0.321454 0.617123 0.161932
H53   H     H_    0.161751 0.357410 0.229252 0.151145
H54   H     H_    0.225528 0.397183 0.302891 0.103846
H55   H     H_    0.207352 0.326861 0.249478 0.136890
H56   H     H_    0.709730 0.815429 0.594924 0.077237
H57   H     H_    0.646520 0.745180 0.566236 0.127201
H58   H     H_    0.636948 0.804652 0.563193 0.146790
H59   H     H_    0.815412 0.900368 0.582911 0.109457
H60   H     H_    0.746359 0.893232 0.576547 0.146170
H61   H     H_    0.745254 0.948195 0.522285 0.167172
H62   H     H_    0.671367 0.431489 0.569945 0.147815
H63   H     H_    0.811485 0.989951 0.593113 0.120367
H64   H     H_    0.813588 0.954159 0.527403 0.159442
H65   H     H_    0.866653 0.760856 0.443048 0.131953
H66   H     H_    0.795157 0.695860 0.406062 0.084396
H67   H     H_    0.861136 0.692990 0.436533 0.149645
H68   H     H_    0.750014 0.614649 0.418839 0.122342
H69   H     H_    0.682358 0.592430 0.421762 0.107647
H70   H     H_    0.731829 0.567750 0.448331 0.139625
H71   H     H_    0.100685 0.294586 0.889584 0.098880
H72   H     H_    0.099482 0.361790 0.921826 0.136924
H73   H     H_    0.743738 0.414224 0.543639 0.121823
H74   H     H_    0.203174 0.420211 0.949779 0.171904
H75   H     H_    0.194881 0.371788 0.979931 0.082561
H76   H     H_    0.204786 0.353222 0.916873 0.164611
H77   H     H_    0.089176 0.179519 0.758052 0.108779
H78   H     H_    0.129810 0.243805 0.830832 0.107694
H79   H     H_    0.164138 0.232070 0.787761 0.147601
H80   H     H_    0.912184 0.179283 0.598553 0.113380
H81   H     H_    0.850490 0.180828 0.605516 0.138950
H82   H     H_    0.795265 0.071838 0.553711 0.159052
H83   H     H_    0.818484 0.098633 0.510203 0.098038
H84   H     H_    0.719043 0.456104 0.514996 0.102774
H85   H     H_    0.857359 0.070110 0.547797 0.161788
H86   H     H_    0.891852 0.276693 0.681102 0.097733
H87   H     H_    0.904918 0.323289 0.752375 0.131388
H88   H     H_    0.802474 0.259275 0.723776 0.159061
H89   H     H_    0.805263 0.285885 0.673366 0.066166
H90   H     H_    0.788958 0.211217 0.652648 0.162353
H91   H     H_    0.892907 0.696834 0.109233 0.080894
H92   H     H_    0.929774 0.672889 0.071948 0.122992
H93   H     H_    0.913828 0.729108 0.068679 0.140560
H94   H     H_    0.611604 0.466025 0.788978 0.130362
H95   H     H_    0.790707 0.492685 0.579006 0.179123
H96   H     H_    0.578465 0.496859 0.751650 0.122669
H97   H     H_    0.642721 0.595474 0.837519 0.158600
H98   H     H_    0.602599 0.543618 0.853957 0.084233
H99   H     H_    0.679149 0.567959 0.878495 0.186639
H100  H     H_    0.909279 0.818446 0.238501 0.104695
H101  H     H_    0.900289 0.789240 0.165299 0.117361
H102  H     H_    0.925324 0.865446 0.208540 0.146476
H103  H     H_    0.069689 0.827960 0.424979 0.135741
H104  H     H_    0.105271 0.801999 0.387148 0.079164
H105  H     H_    0.084146 0.770976 0.428438 0.140310
H106  H     H_    0.804565 0.414115 0.638149 0.160075
H107  H     H_    0.096107 0.708828 0.332958 0.137561
H108  H     H_    0.089733 0.685707 0.261250 0.115256
H109  H     H_    0.048801 0.582602 0.239232 0.160868
H110  H     H_    0.119347 0.629629 0.306092 0.069418
H111  H     H_    0.052933 0.604443 0.309873 0.172176
H112  H     H_    0.571902 0.375343 0.629551 0.169375
H113  H     H_    0.576421 0.443018 0.671265 0.114562
H114  H     H_    0.548493 0.382492 0.682186 0.104595
H115  H     H_    0.681167 0.469082 0.858081 0.120935
H116  H     H_    0.693031 0.410529 0.858629 0.107610
O1    O     O_R   0.440300 0.405520 0.465490 -0.509067
O2    O     O_R   0.965060 0.059870 0.524970 -0.510942
O3    O     O_R   0.094600 0.059810 0.534710 -0.503082
O4    O     O_R   0.440040 0.474790 0.534530 -0.496825
O5    O     O_R   0.025070 0.059880 0.465260 -0.496015
O6    O     O_R   0.034940 0.940120 0.475030 -0.508733
O7    O     O_R   0.965400 0.940190 0.405570 -0.499847
O8    O     O_R   0.974930 0.940120 0.534740 -0.498664
O9    O     O_R   0.905400 0.940180 0.465280 -0.504263
O10   O     O_R   0.560200 0.465360 0.525540 -0.509247
O11   O     O_R   0.559940 0.534640 0.594570 -0.508050
O12   O     O_R   0.033070 0.474870 0.938590 -0.499706
O13   O     O_R   0.559960 0.525210 0.465470 -0.502286
O14   O     O_R   0.559700 0.594480 0.534510 -0.506513
O15   O     O_R   0.440060 0.465360 0.405430 -0.492822
O16   O     O_R   0.439800 0.534640 0.474460 -0.506899
O17   O     O_R   0.963810 0.405620 0.938630 -0.499965
O18   O     O_3   0.734559 0.391248 0.722774 -0.516922
O19   O     O_3   0.752903 0.470772 0.648349 -0.510220
O20   O     O_3   0.817789 0.452450 0.722587 -0.549921
O21   O     O_3   0.843450 0.606698 0.851133 -0.557270
O22   O     O_3   0.219000 0.285554 0.418158 -0.548737
O23   O     O_R   0.903540 0.465480 0.938210 -0.506278
O24   O     O_3   0.132677 0.199963 0.418913 -0.545485
O25   O     O_3   0.284305 0.209112 0.578041 -0.517561
O26   O     O_3   0.368911 0.297398 0.580136 -0.521568
O27   O     O_3   0.336852 0.606344 0.352456 -0.512422
O28   O     O_3   0.252055 0.605946 0.265522 -0.512182
O29   O     O_3   0.158077 0.394857 0.148202 -0.540230
O30   O     O_3   0.668466 0.397872 0.637193 -0.549719
O31   O     O_3   0.243671 0.394475 0.235572 -0.547102
O32   O     O_3   0.656077 0.763271 0.502414 -0.515772
O33   O     O_3   0.740224 0.845604 0.497808 -0.509455
O34   O     O_R   0.972800 0.534740 0.938170 -0.509310
O35   O     O_3   0.845150 0.736978 0.499065 -0.522360
O36   O     O_3   0.760404 0.654147 0.502244 -0.525170
O37   O     O_3   0.105966 0.344780 0.846736 -0.510534
O38   O     O_3   0.105761 0.259809 0.760784 -0.517397
O39   O     O_3   0.893057 0.151499 0.655157 -0.521360
O40   O     O_3   0.892146 0.240309 0.736519 -0.513899
O41   O     O_3   0.983855 0.755334 0.146647 -0.519001
O42   O     O_3   0.663669 0.523163 0.769283 -0.530901
O43   O     O_3   0.986935 0.841020 0.234725 -0.518374
O44   O     O_3   0.014132 0.745219 0.350750 -0.526215
O45   O     O_R   0.963400 0.525340 0.057910 -0.501934
O46   O     O_3   0.010548 0.659195 0.262365 -0.512597
O47   O     O_3   0.638104 0.422188 0.716832 -0.522774
O48   O     O_3   0.720234 0.440372 0.809435 -0.546459
O49   O     O_3   0.753824 0.542953 0.855722 -0.501547
O50   O     O_3   0.778645 0.578824 0.707769 -0.551559
O51   O     O_3   0.753357 0.605392 0.782279 -0.519704
O52   O     O_3   0.858797 0.565564 0.771802 -0.509530
O53   O     O_R   0.032660 0.594600 0.057870 -0.498001
O54   O     O_R   0.023680 0.465480 0.058320 -0.501215
O55   O     O_R   0.092940 0.534740 0.058290 -0.495906
O56   O     O_R   0.034600 0.059810 0.594420 -0.500520

loop_
_geom_bond_atom_site_label_1
_geom_bond_atom_site_label_2
_ccdc_geom_bond_type
C100  H37   S    
C3    H87   S    
C12   H113  S    
C83   C87   T    
C101  O28   S    
C98   H32   S    
C111  H69   S    
C102  H45   S    
C107  H58   S    
C17   H9    S    
C90   H1    S    
C6    C7    S    
C69   O47   S    
C82   O41   S    
C5    O41   S    
C93   H2    S    
C10   H108  S    
C92   H73   S    
C6    O42   S    
Cu1   O13   S    
C114  O38   S    
C31   C32   A    
C85   C86   T    
C108  C109  S    
C25   C28   T    
Cu5   O3    S    
C110  H66   S    
C26   C27   T    
C46   O36   S    
C4    H89   S    
C57   C89   S    
C108  H59   S    
C90   H40   S    
C56   O45   A    
C3    H86   S    
Cu4   O12   S    
C41   C58   S    
C5    H92   S    
C101  H42   S    
C21   O11   A    
C30   C31   A    
C7    H99   S    
C115  H80   S    
C29   O18   S    
C100  O27   S    
C77   C83   S    
C61   O7    A    
C115  C116  S    
C5    H93   S    
C62   C89   S    
C105  H53   S    
C106  O24   S    
C4    H88   S    
C40   C73   S    
C91   H51   S    
C32   O29   S    
C34   C35   A    
C54   O17   A    
C111  O36   S    
C10   O46   S    
C55   C88   S    
C33   O13   A    
C2    C13   A    
C78   O44   S    
C51   O21   S    
C66   O39   S    
C61   C87   S    
C6    H96   S    
C113  H75   S    
Cu1   O15   S    
C98   O25   S    
Cu6   O2    S    
C35   C36   A    
C100  H39   S    
C22   O26   S    
C19   O52   S    
C115  H81   S    
C13   C22   A    
C103  H48   S    
C50   C52   T    
C113  H76   S    
C112  O37   S    
C34   O31   S    
C18   H14   S    
C9    H104  S    
C30   O28   S    
C64   C70   A    
C21   O10   A    
C94   H23   S    
Cu2   O16   S    
C116  H83   S    
C8    H102  S    
C96   O22   S    
C45   O16   A    
C104  H50   S    
C58   O54   A    
C115  O39   S    
C61   O6    A    
C44   O35   S    
C98   H31   S    
C48   O32   S    
C103  H46   S    
C102  H44   S    
C11   H110  S    
C54   C74   S    
C91   H62   S    
C17   H10   S    
Cu5   O56   S    
C16   H7    S    
C102  C103  S    
C51   C62   S    
C69   C89   S    
C40   C81   S    
C112  C113  S    
C116  H82   S    
C44   C46   A    
Cu3   O23   S    
C47   C50   S    
C28   C60   S    
C105  O31   S    
C96   H26   S    
C18   O51   S    
C110  H65   S    
C62   O51   S    
C109  H61   S    
C67   C68   A    
C116  H85   S    
C47   C48   A    
C20   H20   S    
C76   O43   S    
C101  H41   S    
C35   C38   S    
C69   C81   S    
C76   C77   A    
C57   O30   S    
C51   O52   S    
C80   C82   A    
C10   C11   S    
C76   C82   A    
C91   C92   S    
C14   H116  S    
C58   O55   A    
C78   C79   A    
C43   C49   S    
C3    O40   S    
Cu3   O45   S    
C21   C95   S    
C109  H63   S    
C79   O46   S    
C77   C78   A    
C69   O42   S    
C15   H4    S    
C10   H107  S    
C56   O53   A    
C31   C37   S    
C33   C52   S    
C84   C95   T    
C32   C34   A    
Cu3   O54   S    
C23   C26   S    
C18   H15   S    
C12   H112  S    
C43   C44   A    
C73   C88   T    
C80   C85   S    
C91   O19   S    
C12   O47   S    
C110  O35   S    
C16   H6    S    
C100  H38   S    
C56   C86   S    
C94   O21   S    
C68   C72   S    
C5    H91   S    
C99   H34   S    
C60   O3    A    
C114  H79   S    
C9    H105  S    
C42   C48   A    
C67   O40   S    
C101  H43   S    
C105  H54   S    
C13   O25   S    
C112  H72   S    
Cu5   Cu6   S    
C42   O33   S    
C8    H101  S    
C97   O24   S    
C104  H49   S    
C81   O49   S    
C7    H98   S    
C72   C74   T    
Cu5   O8    S    
C29   C57   S    
C99   O26   S    
C102  O29   S    
Cu6   O7    S    
C107  H56   S    
C17   H11   S    
C113  H74   S    
C79   C80   A    
C54   O12   A    
C24   C106  A    
C42   C43   A    
C94   H21   S    
C3    C4    S    
C59   C75   S    
C33   O14   A    
C8    H100  S    
C1    C27   S    
Cu1   O10   S    
C111  H70   S    
C12   H114  S    
C63   O8    A    
C90   O18   S    
C98   H33   S    
C60   O5    A    
C11   H109  S    
C70   O37   S    
C17   O50   S    
C55   O23   A    
C20   H19   S    
C1    O1    A    
C108  O33   S    
C104  O30   S    
C105  H55   S    
C90   H29   S    
C93   H13   S    
Cu2   O11   S    
Cu3   O17   S    
C15   C16   S    
Cu4   O55   S    
C14   H115  S    
C104  H52   S    
Cu3   Cu4   S    
C96   H25   S    
Cu6   O5    S    
C55   O34   A    
C108  H60   S    
C109  H64   S    
C40   C51   S    
C63   O9    A    
C24   O22   S    
C110  H67   S    
C14   H3    S    
C29   O20   S    
Cu4   O34   S    
C39   C45   S    
C114  H77   S    
C94   H22   S    
C64   C65   A    
C97   H28   S    
C19   C20   S    
C99   H35   S    
C59   O2    A    
C7    H97   S    
C30   C36   A    
Cu2   O14   S    
Cu1   Cu2   S    
C71   C75   T    
C8    O43   S    
C53   C63   S    
C93   H106  S    
C20   H18   S    
C38   C39   T    
C59   O56   A    
C11   H111  S    
C14   O48   S    
C19   H16   S    
C49   C53   T    
C4    H90   S    
C29   C40   S    
C57   O19   S    
C97   H30   S    
C2    C106  A    
C9    O44   S    
C66   C67   A    
C2    C25   S    
C64   O38   S    
C36   O27   S    
C37   C41   T    
C92   H95   S    
C62   O50   S    
C112  H71   S    
C46   C47   A    
C92   H84   S    
C1    O4    A    
C23   C24   A    
C93   O20   S    
C16   H8    S    
C65   C71   S    
C6    H94   S    
C15   O49   S    
Cu1   O1    S    
C111  H68   S    
C68   C70   A    
C65   C66   A    
C84   C89   S    
C99   H36   S    
C18   H12   S    
C96   H24   S    
C103  H47   S    
C97   H27   S    
C22   C23   A    
C107  H57   S    
C15   H5    S    
C81   O48   S    
C114  H78   S    
Cu4   O53   S    
C9    H103  S    
Cu5   O6    S    
C19   H17   S    
Cu2   O4    S    
C45   O15   A    
Cu6   O9    S    
C107  O32   S    
