data_mof_unit_37716.cif
_audit_creation_date              2012-12-11T16:27:26-0500
_audit_creation_method            fapswitch 2.2
_symmetry_space_group_name_H-M    P1
_symmetry_Int_Tables_number       1
_space_group_crystal_system       triclinic
_cell_length_a                    21.748781
_cell_length_b                    6.951449
_cell_length_c                    14.683006
_cell_angle_alpha                 89.914788
_cell_angle_beta                  105.067607
_cell_angle_gamma                 89.375111
_cell_volume                      2143.38999236

loop_
_atom_site_label
_atom_site_type_symbol
_atom_type_description
_atom_site_fract_x
_atom_site_fract_y
_atom_site_fract_z
_atom_type_partial_charge
O1    O     O_R   0.835850 0.638310 0.002120 -0.547872
O2    O     O_R   0.164150 0.361690 0.997880 -0.547882
O3    O     O_R   0.664150 0.138310 0.997880 -0.520016
O4    O     O_R   0.335850 0.861690 0.002120 -0.520019
O5    O     O_R   0.717530 0.306070 0.861970 -0.519329
O6    O     O_R   0.282470 0.693930 0.138030 -0.519328
O7    O     O_R   0.782470 0.806070 0.138030 -0.546061
O8    O     O_R   0.217530 0.193930 0.861970 -0.546070
C1    C     C_R   0.702346 0.478269 0.824722 0.764800
C2    C     C_R   0.297651 0.521731 0.175278 0.764789
C3    C     C_R   0.795760 0.976004 0.175583 0.737443
C4    C     C_R   0.204241 0.023997 0.824417 0.737452
O9    O     O_R   0.838690 0.308440 0.993250 -0.517496
O10   O     O_R   0.161310 0.691560 0.006750 -0.517488
O11   O     O_R   0.661310 0.808440 0.006750 -0.535373
O12   O     O_R   0.338690 0.191560 0.993250 -0.535374
O13   O     O_R   0.786170 0.140510 0.130090 -0.518922
O14   O     O_R   0.213830 0.859490 0.869910 -0.518909
O15   O     O_R   0.713830 0.640510 0.869910 -0.552590
O16   O     O_R   0.286170 0.359490 0.130090 -0.552591
C5    C     C_R   0.864097 0.476986 0.991607 0.767138
C6    C     C_R   0.135903 0.523012 0.008394 0.767128
C7    C     C_R   0.635832 0.980373 0.007906 0.747616
C8    C     C_R   0.364167 0.019626 0.992091 0.747628
O17   O     O_3   0.732630 0.472520 0.044740 -0.346577
O18   O     O_3   0.267370 0.527480 0.955260 -0.346580
O19   O     O_3   0.767370 0.972520 0.955260 -0.367170
O20   O     O_3   0.232630 0.027480 0.044740 -0.367167
V1    V     V_3+5 0.753220 0.196740 0.991700 1.621562
V2    V     V_3+5 0.246780 0.803260 0.008300 1.621576
V3    V     V_3+5 0.746780 0.696740 0.008300 1.571476
V4    V     V_3+5 0.253220 0.303260 0.991700 1.571461
H1    H     H_    0.598506 0.137664 0.323339 0.170960
H2    H     H_    0.401493 0.862340 0.676652 0.170965
H3    H     H_    0.908927 0.356723 0.673483 0.177935
H4    H     H_    0.091078 0.643206 0.326522 0.177925
C9    C     C_R   0.540342 0.969270 0.832307 -0.114203
C10   C     C_R   0.459658 0.030713 0.167687 -0.114203
C11   C     C_R   0.954279 0.567418 0.161642 -0.114299
C12   C     C_R   0.045725 0.432508 0.838364 -0.114304
C13   C     C_R   0.496343 0.943707 0.745953 -0.128087
C14   C     C_R   0.503657 0.056277 0.254041 -0.128067
C15   C     C_R   0.995455 0.603496 0.248772 -0.178793
C16   C     C_R   0.004551 0.396404 0.751235 -0.178814
C17   C     C_R   0.433514 0.904497 0.743058 0.012995
C18   C     C_R   0.566485 0.095501 0.256934 0.013001
C19   C     C_R   0.059755 0.617062 0.257373 0.002901
C20   C     C_R   0.940249 0.382867 0.742632 0.002912
C21   C     C_R   0.413324 0.900872 0.825863 0.362597
C22   C     C_R   0.586673 0.099134 0.174128 0.362573
C23   C     C_R   0.084185 0.598161 0.178974 0.403022
C24   C     C_R   0.915816 0.401813 0.821028 0.403041
C25   C     C_R   0.454774 0.960398 0.912956 0.021685
C26   C     C_R   0.545224 0.039600 0.087037 0.021694
C27   C     C_R   0.043738 0.551619 0.087932 -0.000621
C28   C     C_R   0.956264 0.448363 0.912069 -0.000626
C29   C     C_R   0.520918 0.976143 0.917162 0.045636
C30   C     C_R   0.479081 0.023849 0.082832 0.045633
C31   C     C_R   0.976877 0.536232 0.080223 0.048569
C32   C     C_R   0.023125 0.463736 0.919780 0.048568
C33   C     C_R   0.433409 0.999277 0.995306 -0.120958
C34   C     C_R   0.566589 0.000720 0.004688 -0.120954
C35   C     C_R   0.066746 0.514899 0.006391 -0.131022
C36   C     C_R   0.933255 0.485093 0.993610 -0.131024
H5    H     H_    0.589450 0.988711 0.831277 0.105822
H6    H     H_    0.410550 0.011265 0.168719 0.105826
H7    H     H_    0.904742 0.554277 0.161103 0.121220
H8    H     H_    0.095263 0.445633 0.838904 0.121236
H9    H     H_    0.511880 0.941571 0.681612 0.136659
H10   H     H_    0.488121 0.058407 0.318383 0.136658
H11   H     H_    0.977563 0.616205 0.310772 0.143358
H12   H     H_    0.022444 0.383667 0.689237 0.143359
C37   C     C_R   0.176494 0.016923 0.721849 -0.058494
C38   C     C_R   0.823508 0.983086 0.278150 -0.058498
C39   C     C_R   0.324062 0.500361 0.278102 -0.041055
C40   C     C_R   0.675932 0.499640 0.721900 -0.041061
C41   C     C_R   0.188155 0.971209 0.565021 -0.066067
C42   C     C_R   0.811854 0.028928 0.434971 -0.066083
C43   C     C_R   0.322108 0.330775 0.420820 -0.078808
C44   C     C_R   0.677883 0.669225 0.579180 -0.078819
C45   C     C_R   0.214875 0.981447 0.661414 -0.089069
C46   C     C_R   0.785136 0.018693 0.338579 -0.089108
C47   C     C_R   0.294222 0.374933 0.326926 -0.093579
C48   C     C_R   0.705770 0.625070 0.673073 -0.093571
C49   C     C_R   0.111043 0.044131 0.684124 -0.173715
C50   C     C_R   0.888954 0.955806 0.315881 -0.173677
C51   C     C_R   0.384282 0.571588 0.323709 -0.168964
C52   C     C_R   0.615711 0.428415 0.676296 -0.168977
C53   C     C_R   0.081005 0.006957 0.588068 0.068608
C54   C     C_R   0.918996 0.993011 0.411932 0.068612
C55   C     C_R   0.419054 0.495816 0.412307 0.059735
C56   C     C_R   0.580938 0.504184 0.587697 0.059740
C57   C     C_R   0.121602 0.988790 0.526858 0.000919
C58   C     C_R   0.878402 0.011247 0.473138 0.000930
C59   C     C_R   0.384001 0.393891 0.465376 -0.004838
C60   C     C_R   0.615990 0.606106 0.534627 -0.004847
C61   C     C_R   0.012972 0.997564 0.550565 -0.083688
C62   C     C_R   0.987030 0.002383 0.449433 -0.083698
C63   C     C_R   0.486221 0.521499 0.450740 -0.089431
C64   C     C_R   0.513770 0.478497 0.549265 -0.089432
C65   C     C_R   0.030198 0.023424 0.390554 0.105304
C66   C     C_R   0.969800 0.976530 0.609443 0.105305
C67   C     C_R   0.472374 0.420750 0.605967 0.107535
C68   C     C_R   0.527617 0.579241 0.394037 0.107526
C69   C     C_R   0.096333 0.003930 0.429207 0.327840
C70   C     C_R   0.903667 0.996085 0.570788 0.327815
C71   C     C_R   0.409583 0.365522 0.562460 0.344006
C72   C     C_R   0.590408 0.634468 0.437543 0.343998
H13   H     H_    0.914454 0.894912 0.269589 0.137638
H14   H     H_    0.085539 0.104963 0.730423 0.137645
H15   H     H_    0.596689 0.315941 0.711024 0.138654
H16   H     H_    0.403305 0.684065 0.288983 0.138652
H17   H     H_    0.734141 0.028298 0.312369 0.192793
H18   H     H_    0.265873 0.971928 0.687622 0.192813
H19   H     H_    0.751450 0.686709 0.707372 0.196770
H20   H     H_    0.248542 0.313296 0.292625 0.196760
H21   H     H_    0.220712 0.950907 0.521276 0.190165
H22   H     H_    0.779301 0.049323 0.478716 0.190171
H23   H     H_    0.295295 0.241735 0.456822 0.195962
H24   H     H_    0.704695 0.758264 0.543177 0.195986
Cl1   Cl    Cl    0.344341 0.766760 0.818804 -0.633764
Cl2   Cl    Cl    0.655645 0.233297 0.181177 -0.633751
Cl3   Cl    Cl    0.165789 0.640455 0.205648 -0.643343
Cl4   Cl    Cl    0.834208 0.359596 0.794347 -0.643362
Cl5   Cl    Cl    0.149326 0.021206 0.355243 -0.613492
Cl6   Cl    Cl    0.850669 0.978829 0.644745 -0.613488
Cl7   Cl    Cl    0.359436 0.282175 0.631939 -0.650134
Cl8   Cl    Cl    0.640555 0.717812 0.368062 -0.650076
I1    I     I_    0.004442 0.120433 0.245457 -0.397349
I2    I     I_    0.995546 0.879464 0.754529 -0.397346
I3    I     I_    0.493719 0.451031 0.757750 -0.384161
I4    I     I_    0.506271 0.548952 0.242254 -0.384161

loop_
_geom_bond_atom_site_label_1
_geom_bond_atom_site_label_2
_ccdc_geom_bond_type
O17   V3    S    
C44   H24   S    
O1    C5    A    
C8    C33   S    
C12   C32   A    
C27   C31   A    
O19   V1    S    
C23   Cl3   S    
O3    C7    A    
C22   Cl2   S    
C56   C60   A    
C44   C48   A    
O15   V3    S    
C40   C48   A    
C61   C62   A    
C29   C34   A    
O7    C3    A    
C31   C36   A    
C22   C26   A    
C32   C35   A    
O9    V1    S    
C42   H22   S    
O10   V2    S    
C10   C14   A    
C41   H21   S    
C9    C13   A    
O16   V4    S    
O4    C8    A    
O1    V3    S    
O13   V1    S    
H4    C19   S    
O2    V4    S    
C14   C18   A    
O3    V1    S    
C53   C61   A    
C5    C36   S    
C57   C69   A    
C6    C35   S    
C10   C30   A    
C52   H15   S    
C25   C33   A    
C1    O15   A    
C7    C34   S    
C58   C70   A    
C10   H6    S    
C2    O16   A    
C27   C35   A    
C45   H18   S    
O2    C6    A    
C28   C36   A    
C66   C70   A    
O14   V2    S    
C1    C40   S    
C17   C21   A    
C44   C60   A    
C40   C52   A    
C12   C16   A    
C61   C66   A    
C30   C33   A    
O11   C7    A    
C63   C68   A    
C60   C72   A    
C11   C31   A    
O12   C8    A    
C4    C37   S    
O17   V1    S    
H1    C18   S    
C38   C46   A    
H3    C20   S    
C37   C45   A    
C54   C58   A    
O5    V1    S    
C65   C69   A    
O7    V3    S    
C51   C55   A    
O19   V3    S    
O8    V4    S    
C52   C56   A    
O20   V4    S    
C50   H13   S    
C49   H14   S    
C50   C54   A    
C25   C29   A    
O18   V4    S    
C19   C23   A    
C51   H16   S    
C26   C34   A    
C64   C67   A    
C38   C50   A    
C28   C32   A    
C43   H23   S    
C14   H10   S    
C43   C59   A    
C2    C39   S    
C42   C46   A    
C63   C64   A    
C41   C45   A    
O8    C4    A    
C21   Cl1   S    
O9    C5    A    
H2    C17   S    
C72   Cl8   S    
C37   C49   A    
C59   C71   A    
C9    H5    S    
O6    V2    S    
O18   V2    S    
C48   H19   S    
C49   C53   A    
C12   H8    S    
C68   C72   A    
C56   C64   A    
C13   H9    S    
C26   C30   A    
C39   C51   A    
C70   Cl6   S    
C3    O13   A    
C15   H11   S    
C11   H7    S    
C47   H20   S    
C66   I2    S    
C46   H17   S    
O5    C1    A    
C3    C38   S    
O6    C2    A    
C11   C15   A    
O11   V3    S    
O12   V4    S    
C62   C65   A    
C18   C22   A    
C69   Cl5   S    
O10   C6    A    
O20   V2    S    
C71   Cl7   S    
C43   C47   A    
C24   Cl4   S    
C39   C47   A    
C15   C19   A    
C42   C58   A    
C21   C25   A    
C41   C57   A    
C16   H12   S    
C23   C27   A    
C53   C57   A    
O4    V2    S    
C55   C59   A    
C16   C20   A    
C20   C24   A    
C68   I4    S    
C4    O14   A    
C13   C17   A    
C67   C71   A    
C55   C63   A    
C67   I3    S    
C54   C62   A    
C9    C29   A    
C24   C28   A    
C65   I1    S    
