data_mof_unit_5901.cif
_audit_creation_date              2013-03-05T16:00:02-0500
_audit_creation_method            fapswitch 2.2
_symmetry_space_group_name_H-M    P1
_symmetry_Int_Tables_number       1
_space_group_crystal_system       triclinic
_cell_length_a                    20.825444
_cell_length_b                    21.155835
_cell_length_c                    14.762881
_cell_angle_alpha                 89.974541
_cell_angle_beta                  128.208828
_cell_angle_gamma                 90.011287
_cell_volume                      5110.7697571

loop_
_atom_site_label
_atom_site_type_symbol
_atom_site_description
_atom_site_fract_x
_atom_site_fract_y
_atom_site_fract_z
_atom_type_partial_charge
O1    O     O_R   0.600040 0.935040 0.546740 -0.597084
O2    O     O_R   0.399960 0.064960 0.453260 -0.588632
O3    O     O_R   0.399960 0.935040 0.453260 -0.597021
O4    O     O_R   0.600040 0.064960 0.546740 -0.588602
O5    O     O_R   0.100040 0.435040 0.546740 -0.597226
O6    O     O_R   0.899960 0.564960 0.453260 -0.588787
O7    O     O_R   0.899960 0.435040 0.453260 -0.596893
O8    O     O_R   0.100040 0.564960 0.546740 -0.588439
O9    O     O_R   0.555010 0.935070 0.653220 -0.557298
O10   O     O_R   0.444990 0.064930 0.346780 -0.587882
O11   O     O_R   0.444990 0.935070 0.346780 -0.557449
O12   O     O_R   0.555010 0.064930 0.653220 -0.588043
O13   O     O_R   0.055010 0.435070 0.653220 -0.557178
O14   O     O_R   0.944990 0.564930 0.346780 -0.587835
O15   O     O_R   0.944990 0.435070 0.346780 -0.557610
O16   O     O_R   0.055010 0.564930 0.653220 -0.588060
C1    C     C_R   0.601427 0.912521 0.629745 0.806372
C2    C     C_R   0.395275 0.084767 0.365875 0.809163
C3    C     C_R   0.398541 0.912553 0.370228 0.806558
C4    C     C_R   0.604674 0.084810 0.634029 0.809145
C5    C     C_R   0.101446 0.412535 0.629763 0.806152
C6    C     C_R   0.895273 0.584765 0.365875 0.809400
C7    C     C_R   0.898574 0.412527 0.370261 0.806799
C8    C     C_R   0.104674 0.584809 0.634031 0.808924
Cu1   Cu    Cu3+1 0.526640 0.000000 0.436960 0.956352
Cu2   Cu    Cu3+1 0.473360 0.000000 0.563040 0.956455
Cu3   Cu    Cu3+1 0.026640 0.500000 0.436960 0.956340
Cu4   Cu    Cu3+1 0.973360 0.500000 0.563040 0.956464
C9    C     C_R   0.671656 0.126966 0.719657 -0.055102
C10   C     C_R   0.345309 0.858437 0.303677 -0.058112
C11   C     C_R   0.328042 0.126634 0.279778 -0.055128
C12   C     C_R   0.654555 0.858303 0.696131 -0.058163
C13   C     C_R   0.171695 0.626906 0.719750 -0.054920
C14   C     C_R   0.845536 0.358289 0.303884 -0.058210
C15   C     C_R   0.828065 0.626670 0.279844 -0.055305
C16   C     C_R   0.154697 0.358392 0.696254 -0.058080
C17   C     C_R   0.801601 0.177650 0.803906 -0.183872
C18   C     C_R   0.236019 0.786944 0.249349 -0.189725
C19   C     C_R   0.196835 0.175691 0.193209 -0.183401
C20   C     C_R   0.763873 0.786847 0.750417 -0.189597
C21   C     C_R   0.302197 0.676881 0.805050 -0.183737
C22   C     C_R   0.737064 0.286140 0.250595 -0.189770
C23   C     C_R   0.697224 0.676200 0.193980 -0.183503
C24   C     C_R   0.264568 0.287383 0.751246 -0.189562
C25   C     C_R   0.735472 0.141947 0.715872 -0.190214
C26   C     C_R   0.286328 0.837909 0.314358 -0.189601
C27   C     C_R   0.263372 0.140636 0.282156 -0.190028
C28   C     C_R   0.713661 0.837916 0.685622 -0.189410
C29   C     C_R   0.235951 0.641397 0.716687 -0.189998
C30   C     C_R   0.787036 0.337323 0.315242 -0.189802
C31   C     C_R   0.763679 0.640989 0.282695 -0.190187
C32   C     C_R   0.214136 0.338312 0.686221 -0.189264
C33   C     C_R   0.674632 0.148154 0.811920 -0.213430
C34   C     C_R   0.355389 0.826072 0.230724 -0.190166
C35   C     C_R   0.325579 0.148254 0.188132 -0.211817
C36   C     C_R   0.644214 0.825662 0.768629 -0.190294
C37   C     C_R   0.174302 0.648425 0.811538 -0.214387
C38   C     C_R   0.855432 0.326186 0.230525 -0.190392
C39   C     C_R   0.825368 0.648082 0.187896 -0.210781
C40   C     C_R   0.144215 0.325554 0.768444 -0.190159
C41   C     C_R   0.742027 0.182034 0.903906 0.095506
C42   C     C_R   0.304221 0.775408 0.162111 0.084215
C43   C     C_R   0.257822 0.181432 0.095231 0.096293
C44   C     C_R   0.695312 0.774900 0.837071 0.084214
C45   C     C_R   0.241807 0.682041 0.903888 0.095524
C46   C     C_R   0.804608 0.275303 0.162297 0.083965
C47   C     C_R   0.757689 0.681445 0.095250 0.096386
C48   C     C_R   0.195543 0.274938 0.837143 0.084384
C49   C     C_R   0.805193 0.198011 0.897433 0.154391
C50   C     C_R   0.243201 0.756555 0.171574 0.160417
C51   C     C_R   0.193699 0.196355 0.100169 0.153829
C52   C     C_R   0.756491 0.756218 0.827850 0.160252
C53   C     C_R   0.305467 0.697486 0.898200 0.154376
C54   C     C_R   0.744103 0.255964 0.172517 0.160411
C55   C     C_R   0.693890 0.696722 0.100712 0.153828
C56   C     C_R   0.257076 0.256595 0.828448 0.160272
C57   C     C_R   0.746599 0.202550 0.999541 0.066508
C58   C     C_R   0.308814 0.745573 0.079776 0.063784
C59   C     C_R   0.253740 0.202251 0.000116 0.066919
C60   C     C_R   0.690572 0.744857 0.919146 0.063175
C61   C     C_R   0.246073 0.702759 0.999180 0.066590
C62   C     C_R   0.809040 0.245691 0.079652 0.063611
C63   C     C_R   0.753411 0.702138 0.999918 0.066900
C64   C     C_R   0.190693 0.244739 0.919004 0.063309
C65   C     C_R   0.373069 0.757654 0.073995 -0.150116
C66   C     C_R   0.690966 0.181337 0.017838 -0.192591
C67   C     C_R   0.626112 0.756674 0.924561 -0.148872
C68   C     C_R   0.310445 0.181975 0.983299 -0.191091
C69   C     C_R   0.872828 0.258313 0.073083 -0.150841
C70   C     C_R   0.189867 0.682035 0.016700 -0.193490
C71   C     C_R   0.125916 0.256179 0.923874 -0.148299
C72   C     C_R   0.809734 0.681530 0.982574 -0.190042
C73   C     C_R   0.371508 0.733531 0.985193 -0.211219
C74   C     C_R   0.690388 0.207364 0.103544 -0.224444
C75   C     C_R   0.627662 0.732529 0.013380 -0.210241
C76   C     C_R   0.311404 0.208424 0.898161 -0.224598
C77   C     C_R   0.871037 0.234373 0.983983 -0.211528
C78   C     C_R   0.189110 0.708238 0.102135 -0.224123
C79   C     C_R   0.127327 0.231929 0.012518 -0.209954
C80   C     C_R   0.810570 0.707857 0.897250 -0.224955
H1    H     H_    0.421554 0.744401 0.983297 0.141575
H2    H     H_    0.645755 0.190681 0.113350 0.142596
H3    H     H_    0.577485 0.743229 0.015056 0.141384
H4    H     H_    0.356855 0.192487 0.889502 0.142557
H5    H     H_    0.920713 0.245658 0.981474 0.141806
H6    H     H_    0.144049 0.691930 0.111344 0.142520
H7    H     H_    0.076903 0.242344 0.013779 0.141252
H8    H     H_    0.855732 0.691659 0.888183 0.142583
H9    H     H_    0.402469 0.842508 0.226989 0.190212
H10   H     H_    0.622628 0.138596 0.809051 0.145337
H11   H     H_    0.597010 0.841965 0.772183 0.190674
H12   H     H_    0.378213 0.139525 0.192144 0.144804
H13   H     H_    0.902107 0.342977 0.226192 0.190311
H14   H     H_    0.121956 0.639287 0.808039 0.145269
H15   H     H_    0.096726 0.341602 0.771570 0.190673
H16   H     H_    0.877779 0.639078 0.191494 0.144814
H17   H     H_    0.278455 0.861612 0.371915 0.155398
H18   H     H_    0.734728 0.125582 0.645725 0.153368
H19   H     H_    0.721718 0.861817 0.628375 0.155237
H20   H     H_    0.263708 0.123900 0.351787 0.153061
H21   H     H_    0.779316 0.360816 0.373110 0.155596
H22   H     H_    0.235490 0.624767 0.646916 0.153312
H23   H     H_    0.222309 0.362368 0.629212 0.155049
H24   H     H_    0.764193 0.624417 0.352561 0.153091
H25   H     H_    0.351108 0.688021 0.800854 0.135588
H26   H     H_    0.691448 0.271133 0.259497 0.136755
H27   H     H_    0.648212 0.687207 0.198011 0.135604
H28   H     H_    0.310952 0.273119 0.743463 0.136879
H29   H     H_    0.850139 0.189194 0.799108 0.135524
H30   H     H_    0.190014 0.772297 0.257689 0.136812
H31   H     H_    0.147582 0.186431 0.196846 0.135690
H32   H     H_    0.809989 0.772329 0.742238 0.136833
H33   H     H_    0.426507 0.784716 0.138224 0.159183
H34   H     H_    0.647745 0.143768 0.968332 0.148479
H35   H     H_    0.572550 0.783550 0.860021 0.159467
H36   H     H_    0.354260 0.144842 0.033579 0.148539
H37   H     H_    0.926079 0.285675 0.136887 0.159183
H38   H     H_    0.146313 0.644716 0.966786 0.147535
H39   H     H_    0.072216 0.282828 0.859018 0.159548
H40   H     H_    0.853327 0.644228 0.032579 0.149465
N1    N     N_R   0.433280 0.000000 0.657760 -0.193321
N2    N     N_R   0.566720 0.000000 0.342240 -0.193470
N3    N     N_R   0.933280 0.500000 0.657760 -0.193305
N4    N     N_R   0.066720 0.500000 0.342240 -0.193494
C81   C     C_R   0.322158 0.991895 0.663831 -0.287871
C82   C     C_R   0.677640 0.991094 0.335899 -0.288008
C83   C     C_R   0.822033 0.492452 0.663660 -0.288037
C84   C     C_R   0.177505 0.490525 0.335723 -0.287829
C85   C     C_R   0.351940 0.994683 0.601845 0.065798
C86   C     C_R   0.647989 0.994211 0.398019 0.065600
C87   C     C_R   0.851895 0.495000 0.601758 0.065712
C88   C     C_R   0.147938 0.493865 0.397928 0.065701
C89   C     C_R   0.487565 0.003437 0.775313 0.080844
C90   C     C_R   0.512396 0.003711 0.224716 0.079501
C91   C     C_R   0.987539 0.503279 0.775329 0.081466
C92   C     C_R   0.012381 0.503912 0.224743 0.078787
C93   C     C_R   0.462021 0.994807 0.844607 -0.010446
C94   C     C_R   0.537729 0.994813 0.155231 -0.010931
C95   C     C_R   0.961864 0.494842 0.844501 -0.010231
C96   C     C_R   0.037575 0.494833 0.155125 -0.011229
C97   C     C_R   0.376724 0.991786 0.784751 0.086366
C98   C     C_R   0.622992 0.991160 0.214983 0.086684
C99   C     C_R   0.876547 0.492242 0.784580 0.086132
C100  C     C_R   0.122810 0.490738 0.214808 0.086924
C101  C     C_R   0.516605 0.990326 0.969172 -0.088739
C102  C     C_R   0.483026 0.990609 0.030613 -0.089247
C103  C     C_R   0.016373 0.490181 0.969028 -0.088487
C104  C     C_R   0.982793 0.490829 0.030469 -0.089579
C105  C     C_R   0.396524 0.983761 0.964652 0.321167
C106  C     C_R   0.602966 0.982628 0.035001 0.320719
C107  C     C_R   0.896199 0.484553 0.964416 0.321021
C108  C     C_R   0.102644 0.481936 0.034767 0.320875
C109  C     C_R   0.345676 0.986395 0.844771 -0.235645
C110  C     C_R   0.653912 0.985220 0.154874 -0.236565
C111  C     C_R   0.845416 0.487224 0.844536 -0.235481
C112  C     C_R   0.153645 0.484455 0.154638 -0.236606
H41   H     H_    0.280325 0.980767 0.797232 0.180870
H42   H     H_    0.719176 0.978999 0.202345 0.181078
H43   H     H_    0.780009 0.481991 0.796944 0.180858
H44   H     H_    0.218847 0.477842 0.202055 0.181070
H45   H     H_    0.450395 0.014817 0.188132 0.171595
H46   H     H_    0.549735 0.014133 0.812151 0.170505
H47   H     H_    0.950498 0.515303 0.188332 0.171988
H48   H     H_    0.049809 0.513716 0.812315 0.170223
H49   H     H_    0.689896 0.992172 0.491184 0.124913
H50   H     H_    0.310071 0.992846 0.508668 0.124796
H51   H     H_    0.189863 0.491672 0.491081 0.124736
H52   H     H_    0.810047 0.493290 0.508571 0.124974
H53   H     H_    0.256765 0.988479 0.617396 0.143704
H54   H     H_    0.742985 0.987226 0.382228 0.143693
H55   H     H_    0.756609 0.489340 0.617155 0.143746
H56   H     H_    0.242813 0.486334 0.381983 0.143644
N5    N     N_R   0.359036 0.963427 0.014506 0.092336
O17   O     O_R   0.292413 0.990535 0.984837 -0.378519
O18   O     O_R   0.381844 0.910358 0.070829 -0.398932
N6    N     N_R   0.639971 0.961330 0.984962 0.092789
O19   O     O_R   0.707466 0.987072 0.015303 -0.378316
O20   O     O_R   0.615547 0.908604 0.927586 -0.399969
N7    N     N_R   0.858390 0.464847 0.014119 0.091989
O21   O     O_R   0.792299 0.492781 0.984805 -0.379143
O22   O     O_R   0.880169 0.411593 0.069769 -0.398407
N8    N     N_R   0.139350 0.460093 0.984586 0.093084
O23   O     O_R   0.207298 0.485077 0.015255 -0.377683
O24   O     O_R   0.114017 0.407569 0.926586 -0.400583

loop_
_geom_bond_atom_site_label_1
_geom_bond_atom_site_label_2
_geom_bond_distance
_ccdc_geom_bond_type
C25   H18   1.083037 S    
C84   H56   1.083971 S    
C18   C50   1.402556 A    
C47   C63   1.422907 A    
C101  C102  1.447910 A    
C17   C49   1.403669 A    
C35   H12   1.076485 S    
O2    C2    1.301217 A    
C44   C60   1.424466 A    
C54   C74   1.391660 A    
Cu1   N2    2.023836 S    
C53   C73   1.392057 A    
C99   C111  1.387357 A    
C86   H49   1.081784 S    
C68   C76   1.386955 A    
O4    Cu1   1.946367 S    
C55   C75   1.392178 A    
C5    C16   1.469107 S    
C43   C59   1.422916 A    
C96   C104  1.448545 A    
C6    C15   1.469159 S    
C82   C98   1.403054 A    
O11   C3    1.302447 A    
C62   C69   1.415846 A    
C19   H31   1.083897 S    
C96   C100  1.414185 A    
O12   Cu2   1.936738 S    
O10   C2    1.299555 A    
C90   C94   1.426796 A    
C60   C67   1.415579 A    
C88   H51   1.081791 S    
C52   C80   1.391750 A    
C59   C64   1.421392 A    
C32   H23   1.083084 S    
O11   Cu1   1.936740 S    
C13   C29   1.400493 A    
C14   C38   1.397652 A    
C46   C54   1.418729 A    
C90   H45   1.073041 S    
C45   C53   1.417371 A    
C42   C50   1.418753 A    
C15   C39   1.398593 A    
C24   C56   1.402437 A    
C20   C28   1.392090 A    
C107  N7    1.430553 S    
C66   C74   1.386983 A    
C39   C47   1.403650 A    
O5    Cu3   1.945777 S    
C65   C73   1.388550 A    
C38   C46   1.405457 A    
C104  C107  1.430124 A    
O6    Cu4   1.945776 S    
C83   H55   1.083921 S    
C39   H16   1.076476 S    
N5    O18   1.299329 A    
C35   C43   1.403664 A    
C38   H13   1.073249 S    
C36   C44   1.405700 A    
O13   Cu4   1.936375 S    
O3    C3    1.298246 A    
C64   C71   1.415521 A    
O14   Cu3   1.936375 S    
Cu2   N1    2.023837 S    
C110  H42   1.085100 S    
C36   H11   1.073322 S    
O16   Cu4   1.936738 S    
C16   C32   1.400631 A    
C77   H5    1.084400 S    
C24   C32   1.392034 A    
O15   C7    1.302367 A    
C20   H32   1.083898 S    
C85   H50   1.081786 S    
O16   C8    1.299614 A    
C82   C86   1.388257 A    
O1    Cu1   1.945777 S    
C31   H24   1.083007 S    
C12   C28   1.400630 A    
C30   H21   1.083076 S    
C33   C41   1.403726 A    
C95   C103  1.447850 A    
C60   C63   1.421380 A    
C21   C29   1.393794 A    
C59   C68   1.415336 A    
C70   H38   1.078167 S    
C92   H47   1.072815 S    
C66   H34   1.078187 S    
O9    Cu2   1.936375 S    
C28   H19   1.083080 S    
C4    C9    1.469130 S    
C23   C55   1.403712 A    
C87   H52   1.081791 S    
C14   C30   1.400533 A    
C80   H8    1.084353 S    
N8    O23   1.301570 A    
C75   H3    1.084372 S    
C91   C95   1.426811 A    
C48   C64   1.424476 A    
C67   H35   1.077203 S    
C92   C96   1.426787 A    
C68   H36   1.078233 S    
N6    O20   1.299254 A    
C93   C101  1.448033 A    
C103  C104  1.447985 A    
C72   C80   1.386982 A    
C22   H26   1.083900 S    
C91   H48   1.073621 S    
C111  H43   1.085101 S    
C34   C42   1.405564 A    
Cu1   Cu2   2.692669 S    
C51   C79   1.392225 A    
O7    Cu4   1.946369 S    
C26   H17   1.083083 S    
C69   C77   1.388510 A    
C12   C36   1.397551 A    
C84   C100  1.403074 A    
N4    C92   1.366722 A    
C81   C97   1.403049 A    
C83   C87   1.388441 A    
C63   C72   1.415353 A    
C21   H25   1.083910 S    
C46   C62   1.424627 A    
C10   C34   1.397585 A    
C112  H44   1.085123 S    
O15   Cu3   1.936740 S    
C109  H41   1.085078 S    
C7    C14   1.469174 S    
O12   C4    1.299650 A    
C107  C111  1.392245 A    
Cu3   N4    2.023836 S    
O13   C5    1.302687 A    
O2    Cu2   1.945776 S    
Cu4   N3    2.023837 S    
C23   H27   1.083899 S    
N2    C90   1.366756 A    
C108  N8    1.430956 S    
C34   H9    1.073301 S    
C103  C108  1.429399 A    
C22   C54   1.402638 A    
N8    O24   1.299247 A    
C22   C30   1.392172 A    
C71   H39   1.077223 S    
C61   C70   1.415420 A    
C58   C65   1.415736 A    
O9    C1    1.302627 A    
C27   H20   1.083002 S    
C43   C51   1.417351 A    
C57   C66   1.415451 A    
C69   H37   1.077119 S    
C76   H4    1.084353 S    
C15   C31   1.400523 A    
O14   C6    1.299582 A    
C95   C99   1.413553 A    
C47   C55   1.417363 A    
C73   H1    1.084380 S    
C72   H40   1.078246 S    
C93   C97   1.413702 A    
C49   C77   1.392020 A    
O10   Cu1   1.936375 S    
C19   C27   1.393914 A    
C106  C110  1.392051 A    
C41   C49   1.417428 A    
C101  C106  1.429490 A    
C1    C12   1.469155 S    
C41   C57   1.423018 A    
C67   C75   1.388648 A    
C24   H28   1.083900 S    
C13   C37   1.398530 A    
C20   C52   1.402475 A    
C81   H53   1.083928 S    
C42   C58   1.424606 A    
O3    Cu2   1.946369 S    
C84   C88   1.388190 A    
C97   C109  1.387371 A    
C37   C45   1.403682 A    
N6    O19   1.301542 A    
C16   C40   1.397535 A    
C78   H6    1.084354 S    
C105  N5    1.430601 S    
C37   H14   1.076418 S    
C98   C110  1.387394 A    
C48   C56   1.418773 A    
C79   H7    1.084369 S    
N1    C85   1.354149 A    
O1    C1    1.298108 A    
C8    C13   1.469090 S    
C18   H30   1.083903 S    
C10   C26   1.400537 A    
N3    C91   1.366767 A    
C40   C48   1.405788 A    
C11   C35   1.398566 A    
N2    C86   1.354054 A    
N4    C88   1.354019 A    
C83   C99   1.403042 A    
C56   C76   1.391730 A    
C106  N6    1.430826 S    
C58   C61   1.421496 A    
N1    C89   1.366789 A    
C9    C33   1.398606 A    
C57   C62   1.421498 A    
C23   C31   1.393860 A    
O7    C7    1.298384 A    
C29   H22   1.083004 S    
N3    C87   1.354218 A    
O8    C8    1.301131 A    
C17   H29   1.083936 S    
C100  C112  1.387395 A    
C44   C52   1.418756 A    
C89   C93   1.426809 A    
C18   C26   1.392087 A    
C94   C98   1.413991 A    
C33   H10   1.076454 S    
C21   C53   1.403704 A    
O4    C4    1.301109 A    
C94   C102  1.448348 A    
C108  C112  1.391937 A    
N7    O21   1.301617 A    
O5    C5    1.298030 A    
C89   H46   1.073430 S    
C74   H2    1.084338 S    
C102  C105  1.429812 A    
N5    O17   1.301581 A    
C9    C25   1.400533 A    
Cu3   Cu4   2.692669 S    
N7    O22   1.299370 A    
O8    Cu3   1.946367 S    
C105  C109  1.392185 A    
C45   C61   1.423015 A    
C82   H54   1.083960 S    
C40   H15   1.073346 S    
C11   C27   1.400505 A    
C2    C11   1.469168 S    
C71   C79   1.388694 A    
C3    C10   1.469046 S    
C17   C25   1.393731 A    
C70   C78   1.386923 A    
C81   C85   1.388375 A    
C50   C78   1.391627 A    
C65   H33   1.077122 S    
C19   C51   1.403750 A    
O6    C6    1.301184 A    
