data_mof_unit_15227.cif
_audit_creation_date              2013-03-05T15:45:34-0500
_audit_creation_method            fapswitch 2.2
_symmetry_space_group_name_H-M    P1
_symmetry_Int_Tables_number       1
_space_group_crystal_system       triclinic
_cell_length_a                    8.463742
_cell_length_b                    14.525225
_cell_length_c                    19.131437
_cell_angle_alpha                 93.590436
_cell_angle_beta                  93.787897
_cell_angle_gamma                 92.342258
_cell_volume                      2339.83841943

loop_
_atom_site_label
_atom_site_type_symbol
_atom_site_description
_atom_site_fract_x
_atom_site_fract_y
_atom_site_fract_z
_atom_type_partial_charge
P1    P     P_3+3 0.937730 0.712710 0.546710 0.464000
O1    O     O_2   0.108370 0.727470 0.525290 -0.348519
O2    O     O_3   0.865330 0.611210 0.531230 -0.378904
O3    O     O_3   0.346360 0.671710 0.401620 -0.318375
O4    O     O_2   0.252757 0.837275 0.439787 -0.314645
O5    O     O_3   0.974157 0.749708 0.637710 -0.701638
O6    O     O_3   0.322308 0.815471 0.308976 -0.507892
H1    H     H_    0.282721 0.680388 0.267620 0.144486
C1    C     C_3   0.355833 0.770023 0.188149 0.163248
H2    H     H_    0.392090 0.844603 0.188401 0.163930
P2    P     P_3+3 0.357970 0.428340 0.344000 0.501416
P3    P     P_3+3 0.906717 0.625282 0.276773 0.492640
O7    O     O_2   0.182890 0.456530 0.332150 -0.379026
O8    O     O_3   0.933230 0.625130 0.368420 -0.353991
O9    O     O_2   0.035440 0.562556 0.249322 -0.399872
O10   O     O_3   0.340809 0.308846 0.323242 -0.551458
O11   O     O_3   0.969731 0.735629 0.254580 -0.470170
C2    C     C_3   0.842571 0.795230 0.249330 0.370538
H3    H     H_    0.732176 0.766435 0.268999 -0.045754
C3    C     C_3   0.811944 0.815676 0.172140 0.036802
H4    H     H_    0.920454 0.850592 0.154349 0.142849
C4    C     C_3   0.908525 0.273040 0.309133 0.870684
H5    H     H_    0.029485 0.294945 0.330896 0.042412
C5    C     C_3   0.904757 0.176021 0.267179 -0.609868
H6    H     H_    0.915688 0.123160 0.306672 0.123821
Ba1   Ba    Ba6+2 0.150350 0.545800 0.464500 1.604419
C6    C     C_3   0.912042 0.689681 0.685912 0.664231
H7    H     H_    0.789279 0.701809 0.691218 0.073838
C7    C     C_3   0.982956 0.709495 0.763454 0.053143
H8    H     H_    0.963712 0.643942 0.789509 0.146513
C8    C     C_3   0.338111 0.257622 0.382897 0.250646
H9    H     H_    0.239872 0.279118 0.414752 0.039472
H10   H     H_    0.451109 0.268542 0.414800 0.153947
C9    C     C_3   0.311863 0.154792 0.357506 -0.508676
H11   H     H_    0.193418 0.145845 0.330745 0.147266
P4    P     P_3+3 0.872570 0.287280 0.453240 0.404442
O12   O     O_2   0.701930 0.272470 0.474700 -0.341507
O13   O     O_3   0.944970 0.388780 0.468720 -0.457996
O14   O     O_3   0.463940 0.328280 0.598320 -0.402507
O15   O     O_3   0.804804 0.263686 0.363488 -0.634903
P5    P     P_3+3 0.914041 0.381318 0.723584 0.443775
O16   O     O_3   0.372010 0.546630 0.581240 -0.389647
O17   O     O_3   0.877070 0.374860 0.631520 -0.370316
O18   O     O_2   0.808964 0.457499 0.752753 -0.367420
O19   O     O_3   0.841065 0.282332 0.761242 -0.564437
Ba2   Ba    Ba6+2 0.659830 0.454190 0.535450 1.573676
P6    P     P_3+3 0.377101 0.790372 0.395333 0.574307
C10   C     C_3   0.363910 0.741592 0.263729 0.474152
H12   H     H_    0.486219 0.721312 0.277455 -0.154967
H13   H     H_    0.440836 0.728573 0.158985 0.043005
O20   O     O_3   0.438280 0.453360 0.418700 -0.377063
C11   C     C_3   0.511637 0.742003 0.650272 0.078460
H14   H     H_    0.608093 0.712193 0.621077 0.049252
C12   C     C_3   0.564899 0.840005 0.682562 0.750966
H15   H     H_    0.684124 0.832924 0.708080 0.042054
P7    P     P_3+3 0.449268 0.566085 0.671023 0.445755
O21   O     O_2   0.627420 0.543410 0.667830 -0.298071
O22   O     O_3   0.459524 0.683964 0.701620 -0.584417
H16   H     H_    0.788089 0.748781 0.140801 0.088995
C13   C     C_3   0.881165 0.197347 0.727800 0.474179
H17   H     H_    0.799257 0.181451 0.680489 0.099313
C14   C     C_3   0.855930 0.122793 0.779909 -0.925314
H18   H     H_    0.728849 0.111775 0.788072 0.224249
H19   H     H_    0.899729 0.055826 0.760258 0.221715
H20   H     H_    0.920595 0.143496 0.831303 0.280644
P8    P     P_3+3 0.440300 0.209332 0.604412 0.471709
C15   C     C_3   0.458694 0.257226 0.737275 0.340499
H21   H     H_    0.333007 0.271370 0.729848 0.090705
O23   O     O_2   0.575345 0.168585 0.563402 -0.332306
O24   O     O_3   0.491145 0.181939 0.691456 -0.563863
H22   H     H_    0.532879 0.319190 0.727074 0.155976
C16   C     C_3   0.489351 0.238699 0.814930 -0.727672
H23   H     H_    0.443347 0.296791 0.846723 0.219804
H24   H     H_    0.617371 0.239001 0.830251 0.212006
C17   C     C_R   0.010794 0.940252 0.532976 -0.155872
C18   C     C_R   0.827575 0.801968 0.496162 0.221885
C19   C     C_R   0.682277 0.770743 0.461222 -0.364641
C20   C     C_R   0.581260 0.831012 0.427913 0.229693
C21   C     C_R   0.631352 0.922901 0.423226 -0.282412
C22   C     C_R   0.773226 0.959305 0.458617 0.103081
C23   C     C_R   0.872695 0.899493 0.496322 0.029447
H25   H     H_    0.643654 0.699081 0.462855 0.208962
C24   C     C_R   0.948051 0.096712 0.496459 -0.048909
C25   C     C_R   0.049495 0.036494 0.533012 0.019048
C26   C     C_R   0.989820 0.194766 0.498666 0.201654
C27   C     C_R   0.135773 0.225859 0.534208 -0.529564
C28   C     C_R   0.240346 0.165266 0.565834 0.324221
C29   C     C_R   0.194048 0.071909 0.566889 -0.187234
C30   C     C_R   0.811995 0.055665 0.458472 -0.144994
H26   H     H_    0.557429 0.966102 0.392377 0.168176
H27   H     H_    0.275079 0.026078 0.591476 0.157261
H28   H     H_    0.171126 0.298418 0.535584 0.171457
H29   H     H_    0.089463 0.897637 0.562194 0.155433
H30   H     H_    0.734246 0.098574 0.429012 0.179642
C31   C     C_R   0.605475 0.541351 0.295916 0.262925
C32   C     C_R   0.463426 0.490927 0.276263 0.217600
C33   C     C_R   0.413973 0.479651 0.204728 -0.360814
C34   C     C_R   0.510028 0.513753 0.153346 0.085533
C35   C     C_R   0.655857 0.561186 0.174705 -0.407807
C36   C     C_R   0.704595 0.575249 0.246017 0.104568
C37   C     C_R   0.464347 0.574173 0.034862 -0.160620
C38   C     C_R   0.414448 0.564400 0.963710 -0.220157
C39   C     C_R   0.348588 0.479998 0.933255 -0.045663
C40   C     C_R   0.334039 0.404269 0.976140 0.588894
C41   C     C_R   0.405418 0.410680 0.045942 -0.276472
C42   C     C_R   0.459056 0.498618 0.077140 0.047417
C43   C     C_R   0.155775 0.429195 0.830198 -0.144816
C44   C     C_R   0.121405 0.410524 0.758020 0.220170
C45   C     C_R   0.368610 0.487536 0.734672 0.282014
C46   C     C_R   0.405685 0.504788 0.807162 -0.204047
C47   C     C_R   0.303787 0.469957 0.856037 0.061810
C48   C     C_R   0.240186 0.426616 0.712063 -0.565194
H31   H     H_    0.510306 0.547336 0.825052 0.165759
H32   H     H_    0.424414 0.623876 0.932606 0.193295
H33   H     H_    0.509853 0.641246 0.056802 0.123115
H34   H     H_    0.303518 0.441684 0.188771 0.162181
H35   H     H_    0.064909 0.415091 0.865552 0.143899
H36   H     H_    0.733478 0.584140 0.135906 0.162008
H37   H     H_    0.217784 0.407220 0.656775 0.150958
C49   C     C_2   0.749085 0.154940 0.225162 0.562908
H38   H     H_    0.666841 0.208737 0.215109 0.091569
O25   O     O_2   0.714712 0.076581 0.200492 -0.557006
C50   C     C_2   0.035897 0.159361 0.218149 0.511934
H39   H     H_    0.035713 0.093723 0.187661 0.100258
O26   O     O_2   0.144333 0.215887 0.212942 -0.570215
O27   O     O_3   0.916429 0.596565 0.662631 -0.592841
C51   C     C_3   0.071536 0.574876 0.652460 0.127212
H40   H     H_    0.142015 0.626079 0.626297 0.111383
H41   H     H_    0.068490 0.510660 0.618409 0.154206
H42   H     H_    0.129389 0.572325 0.704629 -0.008981
C52   C     C_2   0.159439 0.730547 0.770605 0.489870
H43   H     H_    0.213950 0.768605 0.731402 0.063279
O28   O     O_2   0.239732 0.707111 0.821255 -0.561956
O29   O     O_3   0.895917 0.775187 0.801656 -0.591841
C53   C     C_3   0.946176 0.867589 0.793256 -0.192440
H44   H     H_    0.971188 0.879826 0.738243 0.106364
H45   H     H_    0.052377 0.887510 0.829060 0.168590
H46   H     H_    0.850230 0.912869 0.808567 0.174595
O30   O     O_3   0.200743 0.753191 0.156963 -0.565957
C54   C     C_3   0.194476 0.781581 0.087705 -0.181631
H47   H     H_    0.279827 0.744837 0.055455 0.136837
H48   H     H_    0.216227 0.857609 0.087336 0.138769
H49   H     H_    0.073961 0.764273 0.062759 0.158198
C55   C     C_2   0.311035 0.089887 0.414432 0.355501
H50   H     H_    0.211010 0.041409 0.416552 0.124045
O31   O     O_2   0.426240 0.085678 0.455282 -0.570245
C56   C     C_2   0.433388 0.124720 0.308472 0.788547
H51   H     H_    0.557526 0.129910 0.326632 -0.031391
O32   O     O_2   0.393515 0.092131 0.249272 -0.546090
C57   C     C_2   0.384425 0.751298 0.596878 0.630046
H52   H     H_    0.282015 0.787756 0.610732 -0.002695
O33   O     O_2   0.399323 0.719938 0.537474 -0.534621
O34   O     O_3   0.569887 0.902544 0.627894 -0.686906
C58   C     C_3   0.696062 0.968466 0.641533 -0.279344
H53   H     H_    0.812085 0.935482 0.643913 0.125634
H54   H     H_    0.680473 0.010016 0.690481 0.169991
H55   H     H_    0.694970 0.015763 0.598442 0.233147
O35   O     O_3   0.468739 0.868553 0.737849 -0.619633
C59   C     C_3   0.359928 0.936192 0.720260 -0.095617
H56   H     H_    0.276012 0.912535 0.675549 0.088473
H57   H     H_    0.420579 0.002194 0.709563 0.187678
H58   H     H_    0.288209 0.950485 0.765809 0.149310
C60   C     C_2   0.048188 0.194724 0.704684 0.443165
H59   H     H_    0.088082 0.244423 0.669474 -0.032273
O36   O     O_2   0.137500 0.134943 0.722040 -0.625472
C61   C     C_2   0.411715 0.149740 0.833410 0.859536
H60   H     H_    0.462208 0.084866 0.818324 -0.047521
O37   O     O_2   0.294031 0.149686 0.866981 -0.536577
C62   C     C_2   0.884892 0.884012 0.292739 0.499814
H61   H     H_    0.800415 0.938188 0.294536 0.031481
O38   O     O_2   0.012432 0.896224 0.326441 -0.528309
O39   O     O_3   0.259359 0.322516 0.947825 -0.582896
C63   C     C_3   0.112622 0.309938 0.978178 -0.072527
H62   H     H_    0.043909 0.373776 0.979935 0.057955
H63   H     H_    0.129263 0.285735 0.031947 0.153704
H64   H     H_    0.039817 0.255936 0.945666 0.172969
C64   C     C_2   0.440002 0.325323 0.082932 0.560319
H65   H     H_    0.490448 0.329480 0.136591 0.033440
O40   O     O_2   0.421181 0.248675 0.052770 -0.519935
O41   O     O_3   0.651336 0.554248 0.365423 -0.669685
C65   C     C_3   0.748130 0.481693 0.382121 0.168555
H66   H     H_    0.844334 0.470124 0.346705 0.134634
H67   H     H_    0.681785 0.415276 0.384199 0.134243
H68   H     H_    0.806854 0.504802 0.432678 0.219934
O42   O     O_3   0.681766 0.872720 0.164341 -0.619107
C66   C     C_3   0.649782 0.886772 0.092618 -0.089379
H69   H     H_    0.549016 0.932957 0.087474 0.186937
H70   H     H_    0.614074 0.820631 0.062069 0.087835
H71   H     H_    0.753209 0.921086 0.070230 0.140595
O43   O     O_3   0.842097 0.340919 0.266785 -0.690434
C67   C     C_3   0.929430 0.360881 0.208991 -0.224439
H72   H     H_    0.908475 0.306089 0.165992 0.130693
H73   H     H_    0.057134 0.374213 0.223994 0.214797
H74   H     H_    0.884091 0.423962 0.186857 0.177375

loop_
_geom_bond_atom_site_label_1
_geom_bond_atom_site_label_2
_geom_bond_distance
_ccdc_geom_bond_type
P2    C32   1.880564 S    
C53   H46   1.108510 S    
C28   C29   1.397791 A    
C20   C21   1.393908 A    
O19   C13   1.418583 S    
C37   C38   1.395130 A    
P5    C44   1.856244 S    
C6    C7    1.567986 S    
C62   O38   1.220855 D    
C62   H61   1.085114 S    
C50   O26   1.219470 D    
C31   C32   1.398951 A    
C54   H49   1.109545 S    
C12   O34   1.429179 S    
C51   H41   1.102169 S    
C33   C34   1.416437 A    
C50   H39   1.085968 S    
C7    C52   1.507916 S    
C65   H66   1.104599 S    
C49   H38   1.085229 S    
O10   C8    1.401799 S    
C59   H58   1.108369 S    
O4    P6    1.548963 D    
C9    C55   1.484588 S    
O43   C67   1.408392 S    
C24   C25   1.431769 A    
C39   C47   1.497300 S    
P4    O12   1.537763 D    
C60   O36   1.221578 D    
C54   H48   1.112656 S    
C15   C16   1.533536 S    
C59   H56   1.103252 S    
C26   C27   1.413248 A    
O39   C63   1.415286 S    
C22   C23   1.428956 A    
C6    O27   1.399975 S    
C17   C25   1.422658 A    
C63   H64   1.109328 S    
P8    O23   1.545284 D    
C22   C30   1.424711 A    
C13   C60   1.510068 S    
P7    O21   1.560770 D    
C13   C14   1.535115 S    
C9    H11   1.094162 S    
O16   Ba2   2.984387 S    
C30   H30   1.080570 S    
C46   C47   1.415704 A    
C21   H26   1.078528 S    
C14   H19   1.107709 S    
C56   H51   1.082736 S    
O16   P7    1.798218 S    
C3    O42   1.411064 S    
C60   H59   1.076994 S    
O5    C6    1.419263 S    
C49   O25   1.220806 D    
C64   O40   1.220965 D    
P3    O11   1.754713 S    
C15   H22   1.111031 S    
C43   C44   1.399486 A    
C59   H57   1.105761 S    
C5    H6    1.112739 S    
P4    Ba2   3.441932 S    
C4    O43   1.424700 S    
C1    H2    1.113402 S    
C58   H54   1.100274 S    
O12   Ba2   2.862201 S    
C19   C20   1.400895 A    
C40   O39   1.384166 S    
C65   H67   1.100472 S    
C7    O29   1.424277 S    
C61   O37   1.220298 D    
P5    O17   1.764391 S    
C61   H60   1.081222 S    
C43   C47   1.408957 A    
C1    O30   1.410957 S    
C4    H5    1.105967 S    
C40   C41   1.424854 A    
C11   C12   1.552998 S    
C63   H63   1.109857 S    
C24   C30   1.410218 A    
C5    C49   1.507374 S    
P3    C36   1.874226 S    
C67   H72   1.108498 S    
C53   H44   1.110811 S    
C18   C19   1.404523 A    
C51   H42   1.085740 S    
C58   H55   1.105493 S    
C16   H24   1.103382 S    
C45   C48   1.401030 A    
P8    C28   1.872360 S    
C27   C28   1.408438 A    
C2    H3    1.106235 S    
P2    Ba1   3.406032 S    
C63   H62   1.114420 S    
Ba2   O20   2.818978 S    
C5    C50   1.517057 S    
O8    Ba1   2.841751 S    
C44   C48   1.400593 A    
C13   H17   1.109499 S    
C3    H16   1.113274 S    
O6    P6    1.750875 S    
O35   C59   1.414591 S    
C15   H21   1.093431 S    
C67   H73   1.105933 S    
C7    H8    1.113154 S    
C38   H32   1.082870 S    
C57   O33   1.214002 D    
C12   O35   1.428099 S    
C9    C56   1.497212 S    
C8    H9    1.106613 S    
C29   H27   1.081049 S    
P4    O15   1.781817 S    
C4    O15   1.413892 S    
C32   C33   1.402015 A    
C14   H18   1.103686 S    
C8    H10   1.100319 S    
O11   C2    1.410898 S    
C8    C9    1.544014 S    
O1    Ba1   2.861631 S    
C11   H14   1.106707 S    
C54   H47   1.112002 S    
C33   H34   1.081825 S    
C46   H31   1.082550 S    
C58   H53   1.109594 S    
C11   O22   1.414512 S    
O14   Ba2   2.798477 S    
C55   O31   1.214667 D    
C10   H12   1.107269 S    
C24   C26   1.450728 A    
P3    O8    1.753033 S    
C34   C35   1.411969 A    
P3    O9    1.545859 D    
Ba2   O21   2.806893 S    
P1    Ba1   3.441344 S    
C37   H33   1.081876 S    
P5    O18   1.547722 D    
C4    C5    1.575564 S    
O7    Ba1   2.806876 S    
C66   H70   1.112870 S    
C51   H40   1.099691 S    
P7    C45   1.862983 S    
C6    H7    1.071246 S    
O41   C65   1.400728 S    
C17   H29   1.080177 S    
C2    C62   1.506597 S    
C37   C42   1.404485 A    
C53   H45   1.110611 S    
C12   H15   1.103107 S    
C65   H68   1.085093 S    
C14   H20   1.111373 S    
C56   O32   1.220647 D    
C31   C36   1.410142 A    
P1    C18   1.903169 S    
C16   C61   1.498310 S    
O2    Ba1   2.965499 S    
C17   C23   1.411229 A    
C1    H13   1.112551 S    
C25   C29   1.408388 A    
C41   C64   1.495274 S    
C16   H23   1.107887 S    
C52   O28   1.220616 D    
C18   C23   1.451758 A    
C48   H37   1.079790 S    
O3    Ba1   2.799179 S    
O30   C54   1.410461 S    
O29   C53   1.413344 S    
P4    C26   1.920198 S    
C41   C42   1.419575 A    
P1    O5    1.792531 S    
O2    Ba2   2.819730 S    
Ba1   O20   2.985241 S    
C34   C42   1.492989 S    
C35   C36   1.398937 A    
C55   H50   1.083316 S    
C15   O24   1.405702 S    
Ba1   O13   2.819133 S    
O6    C10   1.407024 S    
C66   H71   1.113015 S    
P4    O13   1.576163 S    
O34   C58   1.404889 S    
C67   H74   1.105428 S    
C27   H28   1.081999 S    
H1    C10   1.110482 S    
C35   H36   1.082255 S    
P2    O7    1.559397 D    
O42   C66   1.410056 S    
P8    O24   1.766066 S    
C19   H25   1.081168 S    
O27   C51   1.385790 S    
P1    O1    1.537419 D    
O14   P8    1.743204 S    
P7    O22   1.771295 S    
C2    C3    1.531953 S    
Ba1   O16   2.819407 S    
C38   C39   1.401766 A    
O17   Ba2   2.842263 S    
O13   Ba2   2.966366 S    
P2    O10   1.754085 S    
P2    O20   1.556565 S    
Ba1   Ba2   4.622599 S    
C21   C22   1.405613 A    
C31   O41   1.359654 S    
C3    H4    1.114167 S    
C1    C10   1.526444 S    
C11   C57   1.450789 S    
C64   H65   1.082592 S    
C39   C40   1.419016 A    
P5    O19   1.756050 S    
C57   H52   1.073451 S    
P6    C20   1.857694 S    
P1    O2    1.576162 S    
C66   H69   1.109525 S    
C45   C46   1.406102 A    
C43   H35   1.078940 S    
C52   H43   1.076005 S    
O3    P6    1.745392 S    
