data_mof_unit_10576.cif
_audit_creation_date              2012-10-26T19:04:41-0400
_audit_creation_method            fapswitch 2.2
_symmetry_space_group_name_H-M    P1
_symmetry_Int_Tables_number       1
_space_group_crystal_system       triclinic
_cell_length_a                    9.635654
_cell_length_b                    10.86978
_cell_length_c                    13.411191
_cell_angle_alpha                 94.107171
_cell_angle_beta                  72.006466
_cell_angle_gamma                 92.047547
_cell_volume                      1332.38614356

loop_
_atom_site_label
_atom_site_type_symbol
_atom_type_description
_atom_site_fract_x
_atom_site_fract_y
_atom_site_fract_z
_atom_type_partial_charge
C1    C     C_R   0.505009 0.736484 0.493663 0.557824
C2    C     C_R   0.370274 0.472704 0.815658 0.001129
C3    C     C_R   0.344488 0.856862 0.376826 -0.099580
C4    C     C_R   0.420433 0.489977 0.699992 0.597773
C5    C     C_R   0.218380 0.901494 0.362426 0.244470
C6    C     C_R   0.167403 0.016551 0.409790 0.036846
C7    C     C_R   0.252187 0.092973 0.457788 -0.173290
C8    C     C_R   0.385548 0.051390 0.466133 -0.004704
C9    C     C_R   0.416411 0.925297 0.440219 -0.003749
C10   C     C_R   0.513149 0.869170 0.482684 0.009661
C11   C     C_R   0.601237 0.941505 0.529478 -0.116282
C12   C     C_R   0.436485 0.468043 0.978344 -0.004647
C13   C     C_R   0.591289 0.068637 0.536431 -0.101804
C14   C     C_R   0.486164 0.126164 0.504038 0.013088
C15   C     C_R   0.915861 0.349064 0.348621 -0.070607
C16   C     C_R   0.495556 0.261771 0.501985 0.553397
C17   C     C_R   0.020006 0.284515 0.268358 -0.142352
C18   C     C_R   0.162262 0.281846 0.270197 -0.163576
C19   C     C_R   0.201124 0.345106 0.351443 -0.105790
C20   C     C_R   0.102715 0.423332 0.427487 0.127610
C21   C     C_R   0.954018 0.424534 0.426638 0.142484
C22   C     C_R   0.900274 0.577189 0.566649 0.080546
C23   C     C_R   0.470095 0.438508 0.868552 0.061695
C24   C     C_R   0.049305 0.579109 0.564987 0.082738
C25   C     C_R   0.578941 0.497900 0.299748 0.519471
C26   C     C_R   0.781499 0.374787 0.026304 0.239972
C27   C     C_R   0.624209 0.478234 0.184907 -0.045265
C28   C     C_R   0.224226 0.498814 0.877291 -0.014725
C29   C     C_R   0.187762 0.513339 0.986030 -0.101982
C30   C     C_R   0.292679 0.503416 0.035667 -0.128349
C31   C     C_1   0.024453 0.053408 0.412971 0.256177
C32   C     C_1   0.798844 0.661099 0.639324 0.262360
C33   C     C_1   0.097588 0.671116 0.630671 0.281886
C34   C     C_R   0.544735 0.454618 0.028554 -0.010572
C35   C     C_1   0.104834 0.501833 0.834102 0.283565
C36   C     C_R   0.677040 0.393696 0.973636 0.023138
C37   C     C_R   0.700574 0.351620 0.868710 -0.104216
C38   C     C_R   0.597232 0.369166 0.817079 0.248149
C39   C     C_R   0.523932 0.500161 0.132759 -0.137306
C40   C     C_R   0.755201 0.420323 0.130204 -0.081359
Cu1   Cu    Cu3+1 0.359340 0.500010 0.500010 0.948553
Cu2   Cu    Cu3+1 0.640660 0.499990 0.499990 0.992111
H1    H     H_    0.833725 0.402756 0.169941 0.134832
H2    H     H_    0.429599 0.553431 0.176020 0.124890
H3    H     H_    0.254349 0.514959 0.120213 0.117904
H4    H     H_    0.076439 0.533163 0.033451 0.149714
H5    H     H_    0.677157 0.899874 0.561626 0.162752
H6    H     H_    0.188621 0.752014 0.281928 0.315719
H7    H     H_    0.885357 0.237465 0.938498 0.326380
H8    H     H_    0.707568 0.266593 0.694812 0.314115
H9    H     H_    0.382848 0.766685 0.341609 0.123702
H10   H     H_    0.205129 0.178900 0.495813 0.154201
H11   H     H_    0.664954 0.122168 0.569449 0.170907
H12   H     H_    0.806845 0.334807 0.347149 0.178045
H13   H     H_    0.988110 0.230126 0.207947 0.156201
H14   H     H_    0.241417 0.225570 0.211238 0.140899
H15   H     H_    0.308486 0.327443 0.352609 0.183825
H16   H     H_    0.799040 0.303251 0.825192 0.119341
N1    N     N_R   0.852480 0.498790 0.499000 -0.263058
N2    N     N_R   0.148360 0.498710 0.498970 -0.269974
N3    N     N_1   0.908965 0.081160 0.415147 -0.319641
N4    N     N_1   0.718385 0.728493 0.698144 -0.299270
N5    N     N_1   0.135002 0.745535 0.683476 -0.275699
N6    N     N_1   0.006907 0.502436 0.801519 -0.296506
O1    O     O_R   0.381190 0.680360 0.500010 -0.499079
O2    O     O_3   0.907597 0.308835 0.981305 -0.711655
O3    O     O_3   0.610828 0.306242 0.721440 -0.686212
O4    O     O_R   0.618760 0.680340 0.500000 -0.492167
O5    O     O_R   0.323240 0.499990 0.650990 -0.492796
O6    O     O_R   0.560820 0.499960 0.650980 -0.437934
O7    O     O_R   0.381240 0.319660 0.500000 -0.539474
O8    O     O_R   0.618810 0.319640 0.499990 -0.495837
O9    O     O_R   0.439180 0.500040 0.349020 -0.535528
O10   O     O_R   0.676760 0.500010 0.349010 -0.525094
O11   O     O_3   0.139012 0.831656 0.308264 -0.687995

loop_
_geom_bond_atom_site_label_1
_geom_bond_atom_site_label_2
_ccdc_geom_bond_type
Cu1   Cu2   S    
C31   N3    T    
C30   H3    S    
C11   H5    S    
C19   C20   A    
C16   O8    A    
C4    O6    A    
C7    C8    A    
C19   H15   S    
C12   C23   A    
C37   C38   A    
C22   C32   S    
C36   C37   A    
C7    H10   S    
C21   N1    A    
C5    C6    A    
Cu2   O6    S    
C1    O4    A    
C25   O10   A    
C40   H1    S    
C28   C35   S    
C27   C39   A    
C8    C9    A    
C1    O1    A    
C35   N6    T    
C14   C16   S    
C20   N2    A    
H8    O3    S    
C17   H13   S    
C34   C36   A    
C37   H16   S    
C18   H14   S    
Cu1   O7    S    
C6    C31   S    
C13   C14   A    
Cu2   O4    S    
H6    O11   S    
C16   O7    A    
C4    O5    A    
C13   H11   S    
Cu2   O10   S    
H7    O2    S    
C34   C39   A    
C26   O2    S    
C15   H12   S    
C22   N1    A    
C3    H9    S    
C18   C19   A    
Cu1   O1    S    
C5    O11   S    
C2    C4    S    
C29   C30   A    
C3    C9    A    
C27   C40   A    
C33   N5    T    
Cu2   O8    S    
C17   C18   A    
C38   O3    S    
C39   H2    S    
C26   C36   A    
C22   C24   A    
C12   C34   A    
Cu1   O5    S    
C9    C10   A    
C15   C17   A    
C28   C29   A    
C8    C14   A    
C12   C30   A    
C1    C10   S    
Cu1   N2    S    
C3    C5    A    
Cu2   N1    S    
C6    C7    A    
C25   C27   S    
C23   C38   A    
C24   C33   S    
C29   H4    S    
C32   N4    T    
C11   C13   A    
C26   C40   A    
C25   O9    A    
C10   C11   A    
Cu1   O9    S    
C15   C21   A    
C20   C21   A    
C2    C23   A    
C2    C28   A    
C24   N2    A    
