data_mof_unit_64327.cif
_audit_creation_date              2013-03-05T16:17:57-0500
_audit_creation_method            fapswitch 2.2
_symmetry_space_group_name_H-M    P1
_symmetry_Int_Tables_number       1
_space_group_crystal_system       triclinic
_cell_length_a                    34.519718
_cell_length_b                    34.608627
_cell_length_c                    24.928578
_cell_angle_alpha                 90.000027
_cell_angle_beta                  46.303111
_cell_angle_gamma                 89.999945
_cell_volume                      21532.2895055

loop_
_atom_site_label
_atom_site_type_symbol
_atom_site_description
_atom_site_fract_x
_atom_site_fract_y
_atom_site_fract_z
_atom_type_partial_charge
Zn1   Zn    Zn3+2 0.563280 0.782480 0.438420 1.006309
Zn2   Zn    Zn3+2 0.436720 0.217520 0.561580 1.007502
Zn3   Zn    Zn3+2 0.436720 0.782480 0.561580 1.006289
Zn4   Zn    Zn3+2 0.563280 0.217520 0.438420 1.007528
Zn5   Zn    Zn3+2 0.063280 0.282480 0.438420 1.006315
Zn6   Zn    Zn3+2 0.936720 0.717520 0.561580 1.007504
Zn7   Zn    Zn3+2 0.936720 0.282480 0.561580 1.006270
Zn8   Zn    Zn3+2 0.063280 0.717520 0.438420 1.007533
Zn9   Zn    Zn3+2 0.501700 0.717510 0.561590 0.995169
Zn10  Zn    Zn3+2 0.498300 0.282490 0.438410 0.993232
Zn11  Zn    Zn3+2 0.498300 0.717510 0.438410 0.995146
Zn12  Zn    Zn3+2 0.501700 0.282490 0.561590 0.993254
Zn13  Zn    Zn3+2 0.001700 0.217510 0.561590 0.995163
Zn14  Zn    Zn3+2 0.998300 0.782490 0.438410 0.993245
Zn15  Zn    Zn3+2 0.998300 0.217510 0.438410 0.995196
Zn16  Zn    Zn3+2 0.001700 0.782490 0.561590 0.993200
O1    O     O_3   0.500000 0.749990 0.500000 -0.495276
O2    O     O_3   0.500000 0.250010 0.500000 -0.494903
O3    O     O_3   0.000000 0.249990 0.500000 -0.495281
O4    O     O_3   0.000000 0.750010 0.500000 -0.494901
O5    O     O_R   0.395070 0.772730 0.664400 -0.611604
O6    O     O_R   0.604930 0.227270 0.335600 -0.619114
O7    O     O_R   0.604930 0.772730 0.335600 -0.611618
O8    O     O_R   0.395070 0.227270 0.664400 -0.619107
O9    O     O_R   0.895070 0.272730 0.664400 -0.611635
O10   O     O_R   0.104930 0.727270 0.335600 -0.619105
O11   O     O_R   0.104930 0.272730 0.335600 -0.611604
O12   O     O_R   0.895070 0.727270 0.664400 -0.619119
O13   O     O_R   0.565180 0.727260 0.543110 -0.640996
O14   O     O_R   0.434820 0.272740 0.456890 -0.638601
O15   O     O_R   0.434820 0.727260 0.456890 -0.641002
O16   O     O_R   0.565180 0.272740 0.543110 -0.638583
O17   O     O_R   0.065180 0.227260 0.543110 -0.640985
O18   O     O_R   0.934820 0.772740 0.456890 -0.638601
O19   O     O_R   0.934820 0.227260 0.456890 -0.641003
O20   O     O_R   0.065180 0.772740 0.543110 -0.638584
O21   O     O_R   0.501190 0.663260 0.543120 -0.639884
O22   O     O_R   0.498810 0.336740 0.456880 -0.640463
O23   O     O_R   0.498810 0.663260 0.456880 -0.639896
O24   O     O_R   0.501190 0.336740 0.543120 -0.640459
O25   O     O_R   0.001190 0.163260 0.543120 -0.639899
O26   O     O_R   0.998810 0.836740 0.456880 -0.640455
O27   O     O_R   0.998810 0.163260 0.456880 -0.639883
O28   O     O_R   0.001190 0.836740 0.543120 -0.640471
O29   O     O_R   0.455720 0.836720 0.543090 -0.641105
O30   O     O_R   0.544280 0.163280 0.456910 -0.636954
O31   O     O_R   0.544280 0.836720 0.456910 -0.641169
O32   O     O_R   0.455720 0.163280 0.543090 -0.636936
O33   O     O_R   0.955720 0.336720 0.543090 -0.641192
O34   O     O_R   0.044280 0.663280 0.456910 -0.636888
O35   O     O_R   0.044280 0.336720 0.456910 -0.641139
O36   O     O_R   0.955720 0.663280 0.543090 -0.636948
O37   O     O_R   0.608280 0.772740 0.456900 -0.632938
O38   O     O_R   0.391720 0.227260 0.543100 -0.632802
O39   O     O_R   0.391720 0.772740 0.543100 -0.633044
O40   O     O_R   0.608280 0.227260 0.456900 -0.632720
O41   O     O_R   0.108280 0.272740 0.456900 -0.632945
O42   O     O_R   0.891720 0.727260 0.543100 -0.632794
O43   O     O_R   0.891720 0.272740 0.543100 -0.632960
O44   O     O_R   0.108280 0.727260 0.456900 -0.632778
O45   O     O_R   0.440550 0.727250 0.664400 -0.634901
O46   O     O_R   0.559450 0.272750 0.335600 -0.634709
O47   O     O_R   0.559450 0.727250 0.335600 -0.634900
O48   O     O_R   0.440550 0.272750 0.664400 -0.634704
O49   O     O_R   0.940550 0.227250 0.664400 -0.634896
O50   O     O_R   0.059450 0.772750 0.335600 -0.634702
O51   O     O_R   0.059450 0.227250 0.335600 -0.634893
O52   O     O_R   0.940550 0.772750 0.664400 -0.634710
C1    C     C_R   0.400299 0.749970 0.699455 0.820475
C2    C     C_R   0.599697 0.250028 0.300546 0.816746
C3    C     C_R   0.599701 0.749970 0.300545 0.820472
C4    C     C_R   0.400303 0.250027 0.699453 0.816755
C5    C     C_R   0.900299 0.249970 0.699455 0.820483
C6    C     C_R   0.099698 0.750028 0.300546 0.816740
C7    C     C_R   0.099701 0.249970 0.300545 0.820482
C8    C     C_R   0.900303 0.750028 0.699453 0.816745
C9    C     C_R   0.605261 0.749887 0.499935 0.817373
C10   C     C_R   0.394882 0.249966 0.499779 0.819084
C11   C     C_R   0.394738 0.749887 0.500065 0.817383
C12   C     C_R   0.605118 0.249966 0.500220 0.819055
C13   C     C_R   0.105261 0.249887 0.499935 0.817358
C14   C     C_R   0.894882 0.749966 0.499779 0.819096
C15   C     C_R   0.894738 0.249887 0.500066 0.817435
C16   C     C_R   0.105118 0.749966 0.500220 0.818977
C17   C     C_R   0.500000 0.644774 0.500000 0.796713
C18   C     C_R   0.500000 0.355228 0.500000 0.790811
C19   C     C_R   1.000000 0.144774 0.500000 0.796722
C20   C     C_R   1.000000 0.855228 0.500000 0.790797
C21   C     C_R   0.500000 0.855194 0.500000 0.786262
C22   C     C_R   0.500000 0.144805 0.500000 0.796700
C23   C     C_R   1.000000 0.355194 0.500000 0.786215
C24   C     C_R   1.000000 0.644805 0.500000 0.796751
C25   C     C_R   0.453800 0.958146 0.529184 -0.158280
C26   C     C_R   0.545723 0.041850 0.439848 -0.156681
C27   C     C_R   0.546200 0.958146 0.470817 -0.158292
C28   C     C_R   0.454277 0.041850 0.560153 -0.156620
C29   C     C_R   0.953799 0.458146 0.529185 -0.158311
C30   C     C_R   0.045722 0.541850 0.439847 -0.156606
C31   C     C_R   0.046201 0.458146 0.470815 -0.158291
C32   C     C_R   0.954277 0.541850 0.560153 -0.156673
H1    H     H_    0.417917 0.973148 0.550789 0.145537
H2    H     H_    0.581203 0.026849 0.392099 0.146693
H3    H     H_    0.582083 0.973147 0.449212 0.145537
H4    H     H_    0.418796 0.026848 0.607902 0.146761
H5    H     H_    0.917916 0.473148 0.550790 0.145527
H6    H     H_    0.081203 0.526849 0.392097 0.146780
H7    H     H_    0.082084 0.473147 0.449209 0.145546
H8    H     H_    0.918797 0.526848 0.607902 0.146692
C33   C     C_R   0.453685 0.917917 0.529694 -0.166757
C34   C     C_R   0.545850 0.082079 0.440122 -0.159876
C35   C     C_R   0.546315 0.917917 0.470307 -0.166844
C36   C     C_R   0.454150 0.082079 0.559879 -0.159831
C37   C     C_R   0.953685 0.417917 0.529694 -0.166890
C38   C     C_R   0.045849 0.582079 0.440121 -0.159748
C39   C     C_R   0.046316 0.417917 0.470305 -0.166820
C40   C     C_R   0.954151 0.582079 0.559879 -0.159856
H9    H     H_    0.417604 0.902764 0.552351 0.167779
H10   H     H_    0.581555 0.097231 0.393015 0.173548
H11   H     H_    0.582396 0.902763 0.447650 0.167775
H12   H     H_    0.418445 0.097230 0.606985 0.173609
H13   H     H_    0.917604 0.402764 0.552352 0.167759
H14   H     H_    0.081555 0.597231 0.393014 0.173683
H15   H     H_    0.082396 0.402764 0.447647 0.167783
H16   H     H_    0.918446 0.597230 0.606986 0.173578
C41   C     C_R   0.500000 0.897542 0.500000 -0.009710
C42   C     C_R   0.500000 0.102455 0.500000 -0.014784
C43   C     C_R   1.000000 0.397542 0.500000 -0.009703
C44   C     C_R   0.000000 0.602455 0.500000 -0.014836
C45   C     C_R   0.500000 0.978667 0.500001 0.103188
C46   C     C_R   0.500000 0.021329 0.500000 0.100491
C47   C     C_R   1.000000 0.478667 0.500000 0.103206
C48   C     C_R   1.000000 0.521328 0.500000 0.100465
C49   C     C_3   0.253792 0.285772 0.974720 -0.268458
C50   C     C_3   0.746195 0.714195 0.025272 -0.261931
C51   C     C_3   0.745945 0.285836 0.025279 -0.268411
C52   C     C_3   0.253384 0.714302 0.974725 -0.261913
C53   C     C_3   0.753843 0.785785 0.974721 -0.268481
C54   C     C_3   0.246246 0.214208 0.025273 -0.261899
C55   C     C_3   0.246578 0.785679 0.025282 -0.268573
C56   C     C_3   0.754017 0.214144 0.974728 -0.261925
C57   C     C_3   0.702050 0.760502 0.025099 -0.266197
C58   C     C_3   0.298004 0.239528 0.974894 -0.255013
C59   C     C_3   0.298071 0.760086 0.974903 -0.266111
C60   C     C_3   0.702074 0.239269 0.025107 -0.255110
C61   C     C_3   0.202036 0.260452 0.025097 -0.266150
C62   C     C_3   0.797989 0.739478 0.974893 -0.255061
C63   C     C_3   0.797887 0.260711 0.974901 -0.266214
C64   C     C_3   0.201890 0.739895 0.025106 -0.254922
H17   H     H_    0.662539 0.768454 0.045681 0.186103
H18   H     H_    0.337527 0.231619 0.954311 0.193822
H19   H     H_    0.337674 0.767693 0.954322 0.186162
H20   H     H_    0.662610 0.231145 0.045691 0.193748
H21   H     H_    0.162514 0.268362 0.045678 0.186141
H22   H     H_    0.837501 0.731526 0.954308 0.193785
H23   H     H_    0.837350 0.268836 0.954320 0.186095
H24   H     H_    0.162287 0.732287 0.045689 0.193877
H25   H     H_    0.257562 0.315259 0.953996 0.185882
H26   H     H_    0.742385 0.684699 0.045994 0.188737
H27   H     H_    0.741958 0.315371 0.046002 0.185884
H28   H     H_    0.256847 0.684885 0.954001 0.188776
H29   H     H_    0.757654 0.815281 0.953998 0.185854
H30   H     H_    0.242478 0.184721 0.045996 0.188769
H31   H     H_    0.243114 0.815096 0.046007 0.185834
H32   H     H_    0.758003 0.184609 0.954006 0.188733
C65   C     C_1   0.639313 0.749935 0.221271 -0.090076
C66   C     C_1   0.360704 0.250054 0.778725 -0.092542
C67   C     C_1   0.360687 0.749936 0.778729 -0.090052
C68   C     C_1   0.639296 0.250054 0.221275 -0.092562
C69   C     C_1   0.139313 0.249935 0.221272 -0.090040
C70   C     C_1   0.860703 0.750054 0.778725 -0.092574
C71   C     C_1   0.860687 0.249936 0.778728 -0.090080
C72   C     C_1   0.139297 0.750054 0.221275 -0.092553
C73   C     C_3   0.764130 0.774702 0.023785 0.384611
C74   C     C_3   0.235945 0.225241 0.976206 0.385796
C75   C     C_3   0.236163 0.775006 0.976216 0.384645
C76   C     C_3   0.764238 0.225432 0.023793 0.385819
C77   C     C_3   0.264094 0.274739 0.023786 0.384576
C78   C     C_3   0.735909 0.725279 0.976207 0.385840
C79   C     C_3   0.735724 0.274548 0.976214 0.384573
C80   C     C_3   0.263798 0.724975 0.023792 0.385809
C81   C     C_3   0.713286 0.750041 0.073576 0.032001
C82   C     C_3   0.286753 0.249939 0.926417 0.030584
C83   C     C_3   0.286716 0.750042 0.926423 0.031954
C84   C     C_3   0.713248 0.249940 0.073583 0.030623
C85   C     C_3   0.213285 0.250041 0.073576 0.031969
C86   C     C_3   0.786752 0.749939 0.926417 0.030616
C87   C     C_3   0.786714 0.250041 0.926423 0.032010
C88   C     C_3   0.213247 0.749938 0.073583 0.030570
C89   C     C_1   0.672690 0.749963 0.154592 0.061100
C90   C     C_1   0.327339 0.250021 0.845403 0.061047
C91   C     C_1   0.327310 0.749964 0.845408 0.061159
C92   C     C_1   0.672662 0.250021 0.154597 0.061014
C93   C     C_1   0.172690 0.249963 0.154592 0.061140
C94   C     C_1   0.827338 0.750021 0.845403 0.061012
C95   C     C_1   0.827310 0.249963 0.845408 0.061087
C96   C     C_1   0.172662 0.750021 0.154597 0.061041
C97   C     C_R   0.277210 0.778989 0.527351 -0.137597
C98   C     C_R   0.736825 0.235604 0.444508 -0.137171
C99   C     C_R   0.722707 0.779022 0.472811 -0.137546
C100  C     C_R   0.263204 0.235524 0.555433 -0.137192
C101  C     C_R   0.777226 0.278996 0.527318 -0.137537
C102  C     C_R   0.236829 0.735617 0.444498 -0.137230
C103  C     C_R   0.222704 0.279023 0.472815 -0.137536
C104  C     C_R   0.763203 0.735525 0.555435 -0.137221
H33   H     H_    0.253508 0.804680 0.542672 0.164792
H34   H     H_    0.777453 0.227488 0.395262 0.166801
H35   H     H_    0.746341 0.804734 0.457627 0.164810
H36   H     H_    0.222597 0.227341 0.604641 0.166804
H37   H     H_    0.753539 0.304692 0.542611 0.164793
H38   H     H_    0.277460 0.727511 0.395245 0.166742
H39   H     H_    0.246337 0.304736 0.457636 0.164809
H40   H     H_    0.722596 0.727343 0.604642 0.166777
C105  C     C_R   0.318787 0.780725 0.524634 -0.155676
C106  C     C_R   0.698273 0.237000 0.441161 -0.157117
C107  C     C_R   0.681129 0.780755 0.475529 -0.155615
C108  C     C_R   0.301754 0.236919 0.558784 -0.157177
C109  C     C_R   0.818804 0.280731 0.524601 -0.155555
C110  C     C_R   0.198277 0.737013 0.441153 -0.157247
C111  C     C_R   0.181127 0.280756 0.475534 -0.155613
C112  C     C_R   0.801753 0.736921 0.558785 -0.157187
H41   H     H_    0.326161 0.807530 0.538768 0.168374
H42   H     H_    0.709484 0.229488 0.389772 0.174848
H43   H     H_    0.673687 0.807579 0.461531 0.168287
H44   H     H_    0.290562 0.229340 0.610135 0.174875
H45   H     H_    0.826192 0.307541 0.538707 0.168355
H46   H     H_    0.209491 0.729511 0.389758 0.174692
H47   H     H_    0.173682 0.307581 0.461541 0.168285
H48   H     H_    0.790561 0.729342 0.610137 0.174867
C113  C     C_R   0.351248 0.748383 0.502278 -0.065094
C114  C     C_R   0.646049 0.248827 0.503130 -0.068787
C115  C     C_R   0.648751 0.748384 0.497719 -0.065004
C116  C     C_R   0.353949 0.248828 0.496870 -0.068847
C117  C     C_R   0.851248 0.248384 0.502279 -0.065071
C118  C     C_R   0.146049 0.748826 0.503130 -0.068702
C119  C     C_R   0.148751 0.248384 0.497719 -0.064994
C120  C     C_R   0.853949 0.748828 0.496870 -0.068836
C121  C     C_R   0.341206 0.714051 0.483772 -0.238160
C122  C     C_R   0.632480 0.258657 0.568953 -0.236738
C123  C     C_R   0.658877 0.714025 0.516050 -0.238154
C124  C     C_R   0.367489 0.258745 0.431098 -0.236725
C125  C     C_R   0.841188 0.214045 0.483810 -0.238115
C126  C     C_R   0.132475 0.758643 0.568961 -0.236766
C127  C     C_R   0.158880 0.214024 0.516045 -0.238109
C128  C     C_R   0.867490 0.758743 0.431097 -0.236739
H49   H     H_    0.365638 0.688767 0.468061 0.197138
H50   H     H_    0.591705 0.266978 0.617404 0.200975
H51   H     H_    0.634508 0.688722 0.531628 0.197060
H52   H     H_    0.408240 0.267132 0.382684 0.201039
H53   H     H_    0.865607 0.188757 0.468127 0.197129
H54   H     H_    0.091697 0.766954 0.617418 0.200959
H55   H     H_    0.134512 0.188720 0.531619 0.197056
H56   H     H_    0.908241 0.767130 0.382682 0.201013
C129  C     C_R   0.298181 0.711394 0.489031 0.332951
C130  C     C_R   0.670316 0.255925 0.574097 0.327826
C131  C     C_R   0.701909 0.711373 0.510776 0.332991
C132  C     C_R   0.329657 0.256021 0.425948 0.327794
C133  C     C_R   0.798161 0.211388 0.489073 0.332963
C134  C     C_R   0.170312 0.755910 0.574103 0.327853
C135  C     C_R   0.201912 0.211372 0.510770 0.333003
C136  C     C_R   0.829657 0.756019 0.425947 0.327826
C137  C     C_R   0.266244 0.744534 0.510216 0.019058
C138  C     C_R   0.723378 0.244719 0.510572 0.019172
C139  C     C_R   0.733760 0.744543 0.489768 0.018986
C140  C     C_R   0.276625 0.244725 0.489415 0.019221
C141  C     C_R   0.766243 0.244536 0.510219 0.019035
C142  C     C_R   0.223379 0.744717 0.510570 0.019214
C143  C     C_R   0.233760 0.244543 0.489767 0.018983
C144  C     C_R   0.776625 0.744725 0.489416 0.019230
C145  C     C_R   0.517127 0.541847 0.529126 -0.157015
C146  C     C_R   0.514315 0.458165 0.439834 -0.159520
C147  C     C_R   0.482873 0.541847 0.470874 -0.157036
C148  C     C_R   0.485685 0.458165 0.560166 -0.159492
C149  C     C_R   0.017127 0.041847 0.529126 -0.157040
C150  C     C_R   0.014315 0.958165 0.439834 -0.159481
C151  C     C_R   0.982873 0.041847 0.470874 -0.157020
C152  C     C_R   0.985685 0.958165 0.560166 -0.159528
H57   H     H_    0.531485 0.526843 0.550684 0.146619
H58   H     H_    0.526488 0.473170 0.392080 0.144823
H59   H     H_    0.468515 0.526843 0.449316 0.146612
H60   H     H_    0.473512 0.473170 0.607919 0.144864
H61   H     H_    0.031485 0.026843 0.550684 0.146607
H62   H     H_    0.026488 0.973170 0.392080 0.144874
H63   H     H_    0.968515 0.026843 0.449316 0.146624
H64   H     H_    0.973512 0.973170 0.607919 0.144821
C153  C     C_R   0.516733 0.582072 0.529636 -0.162940
C154  C     C_R   0.513915 0.417940 0.440107 -0.168631
C155  C     C_R   0.483267 0.582072 0.470363 -0.162987
C156  C     C_R   0.486084 0.417940 0.559893 -0.168612
C157  C     C_R   0.016733 0.082072 0.529636 -0.162991
C158  C     C_R   0.013916 0.917940 0.440107 -0.168598
C159  C     C_R   0.983267 0.082072 0.470364 -0.162952
C160  C     C_R   0.986085 0.917940 0.559893 -0.168637
H65   H     H_    0.530242 0.597229 0.552242 0.171416
H66   H     H_    0.525224 0.402787 0.392994 0.169248
H67   H     H_    0.469757 0.597229 0.447757 0.171406
H68   H     H_    0.474776 0.402787 0.607006 0.169273
H69   H     H_    0.030243 0.097229 0.552242 0.171406
H70   H     H_    0.025224 0.902787 0.392994 0.169298
H71   H     H_    0.969757 0.097229 0.447757 0.171417
H72   H     H_    0.974776 0.902787 0.607006 0.169252
C161  C     C_R   0.500000 0.602439 0.500000 -0.015224
C162  C     C_R   0.500000 0.397569 0.500000 -0.012138
C163  C     C_R   0.000000 0.102439 0.500000 -0.015225
C164  C     C_R   1.000000 0.897569 0.500000 -0.012151
C165  C     C_R   0.500000 0.521332 0.500000 0.099876
C166  C     C_R   0.500000 0.478681 0.500000 0.103899
C167  C     C_R   0.000000 0.021332 0.500000 0.099879
C168  C     C_R   0.000000 0.978680 0.500000 0.103891
N1    N     N_R   0.219357 0.197559 0.951288 0.216564
O53   O     O_R   0.174966 0.178394 0.999856 -0.351838
O54   O     O_R   0.248500 0.191802 0.880919 -0.368194
N2    N     N_R   0.780761 0.802341 0.048700 0.219682
O55   O     O_R   0.825181 0.821476 0.000130 -0.340944
O56   O     O_R   0.751632 0.808086 0.119068 -0.356699
N3    N     N_R   0.781029 0.197964 0.048712 0.216539
O57   O     O_R   0.825561 0.178947 0.000144 -0.351899
O58   O     O_R   0.751929 0.192251 0.119081 -0.368229
N4    N     N_R   0.219860 0.802985 0.951303 0.219678
O59   O     O_R   0.175667 0.822355 0.999874 -0.341162
O60   O     O_R   0.249058 0.808802 0.880935 -0.356846
N5    N     N_R   0.719280 0.697639 0.951289 0.216533
O61   O     O_R   0.674863 0.678502 0.999858 -0.351941
O62   O     O_R   0.748414 0.691891 0.880921 -0.368257
N6    N     N_R   0.280685 0.302420 0.048701 0.219708
O63   O     O_R   0.325078 0.321583 0.000131 -0.340879
O64   O     O_R   0.251546 0.308175 0.119069 -0.356661
N7    N     N_R   0.280098 0.696994 0.048708 0.216565
O65   O     O_R   0.324289 0.677622 0.000139 -0.351895
O66   O     O_R   0.250896 0.691176 0.119076 -0.368175
N8    N     N_R   0.718929 0.302015 0.951299 0.219696
O67   O     O_R   0.674396 0.321030 0.999868 -0.340772
O68   O     O_R   0.748026 0.307726 0.880931 -0.356621
N9    N     N_R   0.286659 0.674850 0.474971 0.203413
O69   O     O_R   0.237360 0.664030 0.514154 -0.341399
O70   O     O_R   0.325060 0.650247 0.429243 -0.367623
N10   N     N_R   0.653871 0.263423 0.644205 0.205251
O71   O     O_R   0.673217 0.243111 0.665132 -0.331750
O72   O     O_R   0.614754 0.287297 0.691284 -0.353100
N11   N     N_R   0.713531 0.674808 0.524631 0.203412
O73   O     O_R   0.762859 0.664046 0.485393 -0.341396
O74   O     O_R   0.675198 0.650134 0.570214 -0.367662
N12   N     N_R   0.346076 0.263619 0.355885 0.205218
O75   O     O_R   0.326816 0.243314 0.334827 -0.331740
O76   O     O_R   0.385090 0.287594 0.308965 -0.353108
N13   N     N_R   0.786617 0.174839 0.475058 0.203442
O77   O     O_R   0.737312 0.164036 0.514239 -0.341375
O78   O     O_R   0.825000 0.150214 0.429380 -0.367568
N14   N     N_R   0.153863 0.763392 0.644218 0.205225
O79   O     O_R   0.173215 0.743074 0.665130 -0.331947
O80   O     O_R   0.114737 0.787256 0.691315 -0.353209
N15   N     N_R   0.213536 0.174807 0.524619 0.203418
O81   O     O_R   0.262865 0.164047 0.485381 -0.341402
O82   O     O_R   0.175206 0.150129 0.570194 -0.367628
N16   N     N_R   0.846076 0.763616 0.355884 0.205201
O83   O     O_R   0.826817 0.743310 0.334826 -0.331781
O84   O     O_R   0.885090 0.787590 0.308963 -0.353264

loop_
_geom_bond_atom_site_label_1
_geom_bond_atom_site_label_2
_geom_bond_distance
_ccdc_geom_bond_type
C17   C161  1.465170 S    
C60   C84   1.545802 S    
C136  N16   1.439848 S    
C98   H34   1.083521 S    
Zn8   O10   1.912853 S    
Zn6   O42   1.930705 S    
C150  H62   1.082671 S    
C149  C167  1.404954 A    
C153  H65   1.083217 S    
C150  C168  1.404932 A    
C21   C41   1.465606 S    
N9    O69   1.301398 A    
C23   C43   1.465603 S    
C122  C130  1.400941 A    
C74   N1    1.457066 S    
C148  C166  1.404928 A    
O42   C14   1.277814 A    
C30   C38   1.392309 A    
C58   C77   1.539289 S    
O46   C2    1.278596 A    
O24   C18   1.275764 A    
C106  H42   1.083270 S    
N6    O63   1.300201 A    
C32   C40   1.392309 A    
C54   C74   1.539281 S    
C63   H23   1.110110 S    
Zn16  O28   1.936125 S    
Zn4   O2    1.938899 S    
C147  H59   1.082664 S    
C100  H36   1.083519 S    
C35   C41   1.402188 A    
Zn4   O40   1.930706 S    
C126  C134  1.400935 A    
C34   H10   1.083197 S    
C101  C141  1.403955 A    
O33   C23   1.276893 A    
O11   C7    1.278520 A    
Zn7   O43   1.930706 S    
C62   C86   1.545801 S    
C104  C144  1.403937 A    
O25   C19   1.275713 A    
C39   H15   1.083204 S    
N8    O67   1.300202 A    
C57   C78   1.539276 S    
C54   C85   1.545804 S    
C133  C141  1.416140 A    
C29   C47   1.405004 A    
C71   C95   1.201799 T    
C109  C117  1.398635 A    
C36   H12   1.083179 S    
C63   C76   1.539283 S    
C69   C93   1.201799 T    
Zn12  O24   1.936125 S    
C108  H44   1.083267 S    
Zn13  O17   1.932128 S    
O16   C12   1.276089 A    
C38   C44   1.402203 A    
Zn10  O14   1.932132 S    
C62   H22   1.110112 S    
Zn16  O4    1.936180 S    
C104  H40   1.083517 S    
C22   C42   1.465665 S    
C121  H49   1.083496 S    
C54   H30   1.110115 S    
C8    C70   1.428748 S    
C119  C127  1.402031 A    
C145  C165  1.404954 A    
C58   C82   1.545804 S    
O47   C3    1.278621 A    
Zn7   O3    1.938901 S    
C132  C140  1.416127 A    
C123  C131  1.400875 A    
C72   C96   1.201775 T    
C49   C61   1.561081 S    
O23   C17   1.275714 A    
C113  C121  1.402064 A    
C98   C106  1.390567 A    
Zn8   O34   1.936157 S    
Zn6   O4    1.938904 S    
C75   C83   1.529551 S    
C53   C86   1.545790 S    
C129  C137  1.416117 A    
C76   C84   1.529546 S    
C56   C87   1.545803 S    
C4    C66   1.428746 S    
C12   C114  1.464523 S    
N10   O71   1.301411 A    
C30   H6    1.082648 S    
C32   C48   1.404997 A    
C64   C88   1.545800 S    
C67   C91   1.201798 T    
C68   C92   1.201777 T    
Zn10  O22   1.936125 S    
C50   C62   1.561093 S    
C157  H69   1.083215 S    
C149  H61   1.082662 S    
C137  C142  1.473629 S    
C152  C168  1.404929 A    
C53   H29   1.110118 S    
C146  H58   1.082673 S    
Zn10  O2    1.936185 S    
C52   C83   1.545805 S    
N14   O79   1.301394 A    
C155  H67   1.083216 S    
Zn3   O1    1.938901 S    
C57   C81   1.545811 S    
C156  H68   1.083195 S    
C78   C86   1.529539 S    
C26   H2    1.082649 S    
N5    O61   1.300200 A    
O5    C1    1.278518 A    
Zn5   O35   1.936155 S    
C103  C143  1.403936 A    
C82   C90   1.460168 S    
Zn6   O36   1.936155 S    
C110  H46   1.083272 S    
C19   C163  1.465170 S    
N15   O81   1.301414 A    
C20   C164  1.465353 S    
C74   C82   1.529545 S    
Zn7   O33   1.936157 S    
C26   C46   1.404993 A    
O22   C18   1.275764 A    
C99   C107  1.390580 A    
O14   C10   1.276098 A    
Zn11  O47   1.913904 S    
Zn12  O48   1.913906 S    
O50   C6    1.278596 A    
N2    O55   1.300202 A    
C154  H66   1.083180 S    
C35   H11   1.083202 S    
Zn1   O37   1.930705 S    
C11   C113  1.464634 S    
N4    O60   1.300242 A    
Zn5   O11   1.912852 S    
Zn3   O39   1.930706 S    
Zn6   O12   1.912853 S    
C15   C117  1.464627 S    
C18   C162  1.465353 S    
C13   C119  1.464582 S    
C136  C144  1.416128 A    
C151  H63   1.082665 S    
C75   N4    1.457046 S    
C148  H60   1.082659 S    
O32   C22   1.276907 A    
C103  H39   1.083529 S    
C81   C89   1.460202 S    
C101  H37   1.083564 S    
C27   H3    1.082661 S    
N1    O54   1.300241 A    
C32   H8    1.082663 S    
C127  H55   1.083497 S    
C111  C119  1.398604 A    
O49   C5    1.278619 A    
N7    O66   1.300243 A    
C152  H64   1.082661 S    
C61   C85   1.545810 S    
C16   C118  1.464509 S    
C7    C69   1.428790 S    
Zn4   O6    1.912853 S    
Zn15  O51   1.913904 S    
C145  H57   1.082664 S    
C134  N14   1.439888 S    
C150  C158  1.392177 A    
C52   C64   1.561092 S    
C118  C126  1.402009 A    
C50   H26   1.110114 S    
C34   C42   1.402201 A    
C51   C63   1.561080 S    
C26   C34   1.392309 A    
O51   C7    1.278621 A    
C55   C88   1.545791 S    
C134  C142  1.416152 A    
O8    C4    1.278520 A    
C124  H52   1.083487 S    
C45   C46   1.476446 S    
C117  C125  1.402074 A    
C133  N13   1.439865 S    
C59   H19   1.110112 S    
C86   C94   1.460167 S    
Zn14  O18   1.932132 S    
C56   H32   1.110113 S    
Zn1   O1    1.938902 S    
O40   C12   1.277804 A    
C102  C110  1.390561 A    
C55   H31   1.110115 S    
C29   H5    1.082658 S    
C60   H20   1.110111 S    
Zn16  O20   1.932128 S    
C146  C166  1.404932 A    
C140  C143  1.473644 S    
C129  N9    1.439842 S    
C100  C108  1.390582 A    
O9    C5    1.278518 A    
C147  C165  1.404957 A    
C153  C161  1.402111 A    
Zn3   O5    1.912854 S    
C52   H28   1.110109 S    
C151  C167  1.404957 A    
O13   C9    1.276089 A    
C61   C74   1.539283 S    
C130  C138  1.416145 A    
C76   N3    1.457069 S    
N6    O64   1.300241 A    
N16   O83   1.301394 A    
C3    C65   1.428792 S    
C30   C48   1.404994 A    
O18   C14   1.276098 A    
O6    C2    1.278522 A    
C109  H45   1.083305 S    
C14   C120  1.464552 S    
C97   H33   1.083544 S    
C158  H70   1.083180 S    
C159  C163  1.402114 A    
C138  C141  1.473622 S    
Zn13  O25   1.936125 S    
C33   H9    1.083204 S    
C80   N7    1.457049 S    
Zn15  O3    1.936184 S    
N8    O68   1.300244 A    
C104  C112  1.390581 A    
C121  C129  1.400885 A    
O43   C15   1.277826 A    
Zn5   O3    1.938902 S    
C31   C39   1.392306 A    
C78   N5    1.457054 S    
N12   O76   1.301457 A    
C79   C87   1.529556 S    
C10   C116  1.464557 S    
C77   C85   1.529556 S    
C112  H48   1.083268 S    
C123  H51   1.083495 S    
C97   C137  1.403943 A    
C80   C88   1.529541 S    
O35   C23   1.276893 A    
C105  H41   1.083283 S    
C128  C136  1.400920 A    
C65   C89   1.201798 T    
C84   C92   1.460167 S    
C77   N6    1.457062 S    
N13   O78   1.301491 A    
O29   C21   1.276891 A    
C36   C42   1.402201 A    
C79   N8    1.457064 S    
C73   C81   1.529552 S    
N3    O57   1.300199 A    
Zn9   O1    1.936181 S    
Zn10  O46   1.913903 S    
C25   C45   1.405001 A    
N9    O70   1.301486 A    
C139  C144  1.473646 S    
Zn13  O3    1.936181 S    
C167  C168  1.476096 S    
C126  H54   1.083496 S    
Zn14  O4    1.936185 S    
C51   H27   1.110112 S    
N10   O72   1.301446 A    
C99   H35   1.083531 S    
Zn2   O38   1.930705 S    
C70   C94   1.201777 T    
O19   C15   1.276096 A    
Zn1   O31   1.936155 S    
Zn13  O49   1.913905 S    
C63   C87   1.545813 S    
Zn3   O29   1.936157 S    
C83   C91   1.460198 S    
C59   C83   1.545808 S    
O37   C9    1.277819 A    
C1    C67   1.428792 S    
O7    C3    1.278520 A    
O39   C11   1.277836 A    
N11   O73   1.301415 A    
C122  H50   1.083497 S    
N14   O80   1.301453 A    
C125  H53   1.083502 S    
C127  C135  1.400875 A    
C50   C78   1.539277 S    
C149  C157  1.392171 A    
C54   C58   1.561094 S    
C157  C163  1.402112 A    
Zn9   O45   1.913905 S    
O36   C24   1.276907 A    
C158  C164  1.402152 A    
C25   H1    1.082659 S    
C47   C48   1.476442 S    
O12   C8    1.278520 A    
C97   C105  1.390593 A    
C28   C46   1.404995 A    
C9    C115  1.464582 S    
C145  C153  1.392171 A    
C53   C57   1.561082 S    
Zn11  O1    1.936184 S    
C40   H16   1.083181 S    
N12   O75   1.301392 A    
C156  C162  1.402155 A    
C154  C162  1.402152 A    
C56   C60   1.561091 S    
N15   O82   1.301500 A    
C147  C155  1.392174 A    
O30   C22   1.276906 A    
C103  C111  1.390577 A    
C31   H7    1.082662 S    
Zn7   O9    1.912854 S    
Zn5   O41   1.930705 S    
Zn2   O32   1.936155 S    
C58   H18   1.110111 S    
N7    O65   1.300204 A    
C151  C159  1.392174 A    
Zn8   O44   1.930706 S    
C49   C77   1.539278 S    
N2    O56   1.300240 A    
C135  C143  1.416119 A    
Zn15  O27   1.936125 S    
C165  C166  1.476096 S    
C27   C45   1.405003 A    
C135  N15   1.439804 S    
C64   H24   1.110114 S    
C111  H47   1.083267 S    
O38   C10   1.277812 A    
Zn2   O2    1.938904 S    
C55   C75   1.539275 S    
C57   H17   1.110105 S    
Zn4   O30   1.936157 S    
N1    O53   1.300199 A    
C53   C73   1.539273 S    
C28   C36   1.392309 A    
Zn8   O4    1.938899 S    
C125  C133  1.400896 A    
C107  C115  1.398605 A    
O21   C17   1.275713 A    
O52   C8    1.278596 A    
C2    C68   1.428746 S    
C99   C139  1.403933 A    
C100  C140  1.403937 A    
C62   C73   1.539285 S    
C39   C43   1.402191 A    
C115  C123  1.402032 A    
C124  C132  1.400921 A    
C108  C116  1.398598 A    
C130  N10   1.439874 S    
N5    O62   1.300240 A    
Zn16  O52   1.913906 S    
C5    C71   1.428790 S    
C25   C33   1.392309 A    
C49   H25   1.110115 S    
C56   C76   1.539279 S    
Zn14  O26   1.936125 S    
C61   H21   1.110108 S    
Zn11  O15   1.932131 S    
Zn12  O16   1.932128 S    
O31   C21   1.276891 A    
C55   C59   1.561080 S    
C51   C84   1.545792 S    
C102  H38   1.083523 S    
C24   C44   1.465662 S    
Zn15  O19   1.932131 S    
C52   C80   1.539278 S    
C146  C154  1.392177 A    
N3    O58   1.300246 A    
C64   C75   1.539286 S    
C110  C118  1.398566 A    
C98   C138  1.403932 A    
C101  C109  1.390592 A    
C73   N2    1.457051 S    
C132  N12   1.439848 S    
C66   C90   1.201777 T    
C152  C160  1.392181 A    
N4    O59   1.300204 A    
C60   C79   1.539293 S    
Zn9   O21   1.936125 S    
Zn14  O50   1.913903 S    
C37   H13   1.083206 S    
C59   C80   1.539278 S    
Zn11  O23   1.936125 S    
C155  C161  1.402114 A    
C105  C113  1.398634 A    
C33   C41   1.402185 A    
N11   O74   1.301499 A    
Zn1   O7    1.912852 S    
N16   O84   1.301456 A    
Zn2   O8    1.912853 S    
O41   C13   1.277819 A    
C114  C122  1.402009 A    
O26   C20   1.275766 A    
C50   C81   1.545805 S    
C29   C37   1.392306 A    
C159  H71   1.083216 S    
O45   C1    1.278621 A    
C102  C142  1.403936 A    
O34   C24   1.276906 A    
C128  H56   1.083488 S    
C87   C95   1.460202 S    
C6    C72   1.428748 S    
C112  C120  1.398599 A    
C85   C93   1.460204 S    
C107  H43   1.083267 S    
O15   C11   1.276096 A    
C37   C43   1.402185 A    
Zn9   O13   1.932128 S    
C148  C156  1.392181 A    
C131  N11   1.439805 S    
C31   C47   1.405000 A    
O27   C19   1.275714 A    
C120  C128  1.402026 A    
C28   H4    1.082662 S    
C51   C79   1.539275 S    
C27   C35   1.392306 A    
O44   C16   1.277797 A    
C131  C139  1.416122 A    
O20   C16   1.276084 A    
O10   C6    1.278522 A    
C160  C164  1.402155 A    
O48   C4    1.278596 A    
C160  H72   1.083195 S    
C38   H14   1.083195 S    
C49   C82   1.545789 S    
C88   C96   1.460165 S    
C40   C44   1.402201 A    
Zn12  O2    1.936180 S    
C116  C124  1.402027 A    
N13   O77   1.301401 A    
O28   C20   1.275762 A    
O17   C13   1.276089 A    
C106  C114  1.398570 A    
