data_mof_unit_15653.cif
_audit_creation_date              2012-10-26T21:33:18-0400
_audit_creation_method            fapswitch 2.2
_symmetry_space_group_name_H-M    P1
_symmetry_Int_Tables_number       1
_space_group_crystal_system       triclinic
_cell_length_a                    28.159834
_cell_length_b                    18.404818
_cell_length_c                    17.033239
_cell_angle_alpha                 90.000327
_cell_angle_beta                  60.984031
_cell_angle_gamma                 90.000173
_cell_volume                      7719.88799297

loop_
_atom_site_label
_atom_site_type_symbol
_atom_type_description
_atom_site_fract_x
_atom_site_fract_y
_atom_site_fract_z
_atom_type_partial_charge
Br1   Br    Br    0.047793 0.208548 0.528262 -0.264308
Br2   Br    Br    0.313738 0.888526 0.033541 -0.325683
Br3   Br    Br    0.314005 0.111553 0.033057 -0.325833
Br4   Br    Br    0.685980 0.888444 0.966985 -0.325782
Br5   Br    Br    0.186253 0.611467 0.966468 -0.325681
Br6   Br    Br    0.815005 0.388122 0.031337 -0.326310
Br7   Br    Br    0.814020 0.611555 0.033015 -0.325780
Br8   Br    Br    0.185995 0.388448 0.966944 -0.325829
Br9   Br    Br    0.607694 0.330860 0.080936 -0.361993
Br10  Br    Br    0.392576 0.669539 0.918962 -0.362337
Br11  Br    Br    0.392484 0.330597 0.918989 -0.362286
Br12  Br    Br    0.952204 0.791452 0.471746 -0.264287
Br13  Br    Br    0.607519 0.669398 0.081009 -0.362225
Br14  Br    Br    0.107401 0.830424 0.081057 -0.362322
Br15  Br    Br    0.892309 0.169144 0.919064 -0.361997
Br16  Br    Br    0.892482 0.830601 0.918991 -0.362226
Br17  Br    Br    0.107515 0.169403 0.081011 -0.362291
Br18  Br    Br    0.952209 0.208548 0.471732 -0.264325
Br19  Br    Br    0.047788 0.791452 0.528277 -0.264280
Br20  Br    Br    0.547796 0.708548 0.528253 -0.264290
Br21  Br    Br    0.452206 0.291452 0.471738 -0.264307
Br22  Br    Br    0.452212 0.708548 0.471722 -0.264279
Br23  Br    Br    0.547790 0.291452 0.528268 -0.264325
Br24  Br    Br    0.684996 0.111880 0.968663 -0.326313
C1    C     C_R   0.702318 0.269720 0.675849 0.923295
C2    C     C_R   0.083779 0.500000 0.546010 -0.086269
C3    C     C_R   0.187875 0.221974 0.908315 -0.085598
C4    C     C_R   0.072531 0.101834 0.935800 0.937011
C5    C     C_R   0.927468 0.898167 0.064200 0.936926
C6    C     C_R   0.927450 0.101815 0.064215 0.936958
C7    C     C_R   0.072517 0.898150 0.935812 0.936957
C8    C     C_R   0.572532 0.601833 0.935799 0.936927
C9    C     C_R   0.427469 0.398166 0.064200 0.937008
C10   C     C_R   0.427481 0.601846 0.064190 0.936966
C11   C     C_R   0.572551 0.398186 0.935784 0.936955
C12   C     C_R   0.538157 0.132629 0.531687 -0.165988
C13   C     C_R   0.416221 0.000000 0.453990 -0.086270
C14   C     C_R   0.461845 0.867370 0.468305 -0.165971
C15   C     C_R   0.461843 0.132630 0.468311 -0.165969
C16   C     C_R   0.538159 0.867370 0.531682 -0.165978
C17   C     C_R   0.038155 0.632629 0.531695 -0.165972
C18   C     C_R   0.961843 0.367370 0.468312 -0.165988
C19   C     C_R   0.961841 0.632630 0.468318 -0.165978
C20   C     C_R   0.038157 0.367370 0.531689 -0.165969
C21   C     C_R   0.518846 0.199225 0.516093 0.269698
C22   C     C_R   0.481156 0.800775 0.483898 0.269716
C23   C     C_R   0.481153 0.199225 0.483907 0.269704
C24   C     C_R   0.583780 1.000000 0.546004 -0.086283
C25   C     C_R   0.518849 0.800775 0.516084 0.269713
C26   C     C_R   0.018844 0.699225 0.516101 0.269715
C27   C     C_R   0.981154 0.300775 0.483907 0.269698
C28   C     C_R   0.981151 0.699225 0.483915 0.269715
C29   C     C_R   0.018847 0.300775 0.516093 0.269705
C30   C     C_R   0.480162 0.066467 0.486036 -0.025621
C31   C     C_R   0.519841 0.933533 0.513955 -0.025631
C32   C     C_R   0.519840 0.066466 0.513959 -0.025631
C33   C     C_R   0.480163 0.933533 0.486033 -0.025624
C34   C     C_R   0.980159 0.566467 0.486044 -0.025631
C35   C     C_R   0.075806 0.369921 0.563814 0.666131
C36   C     C_R   0.019839 0.433533 0.513964 -0.025622
C37   C     C_R   0.019837 0.566466 0.513967 -0.025624
C38   C     C_R   0.980160 0.433533 0.486041 -0.025630
C39   C     C_R   0.959698 0.500000 0.473499 0.027394
C40   C     C_R   0.040299 0.500000 0.526509 0.027413
C41   C     C_R   0.459701 0.000000 0.473491 0.027413
C42   C     C_R   0.540302 1.000000 0.526501 0.027393
C43   C     C_R   0.894503 0.434011 0.444166 -0.047843
C44   C     C_R   0.105496 0.565989 0.555839 -0.047831
C45   C     C_R   0.105496 0.434011 0.555838 -0.047829
C46   C     C_R   0.924193 0.630079 0.436192 0.666102
C47   C     C_R   0.894503 0.565989 0.444167 -0.047835
C48   C     C_R   0.394504 0.934011 0.444161 -0.047830
C49   C     C_R   0.605497 0.065989 0.555834 -0.047844
C50   C     C_R   0.605497 0.934011 0.555833 -0.047835
C51   C     C_R   0.394504 0.065989 0.444162 -0.047829
C52   C     C_R   0.843882 0.434846 0.443227 -0.073315
C53   C     C_R   0.156118 0.565154 0.556775 -0.073310
C54   C     C_R   0.156118 0.434846 0.556776 -0.073310
C55   C     C_R   0.843882 0.565154 0.443226 -0.073311
C56   C     C_R   0.343882 0.934846 0.443224 -0.073310
C57   C     C_R   0.924194 0.369921 0.436188 0.666093
C58   C     C_R   0.656118 0.065154 0.556773 -0.073315
C59   C     C_R   0.656118 0.934846 0.556774 -0.073311
C60   C     C_R   0.343882 0.065154 0.443224 -0.073311
C61   C     C_R   0.821025 0.500000 0.438895 -0.263096
C62   C     C_R   0.178975 0.500000 0.561106 -0.263060
C63   C     C_R   0.321025 1.000000 0.438894 -0.263060
C64   C     C_R   0.678975 0.000000 0.561105 -0.263097
C65   C     C_R   0.075805 0.630079 0.563818 0.666126
C66   C     C_R   0.575807 0.869921 0.563808 0.666100
C67   C     C_R   0.424194 0.130079 0.436186 0.666131
C68   C     C_R   0.424195 0.869921 0.436181 0.666126
C69   C     C_R   0.297669 0.730246 0.324157 0.923350
C70   C     C_R   0.575806 0.130079 0.563812 0.666093
C71   C     C_R   0.720320 0.262324 0.954013 0.069235
C72   C     C_R   0.279726 0.737653 0.045912 0.068657
C73   C     C_R   0.279717 0.262328 0.045930 0.068775
C74   C     C_R   0.720282 0.737677 0.954070 0.068773
C75   C     C_R   0.220266 0.762339 0.954097 0.068655
C76   C     C_R   0.779681 0.237678 0.045986 0.069236
C77   C     C_R   0.779718 0.762323 0.045930 0.068772
C78   C     C_R   0.220282 0.237672 0.954071 0.068774
C79   C     C_R   0.722621 0.192256 0.985091 0.364614
C80   C     C_R   0.297674 0.269740 0.324154 0.923331
C81   C     C_R   0.276837 0.807898 0.015864 0.365167
C82   C     C_R   0.276951 0.192128 0.015657 0.365093
C83   C     C_R   0.723041 0.807871 0.984361 0.365046
C84   C     C_R   0.223154 0.692095 0.984145 0.365165
C85   C     C_R   0.777380 0.307746 0.014908 0.364616
C86   C     C_R   0.776959 0.692129 0.015638 0.365046
C87   C     C_R   0.223048 0.307873 0.984343 0.365093
C88   C     C_R   0.752103 0.180418 0.030690 -0.215075
C89   C     C_R   0.247317 0.819750 0.970333 -0.215550
C90   C     C_R   0.247440 0.180288 0.970109 -0.215482
C91   C     C_R   0.702325 0.730261 0.675847 0.923327
C92   C     C_R   0.752553 0.819705 0.029910 -0.215447
C93   C     C_R   0.252675 0.680243 0.029676 -0.215544
C94   C     C_R   0.747898 0.319585 0.969309 -0.215074
C95   C     C_R   0.747447 0.680295 0.970090 -0.215447
C96   C     C_R   0.252560 0.319712 0.029892 -0.215481
C97   C     C_R   0.639212 0.317199 0.952326 0.205884
C98   C     C_R   0.360873 0.682905 0.047627 0.205541
C99   C     C_R   0.360850 0.317121 0.047636 0.205590
C100  C     C_R   0.639150 0.682881 0.952364 0.205618
C101  C     C_R   0.139117 0.817081 0.952382 0.205550
C102  C     C_R   0.202332 0.769755 0.675843 0.923352
C103  C     C_R   0.860789 0.182804 0.047674 0.205883
C104  C     C_R   0.860850 0.817119 0.047636 0.205618
C105  C     C_R   0.139150 0.182879 0.952364 0.205589
C106  C     C_R   0.614289 0.342989 0.902056 -0.146210
C107  C     C_R   0.385757 0.657062 0.097924 -0.146115
C108  C     C_R   0.385743 0.342953 0.097929 -0.146156
C109  C     C_R   0.614257 0.657048 0.902072 -0.146141
C110  C     C_R   0.114238 0.842932 0.902080 -0.146119
C111  C     C_R   0.885712 0.157012 0.097944 -0.146209
C112  C     C_R   0.885743 0.842952 0.097928 -0.146140
C113  C     C_R   0.797682 0.230279 0.324151 0.923296
C114  C     C_R   0.114256 0.157048 0.902071 -0.146157
C115  C     C_R   0.633375 0.322004 0.814302 -0.340089
C116  C     C_R   0.366633 0.677989 0.185704 -0.340071
C117  C     C_R   0.366632 0.322006 0.185701 -0.340084
C118  C     C_R   0.633368 0.677996 0.814299 -0.340074
C119  C     C_R   0.133366 0.822010 0.814296 -0.340061
C120  C     C_R   0.866625 0.177995 0.185698 -0.340090
C121  C     C_R   0.866632 0.822004 0.185700 -0.340071
C122  C     C_R   0.133368 0.177994 0.814299 -0.340082
C123  C     C_R   0.680189 0.281990 0.771353 -0.198475
C124  C     C_R   0.797675 0.769739 0.324153 0.923327
C125  C     C_R   0.319797 0.717956 0.228657 -0.198474
C126  C     C_R   0.319805 0.282019 0.228651 -0.198473
C127  C     C_R   0.680193 0.717985 0.771350 -0.198485
C128  C     C_R   0.180203 0.782044 0.771343 -0.198479
C129  C     C_R   0.819812 0.218010 0.228647 -0.198474
C130  C     C_R   0.819807 0.782014 0.228650 -0.198486
C131  C     C_R   0.180194 0.217982 0.771349 -0.198473
C132  C     C_R   0.708257 0.260052 0.817814 0.629379
C133  C     C_R   0.291721 0.739847 0.182193 0.629513
C134  C     C_R   0.291735 0.260104 0.182185 0.629500
C135  C     C_R   0.202326 0.230260 0.675846 0.923331
C136  C     C_R   0.708261 0.739903 0.817817 0.629473
C137  C     C_R   0.208278 0.760153 0.817808 0.629505
C138  C     C_R   0.791744 0.239949 0.182185 0.629380
C139  C     C_R   0.791739 0.760096 0.182183 0.629472
C140  C     C_R   0.208264 0.239896 0.817815 0.629500
C141  C     C_R   0.691131 0.129321 0.535179 0.887797
C142  C     C_R   0.308869 0.870679 0.464820 0.887818
C143  C     C_R   0.308870 0.129321 0.464819 0.887812
C144  C     C_R   0.691130 0.870679 0.535180 0.887809
C145  C     C_R   0.191131 0.629321 0.535180 0.887820
C146  C     C_R   0.916220 0.500000 0.453996 -0.086283
C147  C     C_R   0.808869 0.370679 0.464821 0.887798
C148  C     C_R   0.808870 0.629321 0.464819 0.887809
C149  C     C_R   0.191130 0.370679 0.535181 0.887811
C150  C     C_R   0.687907 0.278042 0.908280 -0.085710
C151  C     C_R   0.312128 0.721956 0.091681 -0.085577
C152  C     C_R   0.312125 0.278027 0.091685 -0.085599
C153  C     C_R   0.687873 0.721980 0.908316 -0.085595
C154  C     C_R   0.187866 0.778036 0.908326 -0.085579
C155  C     C_R   0.812094 0.221960 0.091719 -0.085705
C156  C     C_R   0.812127 0.778019 0.091683 -0.085595
F1    F     F_    0.077344 0.314596 0.615314 -0.604350
F2    F     F_    0.243842 0.776445 0.224673 -0.605692
F3    F     F_    0.243877 0.223454 0.224652 -0.605661
F4    F     F_    0.756118 0.776557 0.775351 -0.605684
F5    F     F_    0.256160 0.723561 0.775326 -0.605691
F6    F     F_    0.743931 0.276702 0.224618 -0.605682
F7    F     F_    0.743882 0.723442 0.224649 -0.605683
F8    F     F_    0.256123 0.276547 0.775348 -0.605661
F9    F     F_    0.922656 0.685404 0.384690 -0.604350
F10   F     F_    0.922656 0.314596 0.384686 -0.604355
F11   F     F_    0.077344 0.685404 0.615318 -0.604349
F12   F     F_    0.577344 0.814596 0.615310 -0.604353
F13   F     F_    0.422656 0.185404 0.384686 -0.604351
F14   F     F_    0.422656 0.814596 0.384681 -0.604350
F15   F     F_    0.577343 0.185403 0.615314 -0.604356
F16   F     F_    0.756071 0.223299 0.775380 -0.605680
H1    H     H_    0.782243 0.499999 0.439845 0.203527
H2    H     H_    0.753680 0.126234 0.054217 0.184995
H3    H     H_    0.754469 0.873981 0.052849 0.185304
H4    H     H_    0.245519 0.126007 0.947184 0.185279
H5    H     H_    0.613363 0.340700 0.777324 0.233838
H6    H     H_    0.386637 0.659287 0.222692 0.233845
H7    H     H_    0.386636 0.340711 0.222688 0.233832
H8    H     H_    0.613365 0.659289 0.777312 0.233845
H9    H     H_    0.113363 0.840715 0.777306 0.233844
H10   H     H_    0.886636 0.159299 0.222677 0.233839
H11   H     H_    0.886635 0.840711 0.222688 0.233846
H12   H     H_    0.217757 0.500000 0.560154 0.203534
H13   H     H_    0.113364 0.159289 0.777312 0.233832
H14   H     H_    0.282243 1.000000 0.439846 0.203534
H15   H     H_    0.717757 0.000000 0.560155 0.203527
H16   H     H_    0.746322 0.373768 0.945782 0.184995
H17   H     H_    0.254685 0.625929 0.052431 0.185359
H18   H     H_    0.254480 0.373993 0.052816 0.185279
H19   H     H_    0.745532 0.626019 0.947151 0.185304
H20   H     H_    0.245306 0.874065 0.947578 0.185354
O1    O     O_R   0.746490 0.236330 0.638080 -0.555664
O2    O     O_R   0.325830 0.813840 0.483730 -0.567989
O3    O     O_R   0.325830 0.186160 0.483730 -0.567999
O4    O     O_R   0.674170 0.813840 0.516270 -0.567991
O5    O     O_R   0.174170 0.686160 0.516270 -0.567989
O6    O     O_R   0.825830 0.313840 0.483730 -0.568008
O7    O     O_R   0.825830 0.686160 0.483730 -0.567991
O8    O     O_R   0.174170 0.313840 0.516270 -0.567999
O9    O     O_R   0.739960 0.127620 0.525000 -0.636517
O10   O     O_R   0.260040 0.872380 0.475000 -0.636535
O11   O     O_R   0.260040 0.127620 0.475000 -0.636524
O12   O     O_R   0.253510 0.763670 0.361920 -0.555580
O13   O     O_R   0.739960 0.872380 0.525000 -0.636531
O14   O     O_R   0.239960 0.627620 0.525000 -0.636535
O15   O     O_R   0.760040 0.372380 0.475000 -0.636517
O16   O     O_R   0.760040 0.627620 0.475000 -0.636531
O17   O     O_R   0.239960 0.372380 0.525000 -0.636524
O18   O     O_R   0.680700 0.294870 0.629350 -0.608190
O19   O     O_R   0.319300 0.705130 0.370650 -0.608224
O20   O     O_R   0.319300 0.294870 0.370650 -0.608218
O21   O     O_R   0.680700 0.705130 0.629350 -0.608213
O22   O     O_R   0.180700 0.794870 0.629350 -0.608225
O23   O     O_R   0.253510 0.236330 0.361920 -0.555598
O24   O     O_R   0.819300 0.205130 0.370650 -0.608190
O25   O     O_R   0.819300 0.794870 0.370650 -0.608212
O26   O     O_R   0.180700 0.205130 0.629350 -0.608218
O27   O     O_R   0.062020 0.072840 0.007170 -0.574121
O28   O     O_R   0.937980 0.927160 0.992830 -0.574115
O29   O     O_R   0.937980 0.072840 0.992830 -0.574095
O30   O     O_R   0.062020 0.927160 0.007170 -0.574147
O31   O     O_R   0.562020 0.572840 0.007170 -0.574114
O32   O     O_R   0.437980 0.427160 0.992830 -0.574119
O33   O     O_R   0.437980 0.572840 0.992830 -0.574141
O34   O     O_R   0.746490 0.763670 0.638080 -0.555607
O35   O     O_R   0.562020 0.427160 0.007170 -0.574094
O36   O     O_R   0.947860 0.073950 0.109290 -0.620930
O37   O     O_R   0.052140 0.926050 0.890710 -0.620940
O38   O     O_R   0.052140 0.073950 0.890710 -0.620941
O39   O     O_R   0.947860 0.926050 0.109290 -0.620945
O40   O     O_R   0.447860 0.573950 0.109290 -0.620943
O41   O     O_R   0.552140 0.426050 0.890710 -0.620930
O42   O     O_R   0.552140 0.573950 0.890710 -0.620946
O43   O     O_R   0.447860 0.426050 0.109290 -0.620942
O44   O     O_R   0.246490 0.736330 0.638080 -0.555578
O45   O     O_R   0.753510 0.263670 0.361920 -0.555664
O46   O     O_R   0.753510 0.736330 0.361920 -0.555607
O47   O     O_R   0.246490 0.263670 0.638080 -0.555598
O48   O     O_R   0.674170 0.186160 0.516270 -0.568008
Zn1   Zn    Zn3+2 0.792340 0.208750 0.507670 1.151918
Zn2   Zn    Zn3+2 0.494040 0.500000 0.919480 1.119196
Zn3   Zn    Zn3+2 0.005960 0.000000 0.080520 1.119191
Zn4   Zn    Zn3+2 0.994040 1.000000 0.919480 1.119250
Zn5   Zn    Zn3+2 0.207660 0.791250 0.492330 1.151981
Zn6   Zn    Zn3+2 0.207660 0.208750 0.492330 1.151972
Zn7   Zn    Zn3+2 0.792340 0.791250 0.507670 1.151955
Zn8   Zn    Zn3+2 0.292340 0.708750 0.507670 1.151981
Zn9   Zn    Zn3+2 0.707660 0.291250 0.492330 1.151917
Zn10  Zn    Zn3+2 0.707660 0.708750 0.492330 1.151955
Zn11  Zn    Zn3+2 0.292340 0.291250 0.507670 1.151973
Zn12  Zn    Zn3+2 0.505960 0.500000 0.080520 1.119251

loop_
_geom_bond_atom_site_label_1
_geom_bond_atom_site_label_2
_ccdc_geom_bond_type
C101  C110  A    
C55   C148  S    
C80   O23   A    
C17   C65   A    
C72   C81   A    
C95   H19   S    
Br23  C21   S    
C6    O29   A    
C99   C108  A    
O22   Zn5   S    
C11   O35   A    
C11   O41   A    
C69   C125  S    
O21   Zn10  S    
Br19  C26   S    
C60   C63   A    
C17   C37   A    
C97   C106  A    
C122  H13   S    
C47   C55   A    
C99   C152  A    
C148  O16   A    
O28   Zn4   S    
C74   C95   A    
C91   O34   A    
C66   F12   S    
C43   C146  A    
C69   O19   A    
C75   C84   A    
C22   C25   A    
O38   Zn4   S    
C109  C118  A    
Br20  C25   S    
Br14  C101  S    
O39   Zn3   S    
C100  C109  A    
C82   C90   A    
C12   C32   A    
C49   C70   A    
C139  F7    S    
C132  F16   S    
C71   C150  S    
C4    O38   A    
C19   C28   A    
C56   C63   A    
C68   F14   S    
O12   Zn5   S    
C104  C112  A    
O10   Zn5   S    
C8    C109  S    
C48   C68   A    
C127  C136  A    
C102  C128  S    
C51   C60   A    
C26   C28   A    
C15   C30   A    
O32   Zn2   S    
C20   C35   A    
C96   H18   S    
C16   C25   A    
O17   Zn11  S    
C14   C68   A    
C44   C53   A    
C145  O14   A    
O15   Zn9   S    
C9    O32   A    
C36   C38   A    
C10   C107  S    
C80   C126  S    
C120  C129  A    
C35   F1    S    
C2    C40   A    
C131  C140  A    
C137  F5    S    
C107  C116  A    
O36   Zn3   S    
C19   C34   A    
C117  H7    S    
C144  O13   A    
C1    O1    A    
C20   C29   A    
C88   H2    S    
C145  O5    A    
C105  C114  A    
C71   C79   A    
C64   H15   S    
C13   C41   A    
C85   C94   A    
C54   C149  S    
Br9   C97   S    
C32   C42   A    
C7    O30   A    
C46   C47   A    
C104  C156  A    
C4    O27   A    
C134  F3    S    
C18   C38   A    
C135  O26   A    
C112  C121  A    
C51   C67   A    
C18   C27   A    
C16   C31   A    
C54   C62   A    
C34   C37   A    
C59   C64   A    
C110  C119  A    
O40   Zn12  S    
C76   C85   A    
C71   C94   A    
C67   F13   S    
C90   H4    S    
O3    Zn11  S    
Br1   C29   S    
C113  O24   A    
C45   C54   A    
C18   C57   A    
C124  C130  S    
O34   Zn7   S    
C7    C110  S    
C106  C115  A    
O24   Zn1   S    
C56   C142  S    
Br12  C28   S    
C149  O17   A    
C117  C126  A    
C120  H10   S    
C21   C23   A    
Br3   C82   S    
C148  O7    A    
O46   Zn10  S    
Br4   C83   S    
C30   C32   A    
C30   C41   A    
C47   C146  A    
C14   C22   A    
C75   C89   A    
C122  C131  A    
C8    O31   A    
Br17  C105  S    
C70   F15   S    
C50   C59   A    
O16   Zn10  S    
C130  C139  A    
C12   C21   A    
C4    C114  S    
O35   Zn12  S    
C75   C154  S    
C115  H5    S    
Br8   C87   S    
C62   H12   S    
C91   O21   A    
C92   H3    S    
C7    O37   A    
C39   C146  A    
C2    C45   A    
Br10  C98   S    
C77   C86   A    
C55   C61   A    
C15   C23   A    
O4    Zn10  S    
O9    Zn1   S    
O2    Zn8   S    
C74   C83   A    
O25   Zn7   S    
C10   O40   A    
C87   C96   A    
C27   C29   A    
C118  H8    S    
O33   Zn2   S    
O44   Zn8   S    
C37   C40   A    
C93   H17   S    
O7    Zn7   S    
C38   C39   A    
C78   C90   A    
C24   C50   A    
C3    C140  A    
C14   C33   A    
O42   Zn2   S    
C149  O8    A    
C72   C93   A    
O11   Zn6   S    
C143  O11   A    
C97   C150  A    
C124  O46   A    
C142  O10   A    
C94   H16   S    
C132  C150  A    
C136  C153  A    
C9    O43   A    
Br5   C84   S    
C141  O9    A    
C44   C65   A    
C65   F11   S    
C141  O48   A    
C113  C129  S    
O43   Zn12  S    
C1    C123  S    
C144  O4    A    
C74   C153  S    
C78   C87   A    
C123  C132  A    
Br16  C104  S    
C11   C106  S    
C138  C155  A    
C131  C135  S    
C35   C45   A    
C121  C130  A    
C115  C123  A    
C52   C147  S    
C134  C152  A    
C111  C120  A    
Br22  C22   S    
C3    C78   S    
C133  C151  A    
C53   C62   A    
C76   C88   A    
C19   C46   A    
O1    Zn1   S    
C31   C33   A    
C124  O25   A    
C3    C105  A    
C63   H14   S    
O29   Zn4   S    
C100  C153  A    
C73   C82   A    
O31   Zn12  S    
O30   Zn3   S    
C102  O22   A    
O26   Zn6   S    
C17   C26   A    
C121  H11   S    
C147  O6    A    
O5    Zn5   S    
C9    C108  S    
C138  F6    S    
O37   Zn4   S    
C61   H1    S    
C108  C117  A    
O6    Zn1   S    
C147  O15   A    
C142  O2    A    
C72   C151  S    
C119  C128  A    
C126  C134  A    
O23   Zn6   S    
C24   C49   A    
C15   C67   A    
Br11  C99   S    
O41   Zn2   S    
C128  C137  A    
C33   C41   A    
C140  F8    S    
C81   C89   A    
C86   C95   A    
C1    O18   A    
C43   C57   A    
C43   C52   A    
Br18  C27   S    
C118  C127  A    
C59   C144  S    
Br2   C81   S    
O47   Zn11  S    
O48   Zn9   S    
Br7   C86   S    
C102  O44   A    
C129  C138  A    
C36   C40   A    
Br24  C79   S    
C16   C66   A    
C57   F10   S    
O20   Zn11  S    
C73   C96   A    
C8    O42   A    
O19   Zn8   S    
C52   C61   A    
C2    C44   A    
C48   C56   A    
C77   C156  S    
O27   Zn3   S    
O13   Zn7   S    
C69   O12   A    
C50   C66   A    
C98   C107  A    
C119  H9    S    
O14   Zn8   S    
C20   C36   A    
C58   C64   A    
C53   C145  S    
C84   C93   A    
Br6   C85   S    
C5    O28   A    
C6    O36   A    
C49   C58   A    
Br13  C100  S    
C10   O33   A    
O18   Zn9   S    
C5    O39   A    
C13   C51   A    
C103  C111  A    
C60   C143  S    
C83   C92   A    
C103  C155  A    
O8    Zn6   S    
C12   C70   A    
C114  C122  A    
C80   O20   A    
C5    C112  S    
O45   Zn9   S    
C143  O3    A    
C101  C154  A    
C135  O47   A    
C6    C111  S    
C133  F2    S    
C13   C48   A    
C91   C127  S    
C139  C156  A    
C73   C152  S    
C77   C92   A    
C79   C88   A    
Br15  C103  S    
C116  H6    S    
C89   H20   S    
C24   C42   A    
C137  C154  A    
C76   C155  S    
C125  C133  A    
C116  C125  A    
C136  F4    S    
C98   C151  A    
C46   F9    S    
C34   C39   A    
C31   C42   A    
Br21  C23   S    
C58   C141  S    
C113  O45   A    
