data_mof_unit_67888.cif
_audit_creation_date              2013-03-05T15:44:41-0500
_audit_creation_method            fapswitch 2.2
_symmetry_space_group_name_H-M    P1
_symmetry_Int_Tables_number       1
_space_group_crystal_system       triclinic
_cell_length_a                    10.668399
_cell_length_b                    10.89505
_cell_length_c                    10.202286
_cell_angle_alpha                 88.670088
_cell_angle_beta                  90.797057
_cell_angle_gamma                 89.680334
_cell_volume                      1185.38485766

loop_
_atom_site_label
_atom_site_type_symbol
_atom_site_description
_atom_site_fract_x
_atom_site_fract_y
_atom_site_fract_z
_atom_type_partial_charge
O1    O     O_R   0.499980 0.319060 0.613040 -0.530241
O2    O     O_R   0.500020 0.319100 0.386900 -0.709564
C1    C     C_R   0.503861 0.263776 0.501376 0.817712
O3    O     O_R   0.313930 0.499950 0.613050 -0.591484
O4    O     O_R   0.313970 0.499990 0.386910 -0.609065
C2    C     C_R   0.258452 0.504261 0.498806 1.002321
Zn1   Zn    Zn3+2 0.499970 0.499970 0.650990 1.121912
Zn2   Zn    Zn3+2 0.500030 0.500030 0.349010 1.076990
O5    O     O_R   0.499980 0.680900 0.613100 -0.642240
O6    O     O_R   0.500020 0.680940 0.386960 -0.537000
O7    O     O_R   0.686030 0.500010 0.613090 -0.562080
O8    O     O_R   0.686070 0.500050 0.386950 -0.567998
C3    C     C_R   0.490274 0.736679 0.499157 0.861727
C4    C     C_R   0.741640 0.495455 0.501354 1.000740
C5    C     C_3   0.049348 0.400672 0.564496 0.081911
C6    C     C_3   0.961795 0.395646 0.442443 0.289560
C7    C     C_3   0.876084 0.492718 0.504684 -0.363300
C8    C     C_3   0.963897 0.497343 0.626324 0.173200
C9    C     C_3   0.038396 0.600229 0.559079 0.166091
C10   C     C_3   0.951585 0.595618 0.438795 0.207255
C11   C     C_3   0.035747 0.500340 0.376095 0.177289
C12   C     C_3   0.124200 0.504779 0.496655 -0.411663
C13   C     C_2   0.495307 0.939496 0.396966 0.438831
C14   C     C_2   0.457685 0.867142 0.497252 0.307739
C15   C     C_2   0.468537 0.070395 0.404610 -0.299937
C16   C     C_2   0.518881 0.132660 0.503381 0.353940
H1    H     H_    0.418704 0.116092 0.323677 0.105902
C17   C     C_2   0.555996 0.582604 0.925545 0.297360
N1    N     N_2   0.501360 0.501330 0.852150 -0.051027
C18   C     C_2   0.577196 0.562616 0.072190 0.408282
N2    N     N_2   0.501400 0.501360 0.147810 -0.009261
O9    O     O_3   0.915485 0.293104 0.375210 -0.618774
C19   C     C_3   0.011498 0.204292 0.365664 0.157706
H2    H     H_    0.015940 0.149698 0.458626 0.188068
H3    H     H_    0.104819 0.245972 0.345289 0.142996
C20   C     C_3   0.981935 0.117607 0.254589 -0.430119
H4    H     H_    0.881849 0.093011 0.257078 0.232926
H5    H     H_    0.000495 0.164239 0.158931 0.248986
C21   C     C_3   0.059582 0.999792 0.268446 -0.761627
H6    H     H_    0.159822 0.019980 0.287732 0.251610
H7    H     H_    0.051113 0.946604 0.177270 0.287796
H8    H     H_    0.024914 0.943520 0.352245 0.323647
O10   O     O_3   0.580525 0.071053 0.606400 -0.667215
C22   C     C_3   0.703713 0.114449 0.624721 0.007277
H9    H     H_    0.701560 0.196619 0.687311 0.224088
H10   H     H_    0.749909 0.138484 0.530138 0.143689
C23   C     C_3   0.779928 0.012041 0.693969 -0.311695
H11   H     H_    0.724929 0.971930 0.775756 0.272590
H12   H     H_    0.797918 0.937674 0.624066 0.286635
C24   C     C_3   0.904401 0.057905 0.748360 -0.761359
H13   H     H_    0.966553 0.085170 0.666966 0.282587
H14   H     H_    0.951360 0.983586 0.807202 0.287957
H15   H     H_    0.889173 0.137144 0.812851 0.289020
N3    N     N_R   0.614439 0.688575 0.866682 0.180572
O11   O     O_R   0.619069 0.789581 0.931710 -0.464012
O12   O     O_R   0.696566 0.674016 0.775653 -0.288805
N4    N     N_R   0.523552 0.380008 0.893542 0.261866
O13   O     O_R   0.450422 0.294492 0.851240 -0.376462
O14   O     O_R   0.632563 0.347376 0.942233 -0.412403
N5    N     N_R   0.690246 0.610178 0.126520 0.220006
O15   O     O_R   0.793817 0.601824 0.061618 -0.213032
O16   O     O_R   0.683291 0.688590 0.219351 -0.290954
O17   O     O_3   0.388913 0.475450 0.092544 -0.571379
C25   C     C_3   0.358703 0.353548 0.129939 0.215734
H16   H     H_    0.328261 0.347237 0.232507 0.161589
H17   H     H_    0.441405 0.292367 0.119556 0.150648
C26   C     C_3   0.249495 0.307249 0.045498 -0.241727
H18   H     H_    0.160275 0.331109 0.091788 0.242004
H19   H     H_    0.248960 0.352218 0.946805 0.311609
C27   C     C_3   0.253385 0.168013 0.032539 -0.930867
H20   H     H_    0.334404 0.139712 0.973575 0.298559
H21   H     H_    0.166213 0.135982 0.983753 0.302260
H22   H     H_    0.262675 0.123136 0.130562 0.230703
N6    N     N_R   0.110560 0.298737 0.636528 0.216202
O18   O     O_R   0.089913 0.281637 0.760777 -0.367853
O19   O     O_R   0.201288 0.238194 0.583233 -0.435050
N7    N     N_R   0.926082 0.491100 0.763140 0.305944
O20   O     O_R   0.985905 0.554693 0.849965 -0.228056
O21   O     O_R   0.853672 0.402550 0.802662 -0.314328
N8    N     N_R   0.074996 0.717940 0.610440 0.216355
O22   O     O_R   0.009335 0.765205 0.703230 -0.346653
O23   O     O_R   0.141549 0.790318 0.536501 -0.394579
N9    N     N_R   0.899755 0.705883 0.375163 0.267727
O24   O     O_R   0.826999 0.777947 0.440137 -0.410775
O25   O     O_R   0.935107 0.738756 0.258195 -0.302073
N10   N     N_R   0.067691 0.506307 0.237972 0.234199
O26   O     O_R   0.989966 0.459766 0.153689 -0.285376
O27   O     O_R   0.148568 0.586875 0.197019 -0.299222
O28   O     O_3   0.560073 0.890743 0.292362 -0.607892
C28   C     C_3   0.650500 0.971693 0.239372 0.198738
H23   H     H_    0.734121 0.915788 0.215982 0.250239
H24   H     H_    0.684582 0.041241 0.309366 0.087330
C29   C     C_3   0.600026 0.033084 0.113020 -0.392909
H25   H     H_    0.547117 0.965649 0.055070 0.282822
H26   H     H_    0.534321 0.107667 0.136636 0.199175
C30   C     C_3   0.705296 0.085869 0.030204 -0.795473
H27   H     H_    0.749387 0.164480 0.080050 0.288977
H28   H     H_    0.665904 0.118328 0.934418 0.305471
H29   H     H_    0.777611 0.014747 0.012142 0.268573
O29   O     O_3   0.364944 0.911836 0.579785 -0.614334
C31   C     C_3   0.397499 0.904895 0.715018 0.162779
H30   H     H_    0.400454 0.000132 0.751567 0.214403
H31   H     H_    0.491124 0.864430 0.736536 0.190472
C32   C     C_3   0.294265 0.836819 0.789425 -0.295583
H32   H     H_    0.204209 0.885005 0.767435 0.287897
H33   H     H_    0.288383 0.740868 0.755502 0.257835
C33   C     C_3   0.313206 0.834519 0.937964 -0.848995
H34   H     H_    0.225830 0.802646 0.985554 0.309313
H35   H     H_    0.335361 0.927042 0.973663 0.244191
H36   H     H_    0.388994 0.770014 0.967940 0.283911

loop_
_geom_bond_atom_site_label_1
_geom_bond_atom_site_label_2
_geom_bond_distance
_ccdc_geom_bond_type
C5    C8    1.540907 S    
C29   H25   1.106099 S    
Zn1   N1    2.052537 S    
C9    C10   1.529040 S    
C19   C20   1.522724 S    
C32   H33   1.110631 S    
N4    O13   1.296312 A    
C23   H12   1.109422 S    
N7    O20   1.299893 A    
Zn1   O7    2.027546 S    
C6    C11   1.539720 S    
N6    O19   1.300694 A    
C17   N1    1.307263 D    
C18   N2    1.301524 D    
O7    C4    1.294242 A    
N10   O27   1.300394 A    
N4    O14   1.302612 A    
C5    C6    1.548353 S    
C2    C12   1.432088 S    
C30   H29   1.110631 S    
C7    C10   1.532216 S    
N5    O16   1.292715 A    
C8    C9    1.532424 S    
O5    C3    1.301752 A    
N3    O11   1.298921 A    
C5    C12   1.546707 S    
C23   H11   1.109530 S    
C6    C7    1.547393 S    
C18   N5    1.425500 S    
C24   H14   1.109748 S    
C33   H34   1.110686 S    
C13   O28   1.393267 S    
C27   H20   1.106410 S    
C23   C24   1.523411 S    
C22   C23   1.530509 S    
C29   H26   1.103229 S    
O1    Zn1   2.017489 S    
C11   C12   1.541645 S    
C33   H35   1.105429 S    
C4    C7    1.434361 S    
O3    Zn1   2.016853 S    
C32   H32   1.109907 S    
C22   H10   1.116042 S    
C16   O10   1.389529 S    
C24   H13   1.106136 S    
C21   H8    1.109323 S    
N7    O21   1.299620 A    
N3    O12   1.297396 A    
C24   H15   1.110123 S    
N6    O18   1.298983 A    
C26   H18   1.100929 S    
C31   H30   1.111152 S    
N2    O17   1.352804 S    
C9    C12   1.536667 S    
O3    C2    1.299600 A    
C21   H6    1.108827 S    
C17   N3    1.438283 S    
N10   O26   1.299677 A    
C15   C16   1.335984 D    
C20   C21   1.526517 S    
C3    C14   1.461041 S    
C30   H28   1.107951 S    
N5    O15   1.299866 A    
O1    C1    1.302012 A    
C25   H17   1.110544 S    
O10   C22   1.410620 S    
C25   C26   1.533886 S    
C28   H24   1.112330 S    
N9    O24   1.299995 A    
Zn2   O8    2.016851 S    
C30   H27   1.109713 S    
C27   H22   1.105890 S    
C7    C8    1.546407 S    
N8    O23   1.299434 A    
N9    O25   1.299525 A    
N1    N4    1.396197 S    
C29   C30   1.522144 S    
C33   H36   1.103622 S    
C6    O9    1.412455 S    
C22   H9    1.111964 S    
C28   C29   1.528297 S    
C31   H31   1.106665 S    
Zn1   O5    1.999963 S    
C11   N10   1.454474 S    
C20   H4    1.102803 S    
C14   O29   1.400665 S    
Zn2   N2    2.052672 S    
C1    C16   1.436228 S    
O2    Zn2   1.999965 S    
O8    C4    1.301529 A    
N8    O22   1.299651 A    
O6    C3    1.313289 A    
O4    Zn2   2.027546 S    
C15   H1    1.085377 S    
C26   C27   1.526172 S    
C25   H16   1.100725 S    
C20   H5    1.110517 S    
O2    C1    1.301824 A    
O9    C19   1.411036 S    
C28   H23   1.109229 S    
O4    C2    1.295064 A    
C8    N7    1.458520 S    
C17   C18   1.520470 S    
O29   C31   1.418247 S    
C19   H3    1.116712 S    
C19   H2    1.108058 S    
C13   C15   1.456978 S    
C9    N8    1.450117 S    
C13   C14   1.344196 D    
O17   C25   1.413516 S    
C5    N6    1.463072 S    
C10   C11   1.526220 S    
C21   H7    1.110190 S    
Zn2   O6    2.017488 S    
C10   N9    1.454936 S    
C27   H21   1.110496 S    
C31   C32   1.531521 S    
C26   H19   1.109428 S    
O28   C28   1.415149 S    
C32   C33   1.525667 S    
