data_mof_unit_56807.cif
_audit_creation_date              2012-12-11T14:11:01-0500
_audit_creation_method            fapswitch 2.2
_symmetry_space_group_name_H-M    P1
_symmetry_Int_Tables_number       1
_space_group_crystal_system       triclinic
_cell_length_a                    19.694523
_cell_length_b                    17.169156
_cell_length_c                    15.564524
_cell_angle_alpha                 90.00001
_cell_angle_beta                  52.659307
_cell_angle_gamma                 90.00002
_cell_volume                      4184.28074094

loop_
_atom_site_label
_atom_site_type_symbol
_atom_type_description
_atom_site_fract_x
_atom_site_fract_y
_atom_site_fract_z
_atom_type_partial_charge
C1    C     C_R   0.377078 0.197413 0.989969 -0.073590
C2    C     C_3   0.758831 0.776012 0.433405 -0.154378
C3    C     C_3   0.673648 0.271677 0.459870 -0.151503
C4    C     C_3   0.326351 0.728323 0.540130 -0.151503
C5    C     C_3   0.826351 0.771676 0.540131 -0.151503
C6    C     C_3   0.173649 0.228325 0.459869 -0.151502
C7    C     C_3   0.258831 0.723988 0.433405 -0.154379
C8    C     C_3   0.741170 0.276011 0.566595 -0.154379
C9    C     C_2   0.188566 0.744251 0.097928 -0.198709
C10   C     C_2   0.811434 0.255749 0.902072 -0.198710
C11   C     C_2   0.711313 0.686078 0.048925 -0.166022
C12   C     C_R   0.622922 0.802587 0.010031 -0.073591
C13   C     C_2   0.288687 0.313922 0.951075 -0.166022
C14   C     C_2   0.788687 0.186078 0.951075 -0.166021
C15   C     C_2   0.211313 0.813922 0.048925 -0.166022
C16   C     C_2   0.311434 0.244251 0.902072 -0.198709
C17   C     C_2   0.688566 0.755749 0.097928 -0.198709
C18   C     C_R   0.396562 0.801049 0.210446 0.151075
C19   C     C_R   0.603437 0.198951 0.789554 0.151074
C20   C     C_R   0.643283 0.819731 0.776379 0.200193
C21   C     C_R   0.356716 0.180268 0.223621 0.200193
C22   C     C_R   0.856716 0.319731 0.223621 0.200193
C23   C     C_R   0.662860 0.172512 0.948070 -0.077955
C24   C     C_R   0.143284 0.680268 0.776379 0.200193
C25   C     C_R   0.103438 0.301049 0.789554 0.151074
C26   C     C_R   0.896563 0.698951 0.210446 0.151074
C27   C     C_R   0.329276 0.913727 0.951865 -0.130191
C28   C     C_R   0.670724 0.086273 0.048135 -0.130191
C29   C     C_R   0.634849 0.890351 0.102907 -0.140033
C30   C     C_R   0.365151 0.109649 0.897093 -0.140033
C31   C     C_R   0.865151 0.390351 0.897093 -0.140032
C32   C     C_R   0.134849 0.609649 0.102907 -0.140032
C33   C     C_R   0.170724 0.413727 0.048135 -0.130191
C34   C     C_R   0.337140 0.827488 0.051930 -0.077955
C35   C     C_R   0.829276 0.586273 0.951865 -0.130192
C36   C     C_R   0.360990 0.082878 0.317186 -0.164914
C37   C     C_R   0.639009 0.917122 0.682814 -0.164914
C38   C     C_R   0.599089 0.105871 0.692761 -0.183572
C39   C     C_R   0.400911 0.894129 0.307239 -0.183572
C40   C     C_R   0.900911 0.605871 0.307239 -0.183572
C41   C     C_R   0.099090 0.394129 0.692761 -0.183572
C42   C     C_R   0.139009 0.582878 0.682814 -0.164914
C43   C     C_R   0.860991 0.417122 0.317186 -0.164914
C44   C     C_R   0.348020 0.185801 0.930286 0.136704
C45   C     C_R   0.837140 0.672512 0.051930 -0.077956
C46   C     C_R   0.651980 0.814199 0.069713 0.136704
C47   C     C_R   0.714322 0.146114 0.974337 0.117793
C48   C     C_R   0.285678 0.853886 0.025663 0.117794
C49   C     C_R   0.785678 0.646114 0.025663 0.117794
C50   C     C_R   0.214322 0.353886 0.974337 0.117793
C51   C     C_R   0.151980 0.685801 0.069714 0.136704
C52   C     C_R   0.848020 0.314199 0.930286 0.136704
C53   C     C_R   0.381805 0.817811 0.306616 0.001833
C54   C     C_R   0.618194 0.182189 0.693384 0.001833
C55   C     C_R   0.684297 0.853338 0.675053 -0.030082
C56   C     C_R   0.162860 0.327488 0.948070 -0.077956
C57   C     C_R   0.315701 0.146661 0.324947 -0.030082
C58   C     C_R   0.815702 0.353338 0.324948 -0.030081
C59   C     C_R   0.184298 0.646662 0.675053 -0.030081
C60   C     C_R   0.118195 0.317811 0.693383 0.001833
C61   C     C_R   0.881805 0.682189 0.306616 0.001834
C62   C     C_3   0.209925 0.152317 0.539832 -0.121668
C63   C     C_3   0.790073 0.847682 0.460168 -0.121668
C64   C     C_3   0.705044 0.200076 0.486757 -0.124394
C65   C     C_3   0.294955 0.799924 0.513244 -0.124394
C66   C     C_3   0.794955 0.700075 0.513243 -0.124395
C67   C     C_R   0.122921 0.697413 0.010032 -0.073590
C68   C     C_3   0.205046 0.299925 0.486756 -0.124394
C69   C     C_3   0.290073 0.652318 0.460168 -0.121668
C70   C     C_3   0.709927 0.347682 0.539832 -0.121668
C71   C     C_3   0.713822 0.743642 0.547707 -0.125369
C72   C     C_3   0.286178 0.256356 0.452293 -0.125370
C73   C     C_3   0.372297 0.696445 0.423798 -0.130614
C74   C     C_3   0.627703 0.303555 0.576202 -0.130614
C75   C     C_3   0.127702 0.196446 0.576201 -0.130614
C76   C     C_3   0.872297 0.803555 0.423799 -0.130614
C77   C     C_3   0.786178 0.243642 0.452293 -0.125370
C78   C     C_R   0.877079 0.302587 0.989969 -0.073590
C79   C     C_3   0.213822 0.756357 0.547707 -0.125370
C80   C     C_3   0.745384 0.814371 0.573985 0.175733
C81   C     C_3   0.254615 0.185628 0.426015 0.175733
C82   C     C_3   0.339655 0.767362 0.399269 0.175697
C83   C     C_3   0.660345 0.232637 0.600731 0.175697
C84   C     C_3   0.160345 0.267363 0.600730 0.175697
C85   C     C_3   0.839655 0.732637 0.399269 0.175697
C86   C     C_3   0.754616 0.314371 0.426015 0.175733
C87   C     C_3   0.245384 0.685628 0.573985 0.175733
C88   C     C_3   0.241169 0.223986 0.566596 -0.154379
H1    H     H_    0.392807 0.253176 0.003884 0.161942
H2    H     H_    0.690811 0.052967 0.088112 0.119082
H3    H     H_    0.638838 0.917021 0.162685 0.105599
H4    H     H_    0.361162 0.082978 0.837315 0.105599
H5    H     H_    0.861162 0.417021 0.837315 0.105599
H6    H     H_    0.138838 0.582978 0.162685 0.105599
H7    H     H_    0.190811 0.447033 0.088112 0.119082
H8    H     H_    0.809189 0.552967 0.911888 0.119082
H9    H     H_    0.350307 0.047883 0.382023 0.113480
H10   H     H_    0.649692 0.952117 0.617977 0.113479
H11   H     H_    0.594331 0.077176 0.634779 0.106414
H12   H     H_    0.607193 0.746824 0.996116 0.161942
H13   H     H_    0.405668 0.922823 0.365221 0.106414
H14   H     H_    0.905668 0.577176 0.365221 0.106414
H15   H     H_    0.094332 0.422823 0.634779 0.106414
H16   H     H_    0.149692 0.547883 0.617977 0.113479
H17   H     H_    0.850308 0.452117 0.382023 0.113479
H18   H     H_    0.647789 0.720053 0.599565 0.148582
H19   H     H_    0.352212 0.279945 0.400435 0.148581
H20   H     H_    0.438583 0.673693 0.369888 0.140332
H21   H     H_    0.561417 0.326308 0.630113 0.140332
H22   H     H_    0.061416 0.173694 0.630111 0.140331
H23   H     H_    0.676130 0.218849 0.893817 0.127398
H24   H     H_    0.938583 0.826307 0.369889 0.140331
H25   H     H_    0.852210 0.220052 0.400434 0.148582
H26   H     H_    0.147789 0.779946 0.599566 0.148582
H27   H     H_    0.212946 0.090860 0.559438 0.132014
H28   H     H_    0.787051 0.909139 0.440562 0.132014
H29   H     H_    0.703208 0.138986 0.464901 0.134810
H30   H     H_    0.296791 0.861014 0.535099 0.134811
H31   H     H_    0.796791 0.638986 0.535099 0.134810
H32   H     H_    0.203211 0.361015 0.464901 0.134810
H33   H     H_    0.287051 0.590861 0.440562 0.132014
H34   H     H_    0.323869 0.781151 0.106182 0.127399
H35   H     H_    0.712950 0.409139 0.559438 0.132014
H36   H     H_    0.268103 0.223215 0.611922 0.135165
H37   H     H_    0.731896 0.776782 0.388078 0.135164
H38   H     H_    0.647774 0.271302 0.413332 0.140113
H39   H     H_    0.352225 0.728700 0.586669 0.140114
H40   H     H_    0.852225 0.771300 0.586670 0.140113
H41   H     H_    0.147775 0.228702 0.413330 0.140114
H42   H     H_    0.231896 0.723217 0.388079 0.135164
H43   H     H_    0.768104 0.276781 0.611920 0.135164
H44   H     H_    0.210444 0.724141 0.143329 0.139911
H45   H     H_    0.823870 0.718849 0.106183 0.127399
H46   H     H_    0.789555 0.275859 0.856671 0.139911
H47   H     H_    0.688020 0.665582 0.005260 0.161458
H48   H     H_    0.311980 0.334418 0.994740 0.161459
H49   H     H_    0.811980 0.165582 0.994740 0.161459
H50   H     H_    0.188020 0.834418 0.005260 0.161459
H51   H     H_    0.289555 0.224141 0.856672 0.139911
H52   H     H_    0.710445 0.775859 0.143328 0.139911
H53   H     H_    0.176130 0.281151 0.893818 0.127399
H54   H     H_    0.107192 0.753176 0.996117 0.161942
H55   H     H_    0.892807 0.246824 0.003883 0.161942
H56   H     H_    0.309189 0.947033 0.911888 0.119082
I1    I     I_    0.419051 0.687044 0.145253 -0.450120
I2    I     I_    0.580948 0.312956 0.854747 -0.450120
I3    I     I_    0.652021 0.699738 0.802623 -0.466380
I4    I     I_    0.347977 0.300261 0.197378 -0.466381
I5    I     I_    0.847977 0.199739 0.197378 -0.466382
I6    I     I_    0.152023 0.800261 0.802622 -0.466382
I7    I     I_    0.080948 0.187044 0.854746 -0.450121
I8    I     I_    0.919051 0.812956 0.145253 -0.450121
N1    N     N_R   0.408680 0.130810 0.995780 -0.049721
N2    N     N_R   0.578590 0.132790 0.846380 -0.062255
N3    N     N_R   0.578590 0.867210 0.846380 -0.056497
N4    N     N_R   0.421410 0.132790 0.153620 -0.056497
N5    N     N_R   0.921410 0.367210 0.153620 -0.056497
N6    N     N_R   0.078590 0.632790 0.846380 -0.056497
N7    N     N_R   0.078590 0.367210 0.846380 -0.062255
N8    N     N_R   0.921410 0.632790 0.153620 -0.062255
N9    N     N_R   0.403840 0.921910 0.935760 -0.048995
N10   N     N_R   0.596160 0.078090 0.064240 -0.048995
N11   N     N_R   0.596160 0.921910 0.064240 -0.048279
N12   N     N_R   0.591320 0.869190 0.004220 -0.049721
N13   N     N_R   0.403840 0.078090 0.935760 -0.048279
N14   N     N_R   0.903840 0.421910 0.935760 -0.048279
N15   N     N_R   0.096160 0.578090 0.064240 -0.048279
N16   N     N_R   0.096160 0.421910 0.064240 -0.048995
N17   N     N_R   0.903840 0.578090 0.935760 -0.048995
N18   N     N_R   0.426250 0.076100 0.213650 -0.050345
N19   N     N_R   0.573750 0.923900 0.786350 -0.050345
N20   N     N_R   0.573750 0.076100 0.786350 -0.046790
N21   N     N_R   0.426250 0.923900 0.213650 -0.046790
N22   N     N_R   0.926250 0.576100 0.213650 -0.046790
N23   N     N_R   0.591320 0.130810 0.004220 -0.041294
N24   N     N_R   0.073750 0.423900 0.786350 -0.046790
N25   N     N_R   0.073750 0.576100 0.786350 -0.050345
N26   N     N_R   0.926250 0.423900 0.213650 -0.050345
N27   N     N_R   0.408680 0.869190 0.995780 -0.041294
N28   N     N_R   0.908680 0.630810 0.995780 -0.041294
N29   N     N_R   0.091320 0.369190 0.004220 -0.041294
N30   N     N_R   0.091320 0.630810 0.004220 -0.049721
N31   N     N_R   0.908680 0.369190 0.995780 -0.049721
N32   N     N_R   0.421410 0.867210 0.153620 -0.062255
Ni1   Ni    Ni4+2 0.500000 0.131570 0.000000 0.259411
Ni2   Ni    Ni4+2 0.500000 0.868430 0.000000 0.259411
Ni3   Ni    Ni4+2 1.000000 0.631570 0.000000 0.259411
Ni4   Ni    Ni4+2 1.000000 0.368430 0.000000 0.259411
Ni5   Ni    Ni4+2 0.488900 0.000000 0.862310 0.208934
Ni6   Ni    Ni4+2 0.511100 0.000000 0.137690 0.208934
Ni7   Ni    Ni4+2 0.988900 0.500000 0.862310 0.208934
Ni8   Ni    Ni4+2 0.011100 0.500000 0.137690 0.208934

loop_
_geom_bond_atom_site_label_1
_geom_bond_atom_site_label_2
_ccdc_geom_bond_type
C27   C48   A    
C33   N16   A    
C32   H6    S    
C28   C47   A    
C65   C79   S    
C20   N3    A    
C36   N18   A    
C8    C83   S    
C64   C77   S    
C29   N11   A    
N11   N12   A    
C9    C51   S    
N5    Ni4   S    
C29   H3    S    
C74   C83   S    
C88   H36   S    
C18   I1    S    
C10   C52   S    
N6    Ni3   S    
C66   C85   S    
C79   C87   S    
C3    H38   S    
C28   N10   A    
C6    C75   S    
C43   N26   A    
N27   Ni2   S    
C3    C64   S    
N15   Ni8   S    
N25   Ni7   S    
C67   N30   A    
N6    N25   A    
N14   Ni7   S    
N12   Ni2   S    
C20   C55   A    
C4    C65   S    
C61   C85   S    
C24   N6    A    
C75   C84   S    
C68   C72   S    
N15   N30   A    
N23   Ni1   S    
C56   N29   A    
C42   N25   A    
C33   H7    S    
N21   Ni6   S    
C8    C70   S    
N19   Ni5   S    
C2    C85   S    
C78   N31   A    
C43   H17   S    
C3    C74   S    
C70   C74   S    
C71   C80   S    
C7    H42   S    
C18   C53   A    
C70   H35   S    
N21   N32   A    
C35   C49   A    
C29   C46   A    
N13   Ni5   S    
C65   H30   S    
C14   H49   S    
C26   N8    A    
C36   H9    S    
C25   C60   A    
C69   H33   S    
N9    N27   A    
C16   C44   S    
N17   N28   A    
C72   C81   S    
C69   C87   S    
C39   N21   A    
N5    N26   A    
C15   H50   S    
C6    C68   S    
C22   I5    S    
C34   H34   S    
C6    C81   S    
C3    C86   S    
C30   C44   A    
C34   N27   A    
C15   C48   S    
C74   H21   S    
C6    H41   S    
C77   H25   S    
C58   C86   S    
C54   C83   S    
C72   C88   S    
N29   Ni4   S    
C37   N19   A    
C39   H13   S    
C63   C80   S    
N2    Ni1   S    
C19   I2    S    
C23   C47   A    
N2    N20   A    
C68   C84   S    
C21   I4    S    
C84   C88   S    
C17   C46   S    
C30   N13   A    
N9    Ni5   S    
C36   C57   A    
C10   C14   D    
C4    C87   S    
C25   N7    A    
C5    C66   S    
N24   Ni7   S    
N10   N23   A    
C9    H44   S    
C33   C50   A    
C35   H8    S    
C62   C88   S    
C50   C56   A    
C64   H29   S    
C41   H15   S    
C53   C82   S    
N7    Ni4   S    
C1    N1    A    
C64   C83   S    
C21   C57   A    
C11   C49   S    
N28   Ni3   S    
C11   H47   S    
C12   N12   A    
N26   Ni8   S    
N11   Ni6   S    
C71   H18   S    
C1    C44   A    
C66   C71   S    
C38   C54   A    
C31   N14   A    
C18   N32   A    
C76   H24   S    
C8    H43   S    
C45   C49   A    
C20   I3    S    
C37   H10   S    
C51   C67   A    
C5    C80   S    
C69   C73   S    
C4    C73   S    
C24   I6    S    
C56   H53   S    
C19   C54   A    
C12   C46   A    
C41   N24   A    
C77   C86   S    
N7    N24   A    
C8    C77   S    
C35   N17   A    
C13   H48   S    
C57   C81   S    
C62   C75   S    
C45   N28   A    
C16   H51   S    
C34   C48   A    
C63   H28   S    
C2    C71   S    
C70   C86   S    
C73   C82   S    
N10   Ni6   S    
C2    C63   S    
C7    C79   S    
C32   C51   A    
C79   H26   S    
C11   C17   D    
C75   H22   S    
C1    H1    S    
C4    H39   S    
N1    N13   A    
N8    N22   A    
C62   C81   S    
N4    Ni1   S    
N14   N31   A    
C10   H46   S    
C41   C60   A    
C38   H11   S    
C73   H20   S    
N3    Ni2   S    
C42   H16   S    
C42   C59   A    
C22   C58   A    
C13   C16   D    
C38   N20   A    
C14   C47   S    
C22   N5    A    
C66   H31   S    
N20   Ni5   S    
C23   H23   S    
N18   Ni6   S    
C45   H45   S    
N16   Ni8   S    
C31   C52   A    
C72   H19   S    
C25   I7    S    
C5    C76   S    
C26   I8    S    
C7    C69   S    
C9    C15   D    
C62   H27   S    
C31   H5    S    
C78   H55   S    
C27   N9    A    
C40   N22   A    
C55   C80   S    
C60   C84   S    
C27   H56   S    
C65   C82   S    
C39   C53   A    
N1    Ni1   S    
C24   C59   A    
C5    H40   S    
N4    N18   A    
C21   N4    A    
N32   Ni2   S    
C17   H52   S    
N30   Ni3   S    
C59   C87   S    
C12   H12   S    
C40   C61   A    
C40   H14   S    
C13   C50   S    
C37   C55   A    
C2    H37   S    
N3    N19   A    
C52   C78   A    
C7    C82   S    
C23   N23   A    
N16   N29   A    
C63   C76   S    
C32   N15   A    
C19   N2    A    
N17   Ni7   S    
C43   C58   A    
C28   H2    S    
N8    Ni3   S    
N31   Ni4   S    
C67   H54   S    
C76   C85   S    
C68   H32   S    
N22   Ni8   S    
C26   C61   A    
C30   H4    S    
