data_mof_unit_41714.cif
_audit_creation_date              2012-12-10T17:05:56-0500
_audit_creation_method            fapswitch 2.2
_symmetry_space_group_name_H-M    P1
_symmetry_Int_Tables_number       1
_space_group_crystal_system       triclinic
_cell_length_a                    25.91134
_cell_length_b                    25.759944
_cell_length_c                    18.310473
_cell_angle_alpha                 90.665722
_cell_angle_beta                  134.869422
_cell_angle_gamma                 89.874882
_cell_volume                      8660.87785281

loop_
_atom_site_label
_atom_site_type_symbol
_atom_type_description
_atom_site_fract_x
_atom_site_fract_y
_atom_site_fract_z
_atom_type_partial_charge
C1    C     C_R   0.888640 0.749559 0.780862 0.787963
C2    C     C_R   0.888806 0.251990 0.780308 0.877873
C3    C     C_R   0.388642 0.249562 0.780862 0.787892
C4    C     C_R   0.388808 0.751990 0.780308 0.877570
C5    C     C_R   0.533443 0.710242 0.674300 -0.122735
C6    C     C_R   0.447610 0.150480 0.501298 -0.131005
C7    C     C_R   0.033468 0.210292 0.674352 -0.122758
C8    C     C_R   0.947620 0.650468 0.501320 -0.130960
C9    C     C_R   0.516539 0.729635 0.587507 0.031681
C10   C     C_R   0.473288 0.198954 0.500620 0.036399
C11   C     C_R   0.016553 0.229660 0.587536 0.031706
C12   C     C_R   0.973280 0.698939 0.500604 0.036361
C13   C     C_R   0.570676 0.729191 0.586690 -0.012693
C14   C     C_R   0.528133 0.199075 0.501157 0.027568
C15   C     C_R   0.070691 0.229216 0.586723 -0.012676
C16   C     C_R   0.028128 0.699061 0.501145 0.027568
C17   C     C_R   0.554021 0.748597 0.500204 -0.266683
C18   C     C_R   0.552356 0.247222 0.496598 -0.247273
C19   C     C_R   0.054025 0.248593 0.500212 -0.266489
C20   C     C_R   0.052335 0.747208 0.496555 -0.247333
C21   C     C_R   0.483253 0.765261 0.412599 0.441962
C22   C     C_R   0.522624 0.294531 0.491847 0.428650
C23   C     C_R   0.983245 0.265226 0.412581 0.441745
C24   C     C_R   0.022561 0.794513 0.491722 0.428698
C25   C     C_R   0.429666 0.765525 0.413347 0.390926
C26   C     C_R   0.468849 0.294346 0.491637 0.431453
C27   C     C_R   0.929657 0.265490 0.413326 0.390803
C28   C     C_R   0.968770 0.794323 0.491476 0.431633
C29   C     C_R   0.446616 0.748587 0.500920 -0.262143
C30   C     C_R   0.444080 0.246978 0.495953 -0.272658
C31   C     C_R   0.946618 0.248584 0.500923 -0.262029
C32   C     C_R   0.944051 0.746961 0.495893 -0.272862
C33   C     C_R   0.467328 0.681450 0.080829 0.376022
C34   C     C_R   0.546440 0.349032 0.100050 0.368987
C35   C     C_R   0.967380 0.181401 0.080827 0.376054
C36   C     C_R   0.046392 0.849027 0.100041 0.369018
C37   C     C_R   0.392744 0.672025 0.024881 0.230135
C38   C     C_R   0.498742 0.391675 0.051442 0.292170
C39   C     C_R   0.892806 0.171941 0.024898 0.230122
C40   C     C_R   0.998668 0.891655 0.051446 0.292157
C41   C     C_R   0.339091 0.707355 0.949210 0.309885
C42   C     C_R   0.424364 0.382869 0.961647 0.313661
C43   C     C_R   0.839122 0.207253 0.949222 0.309885
C44   C     C_R   0.924291 0.882831 0.961666 0.313654
C45   C     C_R   0.610560 0.747939 0.219157 0.796558
C46   C     C_R   0.611827 0.251093 0.219962 0.866932
C47   C     C_R   0.110560 0.247940 0.219156 0.796601
C48   C     C_R   0.111828 0.751094 0.219961 0.866897
C49   C     C_R   0.354828 0.741595 0.907973 0.357144
C50   C     C_R   0.400056 0.332947 0.915828 0.342073
C51   C     C_R   0.854818 0.241516 0.907961 0.357185
C52   C     C_R   0.900010 0.832909 0.915839 0.342117
C53   C     C_R   0.425472 0.741567 0.947952 -0.196180
C54   C     C_R   0.451875 0.293539 0.952767 -0.179194
C55   C     C_R   0.925466 0.241542 0.947946 -0.196254
C56   C     C_R   0.951851 0.793521 0.952768 -0.179230
C57   C     C_R   0.483190 0.722747 0.047885 -0.124823
C58   C     C_R   0.519799 0.298678 0.055275 -0.141287
C59   C     C_R   0.983202 0.222726 0.047880 -0.124791
C60   C     C_R   0.019776 0.798670 0.055272 -0.141311
C61   C     C_R   0.553945 0.744575 0.105652 0.026355
C62   C     C_R   0.559821 0.253290 0.108052 0.011231
C63   C     C_R   0.053942 0.244585 0.105648 0.026350
C64   C     C_R   0.059821 0.753290 0.108051 0.011231
C65   C     C_R   0.567346 0.770147 0.053139 -0.200341
C66   C     C_R   0.544421 0.207948 0.052634 -0.240260
C67   C     C_R   0.067321 0.270192 0.053138 -0.200378
C68   C     C_R   0.044438 0.707952 0.052634 -0.240306
C69   C     C_R   0.512872 0.773411 0.946660 -0.202264
C70   C     C_R   0.488357 0.207350 0.946021 -0.182305
C71   C     C_R   0.012843 0.273459 0.946661 -0.202404
C72   C     C_R   0.988373 0.707353 0.946021 -0.182364
C73   C     C_R   0.441690 0.757852 0.892669 0.061249
C74   C     C_R   0.441237 0.249681 0.894204 0.034968
C75   C     C_R   0.941674 0.257862 0.892665 0.061037
C76   C     C_R   0.941232 0.749673 0.894204 0.034982
C77   C     C_R   0.614261 0.946837 0.414721 0.336611
C78   C     C_R   0.608660 0.053684 0.383153 0.292900
C79   C     C_R   0.114253 0.446844 0.414699 0.336655
C80   C     C_R   0.108664 0.553692 0.383156 0.292954
C81   C     C_R   0.554122 0.975773 0.380215 0.235771
C82   C     C_R   0.547814 0.028467 0.354043 0.217712
C83   C     C_R   0.054113 0.475782 0.380189 0.235732
C84   C     C_R   0.047814 0.528480 0.354035 0.217682
C85   C     C_R   0.676234 0.027455 0.442814 -0.141113
C86   C     C_R   0.677513 0.972690 0.450829 -0.136202
C87   C     C_R   0.176235 0.527459 0.442813 -0.141117
C88   C     C_R   0.177509 0.472694 0.450821 -0.136236
C89   C     C_R   0.749686 0.610044 0.498957 0.786256
C90   C     C_R   0.750231 0.389916 0.499828 0.794170
C91   C     C_R   0.249686 0.110044 0.498957 0.786253
C92   C     C_R   0.250231 0.889916 0.499827 0.794047
C93   C     C_R   0.742144 0.946085 0.493636 0.035557
C94   C     C_R   0.741849 0.053879 0.489363 0.023466
C95   C     C_R   0.242141 0.446087 0.493634 0.035548
C96   C     C_R   0.241855 0.553880 0.489368 0.023493
C97   C     C_R   0.803516 0.973238 0.531186 -0.193453
C98   C     C_R   0.803927 0.026661 0.531197 -0.216521
C99   C     C_R   0.303517 0.473237 0.531190 -0.193405
C100  C     C_R   0.303932 0.526660 0.531205 -0.216583
C101  C     C_R   0.793692 0.553204 0.411585 -0.208228
C102  C     C_R   0.797306 0.444820 0.416583 -0.188467
C103  C     C_R   0.293685 0.053204 0.411575 -0.208197
C104  C     C_R   0.297301 0.944820 0.416576 -0.188437
C105  C     C_R   0.815504 0.525545 0.371272 -0.115567
C106  C     C_R   0.817700 0.471550 0.374277 -0.073296
C107  C     C_R   0.315494 0.025545 0.371258 -0.115633
C108  C     C_R   0.317692 0.971551 0.374265 -0.073349
C109  C     C_R   0.774314 0.472033 0.456890 0.081982
C110  C     C_R   0.773012 0.526939 0.455068 0.104858
C111  C     C_R   0.274311 0.972032 0.456886 0.082019
C112  C     C_R   0.273008 0.026939 0.455063 0.104849
C113  C     C_R   0.748813 0.553916 0.493948 -0.060647
C114  C     C_R   0.750373 0.445923 0.496166 -0.067764
C115  C     C_R   0.248813 0.053916 0.493947 -0.060694
C116  C     C_R   0.250373 0.945923 0.496166 -0.067711
C117  C     C_R   0.722829 0.527103 0.528567 -0.220827
C118  C     C_R   0.723412 0.473416 0.529397 -0.203573
C119  C     C_R   0.222832 0.027103 0.528571 -0.220798
C120  C     C_R   0.223415 0.973416 0.529401 -0.203575
C121  C     C_R   0.748290 0.890047 0.498785 0.841120
C122  C     C_R   0.748668 0.109947 0.498113 0.871145
C123  C     C_R   0.248285 0.390047 0.498781 0.841222
C124  C     C_R   0.248676 0.609947 0.498121 0.871187
C125  C     C_R   0.888843 0.748769 0.497859 0.845036
C126  C     C_R   0.889826 0.250092 0.499445 0.891642
C127  C     C_R   0.388842 0.248768 0.497859 0.844695
C128  C     C_R   0.389826 0.750093 0.499445 0.891683
C129  C     C_R   0.609377 0.750468 0.498872 0.914829
C130  C     C_R   0.609227 0.248887 0.498143 0.908687
C131  C     C_R   0.109380 0.250466 0.498877 0.914832
C132  C     C_R   0.109221 0.748881 0.498131 0.908726
C133  C     C_R   0.639729 0.708320 0.671639 -0.074422
C134  C     C_R   0.555442 0.150689 0.502969 -0.051288
C135  C     C_R   0.139757 0.208372 0.671699 -0.074490
C136  C     C_R   0.055457 0.650676 0.502998 -0.051106
C137  C     C_R   0.655311 0.689637 0.756564 -0.066754
C138  C     C_R   0.533767 0.104274 0.512882 -0.038986
C139  C     C_R   0.155350 0.189714 0.756646 -0.066714
C140  C     C_R   0.033787 0.604262 0.512922 -0.039089
C141  C     C_R   0.602401 0.690777 0.758059 -0.148810
C142  C     C_R   0.479623 0.104096 0.511391 -0.095268
C143  C     C_R   0.102438 0.190854 0.758136 -0.148828
C144  C     C_R   0.979642 0.604084 0.511432 -0.095340
H1    H     H_    0.526465 0.788083 0.906680 0.169415
H2    H     H_    0.480428 0.173040 0.904154 0.165146
H3    H     H_    0.026427 0.288159 0.906683 0.169449
H4    H     H_    0.980459 0.673048 0.904154 0.165148
H5    H     H_    0.852332 0.952826 0.563403 0.126167
H6    H     H_    0.853264 0.047030 0.564598 0.133608
H7    H     H_    0.352333 0.452821 0.563408 0.126242
H8    H     H_    0.353272 0.547026 0.564611 0.133610
H9    H     H_    0.703085 0.547923 0.556578 0.147186
H10   H     H_    0.703788 0.453146 0.557595 0.143381
H11   H     H_    0.203091 0.047923 0.556586 0.147193
H12   H     H_    0.203794 0.953146 0.557603 0.143356
H13   H     H_    0.791758 0.595075 0.406523 0.125861
H14   H     H_    0.798655 0.402844 0.415939 0.148506
H15   H     H_    0.291751 0.095075 0.406513 0.125860
H16   H     H_    0.298651 0.902844 0.415932 0.148529
H17   H     H_    0.830519 0.546099 0.337222 0.192863
H18   H     H_    0.834601 0.450259 0.342813 0.198716
H19   H     H_    0.330505 0.046099 0.337203 0.192837
H20   H     H_    0.334592 0.950259 0.342800 0.198758
H21   H     H_    0.681859 0.705584 0.672613 0.143662
H22   H     H_    0.592674 0.147148 0.494936 0.175257
H23   H     H_    0.181889 0.205635 0.672677 0.143682
H24   H     H_    0.092694 0.647136 0.494973 0.175290
H25   H     H_    0.708518 0.673910 0.821183 0.160770
H26   H     H_    0.557289 0.068072 0.517856 0.162894
H27   H     H_    0.208566 0.174007 0.821286 0.160860
H28   H     H_    0.057314 0.568060 0.517910 0.162843
H29   H     H_    0.114626 0.176129 0.824030 0.143440
H30   H     H_    0.961101 0.567680 0.515524 0.172320
H31   H     H_    0.614581 0.676032 0.823935 0.143433
H32   H     H_    0.461073 0.067691 0.515468 0.172343
H33   H     H_    0.493589 0.709435 0.678000 0.118123
H34   H     H_    0.402223 0.147093 0.492887 0.151160
H35   H     H_    0.993613 0.209485 0.678051 0.118152
H36   H     H_    0.902235 0.647082 0.492914 0.151157
H37   H     H_    0.620811 0.785757 0.094000 0.176674
H38   H     H_    0.576107 0.173115 0.091675 0.153187
H39   H     H_    0.120775 0.285828 0.093998 0.176693
H40   H     H_    0.076141 0.673125 0.091675 0.153210
O1    O     O_3   0.750020 0.750020 0.500000 -0.503379
O2    O     O_3   0.750020 0.249980 0.500000 -0.501143
O3    O     O_3   0.250020 0.250020 0.500000 -0.503377
O4    O     O_3   0.250020 0.749980 0.500000 -0.501151
O5    O     O_R   0.689310 0.634210 0.439280 -0.665749
O6    O     O_R   0.689310 0.365790 0.439280 -0.629105
O7    O     O_R   0.189310 0.134210 0.439280 -0.665779
O8    O     O_R   0.189310 0.865790 0.439280 -0.629099
O9    O     O_R   0.750010 0.865830 0.560720 -0.562981
O10   O     O_R   0.750010 0.134170 0.560720 -0.638156
O11   O     O_R   0.250010 0.365830 0.560720 -0.562960
O12   O     O_R   0.250010 0.634170 0.560720 -0.638134
O13   O     O_R   0.896180 0.719660 0.731600 -0.654008
O14   O     O_R   0.896180 0.280340 0.731600 -0.644223
O15   O     O_R   0.396180 0.219660 0.731600 -0.654004
O16   O     O_R   0.396180 0.780340 0.731600 -0.644178
O17   O     O_R   0.664580 0.780370 0.268400 -0.652127
O18   O     O_R   0.664580 0.219630 0.268400 -0.679060
O19   O     O_R   0.164580 0.280370 0.268400 -0.652152
O20   O     O_R   0.164580 0.719630 0.268400 -0.679042
O21   O     O_R   0.835450 0.780390 0.731600 -0.579294
O22   O     O_R   0.835450 0.219610 0.731600 -0.630811
O23   O     O_R   0.335450 0.280390 0.731600 -0.579282
O24   O     O_R   0.335450 0.719610 0.731600 -0.630897
O25   O     O_R   0.603870 0.719650 0.268400 -0.623370
O26   O     O_R   0.603870 0.280350 0.268400 -0.595426
O27   O     O_R   0.103870 0.219650 0.268400 -0.623409
O28   O     O_R   0.103870 0.780350 0.268400 -0.595427
O29   O     O_R   0.810750 0.634210 0.560720 -0.636878
O30   O     O_R   0.810750 0.365790 0.560720 -0.626952
O31   O     O_R   0.310750 0.134210 0.560720 -0.636847
O32   O     O_R   0.310750 0.865790 0.560720 -0.626969
O33   O     O_R   0.750010 0.865820 0.439280 -0.653159
O34   O     O_R   0.750010 0.134180 0.439280 -0.654308
O35   O     O_R   0.250010 0.365820 0.439280 -0.653098
O36   O     O_R   0.250010 0.634180 0.439280 -0.654285
O37   O     O_R   0.896180 0.719650 0.560720 -0.663549
O38   O     O_R   0.896180 0.280350 0.560720 -0.643821
O39   O     O_R   0.396180 0.219650 0.560720 -0.663532
O40   O     O_R   0.396180 0.780350 0.560720 -0.643791
O41   O     O_R   0.664570 0.780390 0.560720 -0.575699
O42   O     O_R   0.664570 0.219610 0.560720 -0.614976
O43   O     O_R   0.164570 0.280390 0.560720 -0.575760
O44   O     O_R   0.164570 0.719610 0.560720 -0.615038
O45   O     O_R   0.835460 0.780370 0.439280 -0.586538
O46   O     O_R   0.835460 0.219630 0.439280 -0.653325
O47   O     O_R   0.335460 0.280370 0.439280 -0.586569
O48   O     O_R   0.335460 0.719630 0.439280 -0.653341
O49   O     O_R   0.603860 0.719660 0.439280 -0.685736
O50   O     O_R   0.603860 0.280340 0.439280 -0.607381
O51   O     O_R   0.103860 0.219660 0.439280 -0.685691
O52   O     O_R   0.103860 0.780340 0.439280 -0.607328
Zn1   Zn    Zn3+2 0.663270 0.706640 0.413250 0.939399
Zn2   Zn    Zn3+2 0.663270 0.293360 0.413250 1.043223
Zn3   Zn    Zn3+2 0.163270 0.206640 0.413250 0.939399
Zn4   Zn    Zn3+2 0.163270 0.793360 0.413250 1.043149
Zn5   Zn    Zn3+2 0.836780 0.706640 0.586750 0.953736
Zn6   Zn    Zn3+2 0.836780 0.293360 0.586750 1.001737
Zn7   Zn    Zn3+2 0.336780 0.206640 0.586750 0.953725
Zn8   Zn    Zn3+2 0.336780 0.793360 0.586750 1.001666
Zn9   Zn    Zn3+2 0.750020 0.793390 0.413240 0.987696
Zn10  Zn    Zn3+2 0.750020 0.206610 0.413240 0.962815
Zn11  Zn    Zn3+2 0.250020 0.293390 0.413240 0.987723
Zn12  Zn    Zn3+2 0.250020 0.706610 0.413240 0.962840
Zn13  Zn    Zn3+2 0.750010 0.793400 0.586760 1.085480
Zn14  Zn    Zn3+2 0.750010 0.206600 0.586760 1.033426
Zn15  Zn    Zn3+2 0.250010 0.293400 0.586760 1.085464
Zn16  Zn    Zn3+2 0.250010 0.706600 0.586760 1.033283
O53   O     O_3   0.468595 0.787916 0.331350 -0.540602
C145  C     C_3   0.445961 0.749833 0.257196 -0.275118
H41   H     H_    0.398263 0.764875 0.179801 0.171013
H42   H     H_    0.430190 0.711594 0.265087 0.119284
H43   H     H_    0.489421 0.743961 0.259403 0.185002
O54   O     O_3   0.542489 0.341678 0.481365 -0.563586
C146  C     C_3   0.609865 0.358906 0.577900 -0.218148
H44   H     H_    0.620888 0.344967 0.645214 0.169084
H45   H     H_    0.609830 0.401950 0.580283 0.166325
H46   H     H_    0.655082 0.347197 0.586425 0.174150
O55   O     O_3   0.968577 0.287856 0.331306 -0.540864
C147  C     C_3   0.945948 0.249752 0.257185 -0.274912
H47   H     H_    0.898226 0.264770 0.179779 0.170967
H48   H     H_    0.930218 0.211512 0.265141 0.119297
H49   H     H_    0.989395 0.243886 0.259362 0.185047
O56   O     O_3   0.042423 0.841659 0.481239 -0.563680
C148  C     C_3   0.109725 0.858926 0.577822 -0.218077
H50   H     H_    0.120541 0.845127 0.645042 0.168914
H51   H     H_    0.109730 0.901975 0.580023 0.166212
H52   H     H_    0.155041 0.847102 0.586646 0.174076
O57   O     O_3   0.268122 0.702869 0.903382 -0.531747
C149  C     C_3   0.264913 0.719397 0.973821 -0.187711
H53   H     H_    0.285294 0.759917 0.001050 0.168402
H54   H     H_    0.295153 0.692996 0.040494 0.162258
H55   H     H_    0.207142 0.718822 0.933813 0.179653
O58   O     O_3   0.374334 0.422955 0.913767 -0.537734
C150  C     C_3   0.369414 0.444644 0.979916 -0.125742
H56   H     H_    0.405829 0.479050 0.021272 0.160317
H57   H     H_    0.312882 0.458257 0.932045 0.173661
H58   H     H_    0.381411 0.416584 0.036151 0.149035
O59   O     O_3   0.768162 0.202729 0.903417 -0.531740
C151  C     C_3   0.764950 0.219259 0.973853 -0.187697
H59   H     H_    0.785275 0.259794 0.001013 0.168469
H60   H     H_    0.795241 0.192882 0.040570 0.162205
H61   H     H_    0.707186 0.218642 0.933866 0.179666
O60   O     O_3   0.874235 0.922899 0.913814 -0.537723
C152  C     C_3   0.869313 0.944541 0.979987 -0.125837
H62   H     H_    0.905727 0.978944 0.021388 0.160273
H63   H     H_    0.812780 0.958147 0.932132 0.173693
H64   H     H_    0.881311 0.916452 0.036185 0.149094
S1    S     S_3+6 0.292056 0.792042 0.827843 0.021930
O61   O     O_2   0.220078 0.768205 0.735441 -0.299768
O62   O     O_2   0.282402 0.823196 0.887372 -0.317051
O63   O     O_3   0.320171 0.832500 0.790025 -0.592614
H65   H     H_    0.285359 0.861645 0.756613 0.355743
S2    S     S_3+6 0.309379 0.316384 0.850449 0.073755
O64   O     O_2   0.296676 0.258802 0.831892 -0.335101
O65   O     O_2   0.296826 0.333132 0.915785 -0.312129
O66   O     O_3   0.250740 0.347945 0.738044 -0.456771
H66   H     H_    0.202947 0.344744 0.715039 0.382226
S3    S     S_3+6 0.791973 0.291925 0.827797 0.021838
O67   O     O_2   0.719976 0.268047 0.735530 -0.299272
O68   O     O_2   0.782412 0.323110 0.887407 -0.317551
O69   O     O_3   0.819918 0.332365 0.789716 -0.593054
H67   H     H_    0.785443 0.361705 0.757082 0.355956
S4    S     S_3+6 0.809338 0.816311 0.850442 0.073717
O70   O     O_2   0.796658 0.758730 0.831844 -0.335160
O71   O     O_2   0.796775 0.833012 0.915785 -0.312159
O72   O     O_3   0.750690 0.847892 0.738062 -0.456787
H68   H     H_    0.702901 0.844681 0.715066 0.382178
O73   O     O_3   0.612028 0.893353 0.417379 -0.538352
C153  C     C_3   0.572800 0.873019 0.317869 -0.143749
H69   H     H_    0.596732 0.885792 0.288986 0.109640
H70   H     H_    0.514366 0.883795 0.262317 0.207008
H71   H     H_    0.575691 0.830033 0.321970 0.158394
O74   O     O_3   0.601234 0.103750 0.350510 -0.586509
C154  C     C_3   0.583759 0.101200 0.257940 -0.165261
H72   H     H_    0.532655 0.078768 0.196732 0.192823
H73   H     H_    0.628889 0.084144 0.270365 0.140183
H74   H     H_    0.574799 0.141188 0.229451 0.171914
O75   O     O_3   0.112019 0.393359 0.417359 -0.538334
C155  C     C_3   0.072801 0.373025 0.317854 -0.143899
H75   H     H_    0.096747 0.385791 0.288988 0.109637
H76   H     H_    0.014368 0.383806 0.262287 0.206976
H77   H     H_    0.075682 0.330039 0.321954 0.158465
O76   O     O_3   0.101248 0.603759 0.350524 -0.586427
C156  C     C_3   0.083757 0.601214 0.257942 -0.165428
H78   H     H_    0.032644 0.578792 0.196736 0.192739
H79   H     H_    0.128875 0.584148 0.270344 0.140212
H80   H     H_    0.074809 0.641203 0.229465 0.171917
S5    S     S_3+6 0.489567 0.945411 0.374591 0.090718
O77   O     O_2   0.480421 0.978165 0.433229 -0.332828
O78   O     O_2   0.417548 0.939841 0.264296 -0.225576
O79   O     O_3   0.517474 0.886554 0.428756 -0.464233
H81   H     H_    0.487740 0.878405 0.442663 0.378230
S6    S     S_3+6 0.461438 0.060518 0.269520 0.064147
O80   O     O_2   0.421128 0.052306 0.299518 -0.253266
O81   O     O_2   0.469652 0.118013 0.266779 -0.278585
O82   O     O_3   0.411039 0.035459 0.150510 -0.540366
H82   H     H_    0.364081 0.054013 0.106428 0.382756
S7    S     S_3+6 0.989540 0.445413 0.374520 0.090698
O83   O     O_2   0.980363 0.478155 0.433133 -0.332635
O84   O     O_2   0.917540 0.439842 0.264208 -0.225648
O85   O     O_3   0.017438 0.386556 0.428687 -0.464347
H83   H     H_    0.987437 0.378311 0.442111 0.378398
S8    S     S_3+6 0.961460 0.560567 0.269566 0.064185
O86   O     O_2   0.921082 0.552287 0.299440 -0.252735
O87   O     O_2   0.969762 0.618075 0.267077 -0.279063
O88   O     O_3   0.911080 0.535633 0.150471 -0.540392
H84   H     H_    0.864363 0.554516 0.106283 0.382588
O89   O     O_3   0.362936 0.788198 0.333249 -0.586210
C157  C     C_3   0.313778 0.750648 0.255569 -0.243210
H85   H     H_    0.258847 0.758622 0.223229 0.179777
H86   H     H_    0.327177 0.709727 0.282742 0.141640
H87   H     H_    0.310323 0.754421 0.191989 0.163184
O90   O     O_3   0.436927 0.340939 0.479914 -0.544592
C158  C     C_3   0.470750 0.360490 0.577681 -0.238951
H88   H     H_    0.525039 0.377248 0.619321 0.160934
H89   H     H_    0.436857 0.392316 0.566346 0.176612
H90   H     H_    0.475738 0.330808 0.626049 0.115970
O91   O     O_3   0.862912 0.288135 0.333194 -0.586346
C159  C     C_3   0.813777 0.250559 0.255564 -0.243135
H91   H     H_    0.758848 0.258510 0.223246 0.179815
H92   H     H_    0.827221 0.209646 0.282781 0.141623
H93   H     H_    0.810295 0.254326 0.191957 0.163150
O92   O     O_3   0.936818 0.840903 0.479721 -0.544607
C160  C     C_3   0.970701 0.860527 0.577478 -0.239611
H94   H     H_    0.024380 0.878123 0.618137 0.161958
H95   H     H_    0.936148 0.891737 0.566174 0.176418
H96   H     H_    0.976980 0.830695 0.626769 0.115607
O93   O     O_3   0.521721 0.644760 0.145843 -0.585116
C161  C     C_3   0.517873 0.620338 0.210525 -0.088325
H97   H     H_    0.572489 0.605903 0.278656 0.181005
H98   H     H_    0.483220 0.584947 0.172710 0.164253
H99   H     H_    0.500593 0.647125 0.238045 0.145994
O94   O     O_3   0.619712 0.357233 0.187308 -0.601887
C162  C     C_3   0.656487 0.363116 0.156989 -0.289135
H100  H     H_    0.637131 0.397966 0.108268 0.197526
H101  H     H_    0.650705 0.327845 0.115925 0.149826
H102  H     H_    0.715374 0.368749 0.227058 0.195543
O95   O     O_3   0.021806 0.144727 0.145827 -0.585162
C163  C     C_3   0.017988 0.120261 0.210508 -0.088248
H103  H     H_    0.983340 0.084869 0.172670 0.164253
H104  H     H_    0.000726 0.147022 0.238085 0.146072
H105  H     H_    0.072610 0.105816 0.278600 0.180944
O96   O     O_3   0.119663 0.857245 0.187283 -0.601851
C164  C     C_3   0.156416 0.863158 0.156935 -0.289232
H106  H     H_    0.137033 0.898012 0.108212 0.197506
H107  H     H_    0.150643 0.827896 0.115860 0.149819
H108  H     H_    0.215303 0.868804 0.226991 0.195545
O97   O     O_3   0.371762 0.629676 0.044747 -0.617670
C165  C     C_3   0.342935 0.591266 0.968361 -0.243423
H109  H     H_    0.383961 0.578807 0.968039 0.172105
H110  H     H_    0.292612 0.604643 0.890537 0.206320
H111  H     H_    0.327939 0.556839 0.986092 0.164538
O98   O     O_3   0.523768 0.442229 0.086903 -0.581153
C166  C     C_3   0.554253 0.448804 0.187840 -0.183072
H112  H     H_    0.613811 0.441991 0.245770 0.219207
H113  H     H_    0.527963 0.423907 0.203669 0.139645
H114  H     H_    0.546589 0.489749 0.197793 0.149552
O99   O     O_3   0.871867 0.129581 0.044807 -0.617720
C167  C     C_3   0.843024 0.091172 0.968413 -0.243317
H115  H     H_    0.884042 0.078707 0.968081 0.172174
H116  H     H_    0.792699 0.104549 0.890591 0.206328
H117  H     H_    0.828023 0.056751 0.986147 0.164519
O100  O     O_3   0.023663 0.942214 0.086906 -0.581170
C168  C     C_3   0.054174 0.948773 0.187860 -0.183052
H118  H     H_    0.113736 0.941982 0.245765 0.219213
H119  H     H_    0.027918 0.923850 0.203716 0.139689
H120  H     H_    0.046487 0.989708 0.197826 0.149435

loop_
_geom_bond_atom_site_label_1
_geom_bond_atom_site_label_2
_ccdc_geom_bond_type
C124  O36   A    
O32   Zn8   S    
C55   C59   A    
C69   H1    S    
C27   O91   S    
C136  C140  A    
O5    Zn1   S    
C128  O40   A    
O38   Zn6   S    
S3    O68   D    
S5    O77   D    
O14   Zn6   S    
C133  C137  A    
C108  H20   S    
C46   C62   S    
O26   Zn2   S    
C151  H59   S    
O33   Zn9   S    
C95   C99   A    
C149  H53   S    
O4    Zn16  S    
C3    C74   S    
C9    C13   A    
C91   O31   A    
C54   C74   A    
C11   C15   A    
C12   C16   A    
O39   Zn7   S    
C155  H75   S    
C70   C74   A    
C52   S4    S    
C139  H27   S    
O46   Zn10  S    
S4    O72   S    
C160  H96   S    
O36   Zn12  S    
C88   C95   A    
C128  O48   A    
O7    Zn3   S    
C20   C132  S    
C41   C49   A    
O92   C160  S    
C4    O24   A    
C25   C29   A    
C89   C113  S    
O17   Zn9   S    
C27   C31   A    
O75   C155  S    
C162  H100  S    
C79   O75   S    
O2    Zn6   S    
C131  O51   A    
C153  H69   S    
O66   H66   S    
C91   O7    A    
C17   C21   A    
C103  C112  A    
C135  C139  A    
C33   O93   S    
O4    Zn4   S    
C10   C30   A    
S3    O67   D    
C23   O55   S    
C16   C20   A    
O69   H67   S    
C132  O52   A    
C43   O59   S    
C94   C122  S    
O63   H65   S    
C148  H51   S    
C117  H9    S    
C164  H106  S    
C18   C130  S    
S2    O64   D    
C143  H29   S    
O41   Zn13  S    
O95   C163  S    
C90   O30   A    
C41   O57   S    
O43   Zn15  S    
C98   H6    S    
S5    O79   S    
C166  H113  S    
C30   C127  S    
C68   H40   S    
C13   C133  A    
C151  H61   S    
O47   Zn11  S    
C93   C121  S    
O79   H81   S    
C146  H45   S    
C163  H104  S    
C57   C61   A    
C14   C134  A    
O97   C165  S    
C59   C63   A    
C60   C64   A    
O30   Zn6   S    
C3    O23   A    
C50   S2    S    
C51   S3    S    
C66   C70   A    
C155  H77   S    
C49   C53   A    
S8    O86   D    
C51   C55   A    
C150  H57   S    
O3    Zn15  S    
O22   Zn14  S    
C165  H109  S    
O1    Zn13  S    
C61   C65   A    
C130  O42   A    
C144  H30   S    
C158  H88   S    
C34   C58   A    
C102  C109  A    
C103  C107  A    
C168  H118  S    
C2    C75   S    
C71   H3    S    
C154  H73   S    
C47   O27   A    
O88   H84   S    
C102  H14   S    
C7    C143  A    
C97   C98   A    
O37   Zn5   S    
C85   C86   A    
C100  H8    S    
C64   C68   A    
O25   Zn1   S    
C125  O45   A    
O53   C145  S    
O8    Zn4   S    
C166  H112  S    
C159  H91   S    
O24   Zn16  S    
C161  H97   S    
O3    Zn11  S    
C139  C143  A    
O1    Zn1   S    
C159  H92   S    
O96   C164  S    
C164  H108  S    
C145  H42   S    
C107  C108  A    
O10   Zn14  S    
C2    O22   A    
O16   Zn8   S    
O45   Zn9   S    
C44   C52   A    
C90   C114  S    
C156  H79   S    
O12   Zn16  S    
C135  H23   S    
S4    O71   D    
O40   Zn8   S    
C62   C66   A    
C48   O28   A    
C167  H115  S    
C158  H89   S    
C10   C14   A    
C162  H102  S    
C145  H43   S    
S8    O88   S    
C45   O25   A    
C116  C120  A    
O48   Zn12  S    
C161  H99   S    
C5    C9    A    
S1    O61   D    
C86   C93   A    
C83   C84   A    
C8    C12   A    
C124  O12   A    
C152  H62   S    
C114  C118  A    
O56   C148  S    
C168  H120  S    
C49   S1    S    
C4    C73   S    
C67   H39   S    
C109  C114  A    
C42   C50   A    
C113  C117  A    
C78   C85   A    
C147  H48   S    
C107  H19   S    
C26   C30   A    
S6    O81   D    
S7    O84   D    
C105  H17   S    
C16   C136  A    
C93   C97   A    
O2    Zn10  S    
C90   O6    A    
C95   C123  S    
C123  O35   A    
C18   C22   A    
C1    C76   S    
C121  O33   A    
C1    O13   A    
C24   C28   A    
O76   C156  S    
C125  O37   A    
S6    O82   S    
C48   O20   A    
C115  C119  A    
C159  H93   S    
C13   C17   A    
C151  H60   S    
O54   C146  S    
O94   C162  S    
C37   O97   S    
C117  C118  A    
C38   O98   S    
C147  H49   S    
C96   C100  A    
C118  H10   S    
C158  H90   S    
C149  H54   S    
C37   C41   A    
C21   O53   S    
C92   O8    A    
C4    O16   A    
O19   Zn11  S    
C155  H76   S    
C157  H85   S    
C129  O41   A    
O59   C151  S    
C97   H5    S    
O58   C150  S    
O23   Zn15  S    
C24   O56   S    
C160  H95   S    
C58   C62   A    
C87   C88   A    
C149  H55   S    
O6    Zn2   S    
C167  H117  S    
C80   C84   A    
O89   C157  S    
O15   Zn7   S    
O55   C147  S    
C22   O54   S    
C35   O95   S    
O13   Zn5   S    
C50   C54   A    
C122  O10   A    
S1    O63   S    
C132  O44   A    
C47   C63   S    
C42   O58   S    
C8    H36   S    
C48   C64   S    
C94   C98   A    
C153  H70   S    
C120  H12   S    
C152  H64   S    
C35   C59   A    
O50   Zn2   S    
C21   C25   A    
C111  C112  A    
C33   C57   A    
O91   C159  S    
C134  H22   S    
C69   C73   A    
C111  C116  A    
C6    C142  A    
C153  H71   S    
C101  H13   S    
C2    O14   A    
C148  H50   S    
C6    H34   S    
C123  O11   A    
S2    O65   D    
C104  H16   S    
C121  O9    A    
C79   C88   A    
S3    O69   S    
S5    O78   D    
O18   Zn10  S    
C80   O76   S    
O3    Zn7   S    
C138  C142  A    
C39   O99   S    
C53   C57   A    
C142  H32   S    
C36   C60   A    
C130  O50   A    
C33   C37   A    
C56   C60   A    
C68   C72   A    
S2    O66   S    
C35   C39   A    
C145  H41   S    
C133  H21   S    
C28   C32   A    
S8    O87   D    
C47   O19   A    
O28   Zn4   S    
C165  H110  S    
C136  H24   S    
C36   O96   S    
O35   Zn11  S    
O4    Zn8   S    
C104  C108  A    
C89   O29   A    
O42   Zn14  S    
C137  C141  A    
O51   Zn3   S    
C140  C144  A    
C165  H111  S    
C6    C10   A    
O3    Zn3   S    
C119  C120  A    
C105  C106  A    
O31   Zn7   S    
C157  H86   S    
O49   Zn1   S    
O29   Zn5   S    
C101  C110  A    
C150  H56   S    
C34   O94   S    
C46   O26   A    
C109  C110  A    
C79   C83   A    
C43   C51   A    
O73   C153  S    
C65   C69   A    
C45   C61   S    
C91   C115  S    
C92   O32   A    
C67   C71   A    
C106  H18   S    
C161  H98   S    
O2    Zn14  S    
O21   Zn13  S    
C154  H72   S    
C131  O43   A    
C46   O18   A    
O100  C168  S    
C81   S5    S    
C77   C81   A    
C22   C26   A    
C148  H52   S    
C164  H107  S    
C89   O5    A    
C26   O90   S    
O44   Zn16  S    
C166  H114  S    
S7    O83   D    
C56   C76   A    
C138  H26   S    
C156  H78   S    
C14   C18   A    
C19   C23   A    
O99   C167  S    
C72   C76   A    
C146  H46   S    
C163  H103  S    
C81   C82   A    
C65   H37   S    
O82   H82   S    
C7    C11   A    
O34   Zn10  S    
C25   O89   S    
C126  O46   A    
C167  H116  S    
C38   C42   A    
C80   C87   A    
C162  H101  S    
C19   C131  S    
C15   C135  A    
C150  H58   S    
C78   C82   A    
C83   S7    S    
C15   C19   A    
C66   H38   S    
C20   C24   A    
O11   Zn15  S    
C3    O15   A    
O4    Zn12  S    
O9    Zn13  S    
C168  H119  S    
C1    O21   A    
C137  H25   S    
C127  O39   A    
C154  H74   S    
C11   C31   A    
C140  H28   S    
O2    Zn2   S    
C12   C32   A    
C101  C105  A    
C44   O60   S    
C63   C67   A    
C96   C124  S    
C17   C129  S    
C36   C40   A    
C147  H47   S    
C39   C43   A    
C84   S8    S    
O72   H68   S    
C72   H4    S    
C99   H7    S    
O52   Zn4   S    
C129  O49   A    
C32   C125  S    
O74   C154  S    
C92   C116  S    
C85   C94   A    
C5    C141  A    
C99   C100  A    
C40   C44   A    
C87   C96   A    
C127  O47   A    
O57   C149  S    
C7    H35   S    
C8    C144  A    
C28   O92   S    
C110  C113  A    
C5    H33   S    
O20   Zn12  S    
C70   H2    S    
C77   C86   A    
C23   C27   A    
C156  H80   S    
O27   Zn3   S    
S7    O85   S    
C146  H44   S    
C163  H105  S    
S4    O70   D    
C40   O100  S    
O1    Zn9   S    
C160  H94   S    
C54   C58   A    
C119  H11   S    
C122  O34   A    
C34   C38   A    
C53   C73   A    
C82   S6    S    
C134  C138  A    
C104  C111  A    
C126  O38   A    
C9    C29   A    
C157  H87   S    
C77   O73   S    
C78   O74   S    
O60   C152  S    
C55   C75   A    
S1    O62   D    
O93   C161  S    
C71   C75   A    
C103  H15   S    
O85   H83   S    
C152  H63   S    
C102  C106  A    
O90   C158  S    
C45   O17   A    
S6    O80   D    
C29   C128  S    
C141  H31   S    
O98   C166  S    
C31   C126  S    
C112  C115  A    
O1    Zn5   S    
C52   C56   A    
