data_mof_unit_5144.cif
_audit_creation_date              2012-12-11T16:17:54-0500
_audit_creation_method            fapswitch 2.2
_symmetry_space_group_name_H-M    P1
_symmetry_Int_Tables_number       1
_space_group_crystal_system       triclinic
_cell_length_a                    6.933515
_cell_length_b                    28.772134
_cell_length_c                    32.063077
_cell_angle_alpha                 101.117426
_cell_angle_beta                  89.998241
_cell_angle_gamma                 90.336524
_cell_volume                      6276.18279064

loop_
_atom_site_label
_atom_site_type_symbol
_atom_type_description
_atom_site_fract_x
_atom_site_fract_y
_atom_site_fract_z
_atom_type_partial_charge
O1    O     O_R   0.494350 0.453160 0.452490 -0.513194
O2    O     O_R   0.820990 0.455850 0.538220 -0.544605
O3    O     O_R   0.994300 0.546840 0.547510 -0.539229
C1    C     C_R   0.652066 0.445811 0.551676 0.718897
O4    O     O_R   0.823860 0.447580 0.452250 -0.540614
O5    O     O_R   0.997190 0.538510 0.460920 -0.539529
C2    C     C_R   0.654180 0.434010 0.436873 0.713611
O6    O     O_R   0.491450 0.461490 0.539080 -0.538943
O7    O     O_3   0.661790 0.529840 0.502950 -0.372991
V1    V     V_3+5 0.935470 0.494460 0.499450 1.418507
O8    O     O_R   0.327090 0.544150 0.461780 -0.539152
C3    C     C_R   0.158399 0.554316 0.448260 0.729090
O9    O     O_R   0.324210 0.552420 0.547750 -0.544253
C4    C     C_R   0.155408 0.564552 0.564153 0.712393
V2    V     V_3+5 0.435840 0.505540 0.500550 1.428851
O10   O     O_3   0.159650 0.470160 0.497050 -0.356267
C5    C     C_R   0.996729 0.602853 0.634058 0.152481
C6    C     C_R   0.991533 0.639250 0.670560 0.205013
C7    C     C_R   0.132215 0.675767 0.677047 -0.077807
C8    C     C_R   0.282432 0.674242 0.646754 0.151514
C9    C     C_R   0.287547 0.637689 0.610810 -0.156274
C10   C     C_R   0.145137 0.602151 0.603406 -0.179683
N1    N     N_R   0.274798 0.732946 0.737748 -0.283046
N2    N     N_R   0.258105 0.767232 0.772108 -0.283738
C11   C     C_R   0.082503 0.785222 0.785298 0.534803
N3    N     N_R   0.925152 0.767783 0.762101 -0.248518
N4    N     N_R   0.941823 0.733656 0.727726 -0.236694
C12   C     C_R   0.116847 0.715294 0.714811 0.555958
C13   C     C_R   0.891419 0.830889 0.848147 0.216596
C14   C     C_R   0.883162 0.867389 0.884521 -0.192979
H1    H     H_    0.750334 0.872955 0.902542 0.122719
C15   C     C_R   0.044551 0.896183 0.897999 -0.078484
C16   C     C_R   0.215282 0.888169 0.874193 -0.160735
H2    H     H_    0.342105 0.909903 0.883358 0.125981
C17   C     C_R   0.224297 0.852587 0.837762 -0.188418
H3    H     H_    0.357004 0.848429 0.819792 0.135940
C18   C     C_R   0.064251 0.823334 0.824109 0.020932
C19   C     C_R   0.124212 0.656560 0.282342 0.564748
N5    N     N_R   0.124304 0.676139 0.324883 -0.558929
C20   C     C_R   0.117329 0.724313 0.338456 0.579275
C21   C     C_R   0.107423 0.754727 0.308858 -0.052188
C22   C     C_R   0.102942 0.735158 0.265153 -0.016768
C23   C     C_R   0.111031 0.685578 0.251687 -0.019567
C24   C     C_R   0.100809 0.804091 0.322048 -0.203942
C25   C     C_R   0.090093 0.834194 0.292456 0.202432
C26   C     C_R   0.084797 0.814891 0.248234 -0.031629
C27   C     C_R   0.090507 0.765100 0.234844 -0.069783
C28   C     C_R   0.083459 0.744996 0.191116 -0.017848
C29   C     C_R   0.090598 0.695481 0.178133 -0.133156
C30   C     C_R   0.105130 0.666179 0.208005 -0.139863
C31   C     C_R   0.074810 0.843418 0.216749 0.602399
N6    N     N_R   0.068472 0.823105 0.174380 -0.570264
C32   C     C_R   0.069802 0.774891 0.161296 0.563700
O11   O     O_2   0.137021 0.609164 0.269701 -0.519687
O12   O     O_2   0.118729 0.742764 0.380460 -0.519947
O13   O     O_2   0.072645 0.891035 0.228144 -0.486515
O14   O     O_2   0.057679 0.755882 0.119480 -0.518129
C33   C     C_R   0.226265 0.861338 0.119800 0.232883
C34   C     C_R   0.216191 0.891562 0.090323 -0.159276
H4    H     H_    0.345225 0.897574 0.073000 0.147572
C35   C     C_R   0.041710 0.913505 0.082934 -0.123386
C36   C     C_R   0.877512 0.905015 0.106211 -0.179468
C37   C     C_R   0.888004 0.875638 0.136244 -0.091630
C38   C     C_R   0.060682 0.853136 0.143025 0.325995
C39   C     C_R   0.302814 0.641139 0.377674 -0.092762
H5    H     H_    0.429138 0.660894 0.371525 0.145127
C40   C     C_R   0.312619 0.611445 0.407468 -0.182485
H6    H     H_    0.448393 0.608559 0.423443 0.148329
C41   C     C_R   0.148685 0.586237 0.416784 -0.126618
C42   C     C_R   0.974819 0.591623 0.395498 -0.157904
H7    H     H_    0.845898 0.572832 0.402069 0.145994
C43   C     C_R   0.965205 0.620756 0.365124 0.229853
C44   C     C_R   0.130881 0.645635 0.355843 0.329433
C45   C     C_R   0.641764 0.221425 0.835866 0.574644
N7    N     N_R   0.589528 0.174745 0.823457 -0.562735
C46   C     C_R   0.546500 0.156256 0.781685 0.606524
C47   C     C_R   0.548721 0.185314 0.750602 -0.031210
C48   C     C_R   0.603525 0.233377 0.763271 -0.065689
C49   C     C_R   0.652278 0.251406 0.806047 -0.020327
C50   C     C_R   0.497929 0.168164 0.707443 0.204521
C51   C     C_R   0.502484 0.198701 0.678184 -0.200055
C52   C     C_R   0.557968 0.246296 0.690607 -0.060309
C53   C     C_R   0.609427 0.263677 0.733199 -0.016618
C54   C     C_R   0.666544 0.311437 0.745800 -0.029757
C55   C     C_R   0.716430 0.328710 0.788447 -0.135162
C56   C     C_R   0.708592 0.299143 0.818211 -0.129933
C57   C     C_R   0.562989 0.277081 0.661332 0.635427
N8    N     N_R   0.620465 0.323339 0.673971 -0.527917
C58   C     C_R   0.672487 0.340770 0.715318 0.625113
O15   O     O_2   0.680864 0.239091 0.877119 -0.517646
O16   O     O_2   0.503561 0.109759 0.770327 -0.490830
H8    H     H_    0.462299 0.184716 0.645491 0.171711
O17   O     O_2   0.510332 0.260930 0.620579 -0.523218
O18   O     O_2   0.730548 0.386272 0.726883 -0.518266
H9    H     H_    0.760852 0.365231 0.799049 0.173094
H10   H     H_    0.747147 0.313874 0.850835 0.173346
C59   C     C_R   0.487278 0.389271 0.643528 0.171330
C60   C     C_R   0.494044 0.418559 0.613152 -0.253858
H11   H     H_    0.385080 0.445545 0.613828 0.137823
C61   C     C_R   0.642524 0.413930 0.582858 -0.091701
C62   C     C_R   0.783453 0.379073 0.582955 -0.267788
C63   C     C_R   0.775462 0.348815 0.612490 0.173230
C64   C     C_R   0.627751 0.354008 0.643173 0.409247
C65   C     C_R   0.401574 0.121467 0.860359 -0.119146
H12   H     H_    0.278091 0.126701 0.841120 0.128243
C66   C     C_R   0.386402 0.090959 0.889713 0.172954
C67   C     C_R   0.547346 0.084932 0.915534 -0.076881
C68   C     C_R   0.720696 0.108771 0.909995 -0.254917
H13   H     H_    0.846082 0.104957 0.929153 0.173124
C69   C     C_R   0.735051 0.137938 0.879863 -0.093521
C70   C     C_R   0.575456 0.144736 0.854875 0.335800
C71   C     C_R   0.470991 0.367009 0.389172 0.205730
C72   C     C_R   0.463043 0.331581 0.352072 -0.163777
C73   C     C_R   0.622744 0.321881 0.324845 -0.012482
C74   C     C_R   0.792837 0.348333 0.335474 -0.131702
H14   H     H_    0.918978 0.341822 0.315326 0.153229
C75   C     C_R   0.801818 0.384142 0.371900 -0.213853
C76   C     C_R   0.641758 0.394424 0.399063 -0.067586
N9    N     N_R   0.769794 0.270384 0.261828 -0.272481
N10   N     N_R   0.758058 0.236649 0.226916 -0.277400
C77   C     C_R   0.586565 0.215368 0.214139 0.518061
N11   N     N_R   0.427471 0.229375 0.237920 -0.273821
N12   N     N_R   0.439295 0.262988 0.272863 -0.277969
C78   C     C_R   0.610622 0.284287 0.285663 0.530581
C79   C     C_R   0.393117 0.158707 0.159810 -0.121960
H15   H     H_    0.261123 0.171754 0.175835 0.138964
C80   C     C_R   0.380659 0.122809 0.123457 -0.151253
H16   H     H_    0.239621 0.109186 0.112692 0.118176
C81   C     C_R   0.548041 0.104450 0.101619 -0.050781
C82   C     C_R   0.728042 0.123300 0.117005 -0.150517
H17   H     H_    0.860217 0.110200 0.101080 0.121737
C83   C     C_R   0.740386 0.159357 0.153187 -0.125810
C84   C     C_R   0.573205 0.177462 0.175228 0.019592
O19   O     O_R   0.699050 0.038480 0.960880 -0.539901
O20   O     O_R   0.366680 0.052470 0.047720 -0.541467
O21   O     O_R   0.193410 0.961530 0.039110 -0.541210
C85   C     C_R   0.536003 0.065550 0.063446 0.690932
O22   O     O_R   0.369510 0.044100 0.961740 -0.516582
O23   O     O_R   0.196260 0.953110 0.952520 -0.539277
C86   C     C_R   0.538075 0.053676 0.947695 0.727396
O24   O     O_R   0.696210 0.046900 0.047470 -0.540579
O25   O     O_3   0.528780 0.970170 0.997070 -0.371482
V3    V     V_3+5 0.255080 0.005530 0.000540 1.436267
O26   O     O_R   0.866350 0.947520 0.952280 -0.542028
C87   C     C_R   0.034983 0.934665 0.936429 0.708030
O27   O     O_R   0.863520 0.955880 0.038260 -0.539983
C88   C     C_R   0.032210 0.945681 0.051719 0.716901
V4    V     V_3+5 0.754720 0.994440 0.999470 1.417666
O28   O     O_3   0.030880 0.029830 0.002930 -0.361101
N13   N     N_3   0.852267 0.566277 0.629865 -0.674871
H18   H     H_    0.761901 0.568841 0.604343 0.248829
H19   H     H_    0.919365 0.533210 0.624519 0.229832
N14   N     N_3   0.084019 0.884329 0.307918 -0.578173
H20   H     H_    0.964274 0.891725 0.327871 0.234734
H21   H     H_    0.207852 0.894231 0.326163 0.235847
H22   H     H_    0.085801 0.679144 0.144758 0.173853
H23   H     H_    0.110767 0.628227 0.196719 0.174035
N15   N     N_3   0.406891 0.840069 0.126377 -0.675104
H24   H     H_    0.437740 0.847892 0.158900 0.228564
H25   H     H_    0.392124 0.803359 0.117328 0.268699
H26   H     H_    0.741496 0.921749 0.101784 0.145739
H27   H     H_    0.762032 0.870571 0.154677 0.146413
N16   N     N_3   0.844322 0.638488 0.701907 -0.613722
H28   H     H_    0.855981 0.606881 0.713219 0.260177
H29   H     H_    0.709794 0.638789 0.687236 0.257568
N17   N     N_3   0.785040 0.625247 0.344544 -0.673960
H30   H     H_    0.753311 0.661295 0.348380 0.228859
H31   H     H_    0.800893 0.611837 0.312068 0.268087
N18   N     N_3   0.439400 0.119921 0.692827 -0.579782
H32   H     H_    0.300642 0.119836 0.680031 0.233960
H33   H     H_    0.532602 0.104693 0.668411 0.236568
N19   N     N_3   0.338416 0.395452 0.675027 -0.629488
H34   H     H_    0.205233 0.392941 0.659486 0.232354
H35   H     H_    0.350777 0.429814 0.692870 0.257021
H36   H     H_    0.898563 0.374792 0.559689 0.143080
N20   N     N_3   0.916910 0.312527 0.611324 -0.631430
H37   H     H_    0.053390 0.328399 0.613780 0.237548
H38   H     H_    0.908426 0.290044 0.581583 0.253421
N21   N     N_3   0.428363 0.710293 0.650621 -0.646400
H39   H     H_    0.512065 0.709103 0.677468 0.272211
H40   H     H_    0.361667 0.743330 0.654350 0.248390
N22   N     N_3   0.209897 0.065209 0.892361 -0.648502
H41   H     H_    0.238130 0.029381 0.880787 0.221662
H42   H     H_    0.105085 0.074933 0.872281 0.222894
H43   H     H_    0.871170 0.155215 0.875907 0.142294
N23   N     N_3   0.307177 0.374422 0.417129 -0.642522
H44   H     H_    0.346024 0.363512 0.445236 0.220225
H45   H     H_    0.191406 0.352855 0.404369 0.218794
H46   H     H_    0.331538 0.311129 0.344764 0.137763
H47   H     H_    0.934086 0.404443 0.378444 0.154552
H48   H     H_    0.402593 0.637724 0.587928 0.157365
H49   H     H_    0.881547 0.172797 0.164032 0.133449
N24   N     N_3   0.726214 0.800893 0.836367 -0.614785
H50   H     H_    0.625974 0.805218 0.861168 0.232795
H51   H     H_    0.659283 0.812387 0.811018 0.246815
H52   H     H_    0.104107 0.819799 0.355596 0.173311

loop_
_geom_bond_atom_site_label_1
_geom_bond_atom_site_label_2
_ccdc_geom_bond_type
C37   H27   S    
N15   H25   S    
C57   N8    A    
C69   H43   S    
C20   C21   A    
C62   C63   A    
C21   C22   A    
C29   H22   S    
O2    C1    A    
C7    C8    A    
C1    O6    A    
C65   C66   A    
C73   C74   A    
N12   C78   A    
C55   C56   A    
N10   C77   A    
N3    N4    A    
C36   C37   A    
C59   N19   S    
C53   C54   A    
N16   H29   S    
C6    C7    A    
O21   V3    S    
O22   V3    S    
C52   C57   A    
C71   N23   S    
C19   N5    A    
C9    H48   S    
C36   H26   S    
C66   C67   A    
C63   N20   S    
C74   H14   S    
C60   H11   S    
C58   O18   S    
C39   C44   A    
C68   H13   S    
C5    C6    A    
C31   O13   S    
N18   H32   S    
C67   C86   S    
C29   C30   A    
N22   H41   S    
C71   C72   A    
O24   V4    S    
C11   C18   S    
C69   C70   A    
C51   H8    S    
O23   V3    S    
C48   C53   A    
C66   N22   S    
N16   H28   S    
C83   C84   A    
C74   C75   A    
C28   C29   A    
C67   C68   A    
C42   H7    S    
O1    V2    S    
N14   H21   S    
O7    V1    S    
C83   H49   S    
O26   V4    S    
C22   C27   A    
C73   C78   S    
N8    C58   A    
O20   V3    S    
C34   H4    S    
N9    C78   A    
O9    C4    A    
N17   H31   S    
N18   H33   S    
C2    C76   S    
N17   H30   S    
C63   C64   A    
O8    V2    S    
C50   N18   S    
O5    C3    A    
O4    V1    S    
C65   H12   S    
N19   H35   S    
C59   C60   A    
C8    N21   S    
O27   V4    S    
C30   H23   S    
C33   C38   A    
C28   C32   A    
C34   C35   A    
C24   H52   S    
C45   N7    A    
O27   C88   A    
C31   N6    A    
O25   V4    S    
C54   C55   A    
N2    C11   A    
N6    C38   S    
N5    C20   A    
O4    C2    A    
C32   O14   S    
C48   C49   A    
C50   C51   A    
C15   C87   S    
C39   C40   A    
C11   N3    A    
C47   C48   A    
C26   C31   A    
C51   C52   A    
C40   H6    S    
C40   C41   A    
C17   H3    S    
N15   H24   S    
C82   C83   A    
N7    C46   A    
C80   C81   A    
C13   C14   A    
C71   C76   A    
C6    N16   S    
C27   C28   A    
C19   O11   S    
N1    N2    A    
C20   O12   S    
N24   H51   S    
C16   H2    S    
N1    C12   A    
C46   C47   A    
N9    N10   A    
C7    C12   S    
C77   N11   A    
C59   C64   A    
O3    C4    A    
C56   H10   S    
N23   H44   S    
N5    C44   S    
C41   C42   A    
N20   H37   S    
C3    C41   S    
C52   C53   A    
O6    V2    S    
C60   C61   A    
C45   C49   A    
C1    C61   S    
C33   N15   S    
C79   H15   S    
C21   C24   A    
N13   H19   S    
C62   H36   S    
C25   N14   S    
C54   C58   A    
N23   H45   S    
C80   H16   S    
O2    V1    S    
N8    C64   S    
C72   H46   S    
N19   H34   S    
C72   C73   A    
C47   C50   A    
C79   C84   A    
O20   C85   A    
C85   O24   A    
C26   C27   A    
O23   C87   A    
N22   H42   S    
C17   C18   A    
O1    C2    A    
C43   N17   S    
C24   C25   A    
C43   C44   A    
O5    V1    S    
C65   C70   A    
O8    C3    A    
C23   C30   A    
N11   N12   A    
O22   C86   A    
O19   C86   A    
N21   H39   S    
O19   V4    S    
N7    C70   S    
C5    C10   A    
N13   H18   S    
O26   C87   A    
C15   C16   A    
C45   O15   S    
O9    V2    S    
C82   H17   S    
C35   C88   S    
C19   C23   A    
O3    V1    S    
V1    O10   S    
C75   C76   A    
C14   C15   A    
C55   H9    S    
C4    C10   S    
C14   H1    S    
C81   C82   A    
C13   N24   S    
C57   O17   S    
N20   H38   S    
C61   C62   A    
C16   C17   A    
C68   C69   A    
V4    O28   S    
C39   H5    S    
O7    V2    S    
C35   C36   A    
C33   C34   A    
O21   C88   A    
C75   H47   S    
C46   O16   S    
C37   C38   A    
C25   C26   A    
V3    O28   S    
C81   C85   S    
C8    C9    A    
N24   H50   S    
C22   C23   A    
C13   C18   A    
N4    C12   A    
C79   C80   A    
O25   V3    S    
C42   C43   A    
C77   C84   S    
N14   H20   S    
C9    C10   A    
C49   C56   A    
V2    O10   S    
N6    C32   A    
N21   H40   S    
C5    N13   S    
