data_mof_unit_55866.cif
_audit_creation_date              2013-03-05T16:20:26-0500
_audit_creation_method            fapswitch 2.2
_symmetry_space_group_name_H-M    P1
_symmetry_Int_Tables_number       1
_space_group_crystal_system       triclinic
_cell_length_a                    15.765987
_cell_length_b                    15.005119
_cell_length_c                    10.496991
_cell_angle_alpha                 90.142283
_cell_angle_beta                  90.416653
_cell_angle_gamma                 89.721536
_cell_volume                      2483.17609789

loop_
_atom_site_label
_atom_site_type_symbol
_atom_site_description
_atom_site_fract_x
_atom_site_fract_y
_atom_site_fract_z
_atom_type_partial_charge
O1    O     O_R   0.377210 0.574260 0.500130 -0.607528
O2    O     O_R   0.377210 0.425740 0.500130 -0.616199
C1    C     C_R   0.337980 0.500201 0.498545 0.911287
O3    O     O_R   0.500050 0.574220 0.314080 -0.618178
O4    O     O_R   0.500050 0.425780 0.314080 -0.625697
C2    C     C_R   0.500666 0.499836 0.257018 0.873105
Zn1   Zn    Zn3+2 0.500090 0.599130 0.500180 0.960784
Zn2   Zn    Zn3+2 0.500090 0.400870 0.500180 0.960519
O5    O     O_R   0.622930 0.574200 0.500140 -0.615735
O6    O     O_R   0.622930 0.425800 0.500140 -0.609515
O7    O     O_R   0.500090 0.574240 0.686180 -0.623319
O8    O     O_R   0.500090 0.425760 0.686180 -0.614128
C3    C     C_R   0.662105 0.499766 0.501749 0.904205
C4    C     C_R   0.500844 0.500211 0.743247 0.879294
C5    C     C_3   0.435881 0.550236 0.042409 -0.191898
C6    C     C_3   0.492935 0.415373 0.040702 -0.153218
C7    C     C_3   0.428482 0.466636 0.958258 0.232929
H1    H     H_    0.384723 0.591916 0.083613 0.133991
H2    H     H_    0.484955 0.346843 0.078205 0.138010
C8    C     C_3   0.501230 0.500786 0.877870 0.019600
C9    C     C_3   0.509609 0.584756 0.960213 -0.178694
C10   C     C_3   0.566651 0.450309 0.958553 -0.227234
C11   C     C_3   0.574979 0.534197 0.043436 -0.180808
C12   C     C_3   0.501268 0.499491 0.122523 -0.002125
H3    H     H_    0.516207 0.653548 0.923100 0.170313
H4    H     H_    0.619944 0.410358 0.919449 0.141965
H5    H     H_    0.634701 0.561807 0.083575 0.132319
C13   C     C_3   0.050362 0.588671 0.528660 -0.423089
C14   C     C_3   0.052054 0.425070 0.576397 -0.434334
C15   C     C_3   0.954086 0.419646 0.577440 -0.011000
C16   C     C_3   0.953526 0.586109 0.551772 -0.001536
H6    H     H_    0.944686 0.584263 0.657078 0.145843
H7    H     H_    0.932793 0.429340 0.677625 0.142431
H8    H     H_    0.082520 0.605562 0.620486 0.158643
H9    H     H_    0.074286 0.444448 0.673573 0.156115
H10   H     H_    0.080393 0.358455 0.560685 0.190192
H11   H     H_    0.067717 0.642905 0.462353 0.199463
C17   C     C_1   0.750738 0.499032 0.502715 -0.201800
C18   C     C_3   0.082681 0.496495 0.478731 0.220800
C19   C     C_3   0.917330 0.497550 0.495282 0.297771
C20   C     C_3   0.945010 0.485291 0.354023 -0.433814
C21   C     C_3   0.045127 0.478534 0.339225 0.063461
C22   C     C_1   0.825855 0.498162 0.501444 -0.082438
C23   C     C_1   0.174251 0.499216 0.482449 -0.109188
C24   C     C_1   0.249349 0.500430 0.489835 -0.195938
H12   H     H_    0.915450 0.537096 0.293675 0.147143
H13   H     H_    0.912783 0.424437 0.318200 0.168563
C25   C     C_3   0.416101 0.053151 0.425012 0.035696
C26   C     C_3   0.420597 0.947349 0.415944 0.039003
C27   C     C_3   0.492775 0.053560 0.640885 -0.147393
C28   C     C_3   0.485086 0.948181 0.640738 -0.158123
H14   H     H_    0.432092 0.078066 0.681528 0.110794
H15   H     H_    0.417747 0.934149 0.663491 0.124706
N1    N     N_1   0.498630 0.731150 0.497460 -0.092330
N2    N     N_1   0.498630 0.268850 0.497460 -0.091236
C29   C     C_3   0.495245 0.090213 0.500680 0.172286
C30   C     C_3   0.495611 0.909721 0.501221 0.173984
C31   C     C_3   0.578027 0.948039 0.441400 -0.474334
C32   C     C_3   0.574781 0.051699 0.432805 -0.459608
C33   C     C_1   0.497393 0.809065 0.498363 0.019212
C34   C     C_1   0.497384 0.190917 0.498298 0.023491
H16   H     H_    0.573195 0.071397 0.330625 0.167943
H17   H     H_    0.586266 0.920248 0.343803 0.168870
H18   H     H_    0.633937 0.081056 0.471955 0.188309
H19   H     H_    0.635358 0.927183 0.494720 0.174486
H20   H     H_    0.420734 0.078864 0.325753 0.128813
H21   H     H_    0.437015 0.931387 0.315224 0.128601
C35   C     C_3   0.346107 0.428034 0.906342 -0.964230
H22   H     H_    0.359998 0.367903 0.848184 0.254757
H23   H     H_    0.304458 0.409264 0.986630 0.243970
H24   H     H_    0.313234 0.478291 0.846006 0.235801
C36   C     C_3   0.334888 0.899280 0.434971 -0.921710
H25   H     H_    0.309655 0.908253 0.532376 0.246995
H26   H     H_    0.287265 0.924427 0.365280 0.243957
H27   H     H_    0.341379 0.826767 0.416226 0.246135
C37   C     C_3   0.330701 0.090684 0.474343 -0.940381
H28   H     H_    0.313393 0.062112 0.567813 0.247556
H29   H     H_    0.332828 0.164297 0.483755 0.240500
H30   H     H_    0.279104 0.075719 0.405229 0.241528
C38   C     C_R   0.561842 0.093227 0.728096 0.145651
C39   C     C_R   0.539393 0.160023 0.816701 -0.164650
C40   C     C_R   0.600208 0.196888 0.898468 -0.126568
C41   C     C_R   0.684382 0.168317 0.892997 -0.118315
C42   C     C_R   0.707837 0.102336 0.806197 -0.148587
C43   C     C_R   0.647247 0.064923 0.724565 -0.108651
H31   H     H_    0.474619 0.183920 0.822830 0.115915
H32   H     H_    0.582027 0.247472 0.966517 0.124535
H33   H     H_    0.731347 0.197023 0.956433 0.120204
H34   H     H_    0.773049 0.079629 0.802638 0.123944
H35   H     H_    0.667554 0.012704 0.661240 0.124705
C44   C     C_R   0.531656 0.902419 0.752148 0.125840
C45   C     C_R   0.501519 0.918782 0.876351 -0.149256
C46   C     C_R   0.540452 0.879590 0.982442 -0.125256
C47   C     C_R   0.610027 0.823038 0.966628 -0.129853
C48   C     C_R   0.640800 0.805731 0.844736 -0.149933
C49   C     C_R   0.602292 0.844987 0.738193 -0.128013
H36   H     H_    0.447594 0.962542 0.890998 0.108566
H37   H     H_    0.516541 0.893061 0.077021 0.114893
H38   H     H_    0.639968 0.792407 0.048790 0.123825
H39   H     H_    0.694717 0.761649 0.832632 0.126746
H40   H     H_    0.628789 0.829492 0.646585 0.116195
C50   C     C_3   0.923031 0.325972 0.538325 -0.909006
H41   H     H_    0.945562 0.276329 0.609416 0.236185
H42   H     H_    0.852710 0.323255 0.536003 0.250359
H43   H     H_    0.947751 0.305557 0.444039 0.264609
C51   C     C_3   0.907370 0.671930 0.508401 -0.934690
H44   H     H_    0.847846 0.680327 0.563287 0.243854
H45   H     H_    0.947142 0.731515 0.527078 0.244427
H46   H     H_    0.889144 0.669890 0.406650 0.243980
C52   C     C_R   0.081605 0.548009 0.243040 0.110902
C53   C     C_R   0.041783 0.630689 0.215361 -0.182016
C54   C     C_R   0.074383 0.688686 0.124213 -0.140905
C55   C     C_R   0.147632 0.666311 0.058175 -0.111272
C56   C     C_R   0.189675 0.586905 0.085590 -0.154109
C57   C     C_R   0.158670 0.529582 0.178751 -0.131413
H47   H     H_    0.986470 0.653266 0.264439 0.132963
H48   H     H_    0.042453 0.751263 0.104655 0.123415
H49   H     H_    0.172180 0.710803 0.986437 0.120098
H50   H     H_    0.246128 0.569355 0.033689 0.136000
H51   H     H_    0.194831 0.469685 0.198265 0.135514
C58   C     C_R   0.064502 0.384776 0.280606 0.106682
C59   C     C_R   0.023201 0.361124 0.164995 -0.169077
C60   C     C_R   0.039619 0.280001 0.104323 -0.137069
C61   C     C_R   0.099435 0.221242 0.155091 -0.112589
C62   C     C_R   0.143982 0.244317 0.265264 -0.140316
C63   C     C_R   0.127874 0.325413 0.326528 -0.178817
H52   H     H_    0.978222 0.406386 0.120631 0.123979
H53   H     H_    0.006426 0.263166 0.016958 0.122099
H54   H     H_    0.112476 0.158565 0.107695 0.116742
H55   H     H_    0.192345 0.199825 0.302376 0.129362
H56   H     H_    0.168065 0.340724 0.406522 0.138792

loop_
_geom_bond_atom_site_label_1
_geom_bond_atom_site_label_2
_geom_bond_distance
_ccdc_geom_bond_type
C5    H1    1.107959 S    
C46   C47   1.394181 A    
C48   C49   1.398665 A    
C20   C21   1.589921 S    
C25   C37   1.549022 S    
C53   C54   1.397350 A    
C37   H30   1.109456 S    
C56   C57   1.396526 A    
C60   H53   1.082522 S    
C60   C61   1.392005 A    
N1    C33   1.169215 T    
Zn1   O7    1.988750 S    
C14   H10   1.105384 S    
C32   H18   1.109183 S    
C14   C15   1.547219 S    
C47   H38   1.082513 S    
C37   H29   1.109379 S    
C36   H27   1.109594 S    
C54   H48   1.082628 S    
Zn2   O6    1.974278 S    
O7    C4    1.263309 A    
C51   H44   1.111241 S    
C40   H32   1.080129 S    
C7    C8    1.520541 S    
C26   C30   1.580951 S    
C16   C19   1.562568 S    
C50   H43   1.108245 S    
C5    C7    1.536846 S    
C59   H52   1.083089 S    
O5    C3    1.273746 A    
C52   C53   1.417496 A    
C28   C44   1.537813 S    
C44   C49   1.413054 A    
C62   H55   1.082070 S    
C19   C22   1.444099 S    
C3    C17   1.397340 S    
C41   C42   1.394270 A    
C6    C7    1.534966 S    
C7    C35   1.521380 S    
C26   C36   1.549271 S    
C27   H14   1.110992 S    
C20   H12   1.103330 S    
C53   H47   1.069316 S    
C28   C30   1.582330 S    
C11   H5    1.110346 S    
C56   H50   1.078148 S    
C36   H25   1.107486 S    
C41   H33   1.082458 S    
C13   H8    1.115035 S    
C6    C12   1.530571 S    
C49   H40   1.075663 S    
C14   C18   1.565409 S    
C47   C48   1.395030 A    
O3    Zn1   1.988012 S    
Zn2   N2    1.981352 S    
C54   C55   1.390553 A    
C45   H36   1.083320 S    
C39   C40   1.397428 A    
C18   C21   1.598318 S    
C10   C11   1.545943 S    
C4    C8    1.413110 S    
C42   C43   1.397445 A    
C36   H26   1.109922 S    
C44   C45   1.411414 A    
C48   H39   1.082570 S    
C35   H22   1.109984 S    
C30   C33   1.510700 S    
C13   C18   1.562293 S    
C31   C32   1.558834 S    
C1    C24   1.399674 S    
C27   C29   1.573234 S    
O1    C1    1.274425 A    
C63   H56   1.073363 S    
C38   C43   1.410638 A    
C31   H19   1.104074 S    
C16   H6    1.115584 S    
Zn2   O8    1.986928 S    
C2    C12   1.411894 S    
C15   C50   1.544307 S    
C27   C28   1.586440 S    
C20   H13   1.110580 S    
C15   C19   1.561144 S    
C37   H28   1.108186 S    
C50   H42   1.109725 S    
C58   C59   1.418199 A    
O3    C2    1.265421 A    
C5    C12   1.527312 S    
C8    C10   1.528948 S    
C57   H51   1.081198 S    
C9    C11   1.543847 S    
C62   C63   1.397950 A    
C16   C51   1.544064 S    
C17   C22   1.184474 T    
C42   H34   1.082423 S    
C23   C24   1.186195 T    
C55   C56   1.390368 A    
C31   H17   1.113373 S    
C25   C29   1.577113 S    
C9    H3    1.109823 S    
C19   C20   1.558921 S    
C32   H16   1.113343 S    
C6    C10   1.546566 S    
C26   H21   1.115472 S    
C15   H7    1.115207 S    
O1    Zn1   1.974715 S    
C13   C16   1.548295 S    
O2    Zn2   1.971154 S    
C39   H31   1.083014 S    
O8    C4    1.266379 A    
C38   C39   1.411252 A    
O6    C3    1.272793 A    
C27   C38   1.538540 S    
O4    Zn2   1.989834 S    
C43   H35   1.075353 S    
C35   H24   1.110053 S    
C18   C23   1.444697 S    
C14   H9    1.114562 S    
C29   C32   1.554977 S    
C25   H20   1.114973 S    
C46   H37   1.082735 S    
O2    C1    1.274519 A    
C21   C52   1.567289 S    
C58   C63   1.417926 A    
C30   C31   1.560187 S    
O4    C2    1.263796 A    
C51   H45   1.110758 S    
C13   H11   1.108748 S    
C6    H2    1.110046 S    
C25   C26   1.591442 S    
N2    C34   1.169707 T    
C45   C46   1.397363 A    
C61   H54   1.082389 S    
C50   H41   1.110977 S    
C11   C12   1.527409 S    
C55   H49   1.082495 S    
Zn1   O5    1.970707 S    
C5    C9    1.544853 S    
C8    C9    1.531889 S    
C35   H23   1.109871 S    
C40   C41   1.394165 A    
C10   H4    1.110277 S    
C29   C34   1.511887 S    
Zn1   N1    1.981270 S    
C28   H15   1.111132 S    
C59   C60   1.396362 A    
C52   C57   1.419809 A    
C21   C58   1.563789 S    
C61   C62   1.392540 A    
C51   H46   1.104436 S    
