data_mof_unit_37580.cif
_audit_creation_date              2012-12-10T17:31:20-0500
_audit_creation_method            fapswitch 2.2
_symmetry_space_group_name_H-M    P1
_symmetry_Int_Tables_number       1
_space_group_crystal_system       triclinic
_cell_length_a                    19.233181
_cell_length_b                    18.493626
_cell_length_c                    12.306179
_cell_angle_alpha                 90.000011
_cell_angle_beta                  128.751315
_cell_angle_gamma                 90.000235
_cell_volume                      3413.64768594

loop_
_atom_site_label
_atom_site_type_symbol
_atom_type_description
_atom_site_fract_x
_atom_site_fract_y
_atom_site_fract_z
_atom_type_partial_charge
C1    C     C_R   0.608233 0.895799 0.648512 0.808004
C2    C     C_R   0.608233 0.104201 0.648513 0.808001
C3    C     C_R   0.108233 0.395799 0.648513 0.808003
C4    C     C_R   0.108233 0.604201 0.648513 0.808000
C5    C     C_R   0.234898 0.783311 0.028099 0.087807
C6    C     C_R   0.234901 0.216692 0.028106 0.087806
C7    C     C_R   0.734898 0.283311 0.028100 0.087807
C8    C     C_R   0.734901 0.716693 0.028107 0.087805
C9    C     C_R   0.670210 0.263950 0.043798 0.153802
C10   C     C_R   0.670224 0.736065 0.043822 0.153804
C11   C     C_R   0.170209 0.763951 0.043796 0.153802
C12   C     C_R   0.170222 0.236063 0.043819 0.153803
C13   C     C_R   0.597093 0.222647 0.942461 -0.216601
C14   C     C_R   0.597109 0.777371 0.942492 -0.216596
C15   C     C_R   0.097092 0.722648 0.942459 -0.216601
C16   C     C_R   0.097107 0.277369 0.942488 -0.216598
C17   C     C_R   0.589880 0.196405 0.830486 -0.166408
C18   C     C_R   0.589888 0.803604 0.830507 -0.166404
C19   C     C_R   0.089880 0.696406 0.830485 -0.166410
C20   C     C_R   0.089887 0.303603 0.830504 -0.166406
C21   C     C_R   0.307614 0.825097 0.132865 -0.252459
C22   C     C_R   0.307613 0.174900 0.132862 -0.252455
C23   C     C_R   0.807615 0.325097 0.132865 -0.252459
C24   C     C_R   0.807613 0.674900 0.132862 -0.252454
C25   C     C_R   0.249515 0.830703 0.259716 -0.175977
C26   C     C_R   0.249530 0.169312 0.259741 -0.175980
C27   C     C_R   0.749516 0.330702 0.259718 -0.175976
C28   C     C_R   0.749533 0.669316 0.259746 -0.175979
C29   C     C_R   0.661073 0.170129 0.721461 -0.145690
C30   C     C_R   0.661070 0.829870 0.721459 -0.145686
C31   C     C_R   0.161073 0.670129 0.721461 -0.145690
C32   C     C_R   0.161070 0.329870 0.721460 -0.145687
C33   C     C_R   0.682122 0.000000 0.284056 -0.285488
C34   C     C_R   0.182122 0.500000 0.284056 -0.285488
C35   C     C_R   0.345129 0.999998 0.628762 0.132228
C36   C     C_R   0.845129 0.499998 0.628762 0.132229
C37   C     C_R   0.311723 0.999997 0.701713 -0.185735
C38   C     C_R   0.811723 0.499997 0.701713 -0.185734
C39   C     C_R   0.384967 0.098979 0.342880 0.800923
C40   C     C_R   0.384966 0.901021 0.342879 0.800924
C41   C     C_R   0.884968 0.598979 0.342881 0.800923
C42   C     C_R   0.884967 0.401021 0.342879 0.800924
C43   C     C_R   0.369923 0.999997 0.847025 -0.170164
C44   C     C_R   0.869923 0.499997 0.847025 -0.170164
C45   C     C_R   0.462960 0.999999 0.921811 0.008325
C46   C     C_R   0.962960 0.499999 0.921811 0.008325
C47   C     C_R   0.494097 0.000000 0.842288 0.290637
C48   C     C_R   0.994097 0.500000 0.842288 0.290638
C49   C     C_R   0.526202 1.000000 0.071891 -0.037315
C50   C     C_R   0.026203 0.499999 0.071891 -0.037314
C51   C     C_R   0.618611 0.000000 0.138348 0.167226
C52   C     C_R   0.118611 0.500000 0.138348 0.167226
C53   C     C_R   0.647425 0.000000 0.059321 -0.267020
C54   C     C_R   0.147425 0.500000 0.059321 -0.267020
C55   C     C_R   0.586769 0.000000 0.915137 -0.180408
C56   C     C_R   0.086768 0.500000 0.915137 -0.180407
C57   C     C_R   0.502442 0.999999 0.160279 0.016327
C58   C     C_R   0.002442 0.499999 0.160279 0.016326
C59   C     C_R   0.654372 0.000000 0.364525 0.075570
C60   C     C_R   0.154372 0.500000 0.364525 0.075571
C61   C     C_R   0.678140 0.287461 0.159326 -0.181528
C62   C     C_R   0.678161 0.712562 0.159362 -0.181526
C63   C     C_R   0.178139 0.787463 0.159323 -0.181529
C64   C     C_R   0.178159 0.212558 0.159356 -0.181527
C65   C     C_R   0.314013 0.850207 0.245987 -0.051188
C66   C     C_R   0.314018 0.149796 0.245993 -0.051191
C67   C     C_R   0.814014 0.350207 0.245987 -0.051188
C68   C     C_R   0.814019 0.649798 0.245995 -0.051191
C69   C     C_R   0.717357 0.195718 0.694055 -0.203473
C70   C     C_R   0.717347 0.804276 0.694044 -0.203476
C71   C     C_R   0.217357 0.695717 0.694056 -0.203473
C72   C     C_R   0.217348 0.304277 0.694046 -0.203476
C73   C     C_R   0.273269 0.754153 0.767061 0.202339
C74   C     C_R   0.273257 0.245840 0.767047 0.202336
C75   C     C_R   0.773268 0.254154 0.767060 0.202339
C76   C     C_R   0.773255 0.745839 0.767045 0.202336
C77   C     C_R   0.280406 0.783717 0.877709 -0.212887
C78   C     C_R   0.280397 0.216278 0.877698 -0.212883
C79   C     C_R   0.780406 0.283718 0.877708 -0.212886
C80   C     C_R   0.780395 0.716277 0.877696 -0.212881
C81   C     C_R   0.726085 0.258311 0.910687 0.048814
C82   C     C_R   0.726082 0.741689 0.910686 0.048813
C83   C     C_R   0.226085 0.758311 0.910687 0.048814
C84   C     C_R   0.226083 0.241689 0.910687 0.048814
C85   C     C_R   0.658474 0.207214 0.820371 0.071178
C86   C     C_R   0.658475 0.792789 0.820376 0.071178
C87   C     C_R   0.158475 0.707214 0.820370 0.071178
C88   C     C_R   0.158475 0.292789 0.820376 0.071179
Cu1   Cu    Cu3+1 0.526340 0.000000 0.421010 0.940747
Cu2   Cu    Cu3+1 0.026340 0.500000 0.421010 0.940747
Cu3   Cu    Cu3+1 0.473640 0.000000 0.578990 0.934511
Cu4   Cu    Cu3+1 0.973640 0.500000 0.578990 0.934512
H1    H     H_    0.253374 0.849750 0.346596 0.176412
H2    H     H_    0.253395 0.150271 0.346629 0.176427
H3    H     H_    0.753375 0.349749 0.346598 0.176413
H4    H     H_    0.753398 0.650276 0.346635 0.176429
H5    H     H_    0.718066 0.000001 0.109607 0.157259
H6    H     H_    0.218066 0.500001 0.109607 0.157259
H7    H     H_    0.752881 0.000001 0.335407 0.145703
H8    H     H_    0.252881 0.500001 0.335407 0.145703
H9    H     H_    0.433802 0.999999 0.118807 0.122116
H10   H     H_    0.933802 0.499999 0.118807 0.122116
H11   H     H_    0.299386 0.999998 0.516078 0.123295
H12   H     H_    0.799386 0.499998 0.516078 0.123296
H13   H     H_    0.340368 0.999996 0.897966 0.130754
H14   H     H_    0.840368 0.499996 0.897966 0.130754
H15   H     H_    0.240404 0.999995 0.645373 0.151055
H16   H     H_    0.740404 0.499995 0.645373 0.151056
H17   H     H_    0.616240 0.000001 0.865421 0.213304
H18   H     H_    0.116240 0.500001 0.865421 0.213304
H19   H     H_    0.545297 0.210382 0.950236 0.178633
H20   H     H_    0.545320 0.789644 0.950281 0.178627
H21   H     H_    0.045296 0.710383 0.950233 0.178633
H22   H     H_    0.045317 0.289640 0.950275 0.178628
H23   H     H_    0.628517 0.273089 0.171079 0.146205
H24   H     H_    0.628547 0.726945 0.171130 0.146206
H25   H     H_    0.128516 0.773091 0.171076 0.146205
H26   H     H_    0.128543 0.226938 0.171122 0.146206
H27   H     H_    0.360829 0.838036 0.129442 0.155016
H28   H     H_    0.360820 0.161951 0.129426 0.155016
H29   H     H_    0.860829 0.338037 0.129441 0.155016
H30   H     H_    0.860820 0.661949 0.129423 0.155015
H31   H     H_    0.717331 0.171033 0.614228 0.180564
H32   H     H_    0.717319 0.828959 0.614213 0.180564
H33   H     H_    0.217332 0.671032 0.614229 0.180565
H34   H     H_    0.217320 0.328960 0.614214 0.180564
H35   H     H_    0.325916 0.828417 0.931624 0.147049
H36   H     H_    0.325904 0.171576 0.931608 0.147049
H37   H     H_    0.825915 0.328418 0.931622 0.147049
H38   H     H_    0.825901 0.671574 0.931604 0.147049
H39   H     H_    0.527655 0.170472 0.750219 0.209509
H40   H     H_    0.527662 0.829537 0.750244 0.209516
H41   H     H_    0.027655 0.670473 0.750218 0.209508
H42   H     H_    0.027662 0.329536 0.750242 0.209515
H43   H     H_    0.703071 0.000001 0.477008 0.131455
H44   H     H_    0.203071 0.500000 0.477008 0.131455
N1    N     N_R   0.566260 0.000000 0.302220 -0.183015
N2    N     N_R   0.066260 0.500000 0.302220 -0.183015
N3    N     N_R   0.434410 0.000000 0.697680 -0.207984
N4    N     N_R   0.934410 0.500000 0.697680 -0.207984
O1    O     O_R   0.608610 0.924520 0.551740 -0.579149
O2    O     O_R   0.608610 0.075480 0.551740 -0.579148
O3    O     O_R   0.108610 0.424520 0.551740 -0.579148
O4    O     O_R   0.108610 0.575480 0.551740 -0.579148
O5    O     O_R   0.564110 0.924510 0.685150 -0.611418
O6    O     O_R   0.564110 0.075490 0.685150 -0.611413
O7    O     O_R   0.064110 0.424510 0.685150 -0.611417
O8    O     O_R   0.064110 0.575490 0.685150 -0.611413
O9    O     O_R   0.435880 0.075470 0.314850 -0.592392
O10   O     O_R   0.435880 0.924530 0.314850 -0.592392
O11   O     O_R   0.935880 0.575470 0.314850 -0.592392
O12   O     O_R   0.935880 0.424530 0.314850 -0.592392
O13   O     O_R   0.391380 0.075460 0.448260 -0.588060
O14   O     O_R   0.391380 0.924540 0.448260 -0.588059
O15   O     O_R   0.891380 0.575460 0.448260 -0.588060
O16   O     O_R   0.891380 0.424540 0.448260 -0.588058
I1    I     I_    0.346341 0.797485 0.707689 -0.500723
I2    I     I_    0.346321 0.202503 0.707664 -0.500742
I3    I     I_    0.846340 0.297486 0.707686 -0.500726
I4    I     I_    0.846319 0.702502 0.707661 -0.500746

loop_
_geom_bond_atom_site_label_1
_geom_bond_atom_site_label_2
_ccdc_geom_bond_type
C26   H2    S    
C83   C87   A    
C3    O7    A    
C17   H39   S    
C14   C18   A    
C27   H3    S    
C78   H36   S    
C64   H26   S    
C23   H29   S    
C42   O16   A    
C14   H20   S    
C18   C86   A    
C39   O13   A    
C2    C29   S    
C9    C61   A    
C1    O1    A    
C28   C68   A    
C37   H15   S    
C35   H11   S    
C25   C63   A    
C63   H25   S    
C7    C23   A    
Cu4   O8    S    
C13   H19   S    
C59   N1    A    
Cu1   O2    S    
C6    C22   A    
C73   I1    S    
C49   C57   A    
C48   C56   A    
C43   H13   S    
C45   C47   A    
C23   C67   A    
C29   C69   A    
C26   C64   A    
C22   C66   A    
C9    C13   A    
C27   C61   A    
C35   N3    A    
C15   C19   A    
C11   C15   A    
C3    O3    A    
C12   C16   A    
C44   C46   A    
C49   C51   A    
C18   H40   S    
C61   H23   S    
C34   H8    S    
C15   H21   S    
C58   H10   S    
C30   C86   A    
C42   O12   A    
C60   H44   S    
C29   C85   A    
Cu2   O3    S    
C77   H35   S    
C21   C65   A    
C58   N2    A    
C31   C71   A    
C33   C59   A    
C55   H17   S    
Cu4   O7    S    
C34   C60   A    
C40   O14   A    
C10   C62   A    
C56   H18   S    
C30   C70   A    
C52   C54   A    
C41   C68   S    
C46   C48   A    
C53   C55   A    
Cu2   Cu4   S    
C54   C56   A    
Cu1   O9    S    
C31   C87   A    
C48   N4    A    
C57   N1    A    
C26   C66   A    
C76   C80   A    
C6    C84   A    
Cu3   O14   S    
Cu2   O12   S    
C10   C14   A    
C79   C81   A    
C74   I2    S    
C53   H5    S    
C82   C86   A    
Cu3   O13   S    
C72   H34   S    
C33   H7    S    
C4    O8    A    
C50   C58   A    
Cu2   N2    S    
C22   H28   S    
C38   C44   A    
C41   O15   A    
C70   H32   S    
C43   C45   A    
C50   C52   A    
C45   C49   A    
C25   H1    S    
C16   C20   A    
C24   H30   S    
C40   O10   A    
Cu4   O16   S    
C36   N4    A    
Cu3   N3    S    
C19   H41   S    
C72   C74   A    
Cu1   O10   S    
C7    C81   A    
C80   H38   S    
Cu1   N1    S    
C40   C65   S    
C69   H31   S    
C70   C76   A    
C42   C67   S    
C2    O2    A    
C39   C66   S    
C17   C85   A    
C37   C43   A    
C32   C88   A    
C33   C51   A    
C1    O5    A    
C47   N3    A    
Cu4   N4    S    
Cu3   O5    S    
C47   C55   A    
C75   I3    S    
C7    C9    A    
C12   C64   A    
C46   C50   A    
C76   I4    S    
C73   C77   A    
C35   C37   A    
C54   H6    S    
C84   C88   A    
Cu2   O11   S    
C16   H22   S    
C4    O4    A    
C5    C83   A    
C5    C11   A    
C41   O11   A    
C44   H14   S    
C2    O6    A    
C57   H9    S    
C39   O9    A    
C34   C52   A    
C13   C17   A    
C28   H4    S    
C20   H42   S    
C79   H37   S    
C36   C38   A    
C19   C87   A    
C21   H27   S    
C6    C12   A    
C36   H12   S    
Cu1   O1    S    
C20   C88   A    
C59   H43   S    
C1    C30   S    
C8    C24   A    
C80   C82   A    
C69   C75   A    
Cu4   O15   S    
C38   H16   S    
C3    C32   S    
C81   C85   A    
C4    C31   S    
C27   C67   A    
C62   H24   S    
C24   C68   A    
C78   C84   A    
C8    C82   A    
C5    C21   A    
C8    C10   A    
Cu1   Cu3   S    
C74   C78   A    
C71   C73   A    
C25   C65   A    
C77   C83   A    
C71   H33   S    
C51   C53   A    
C11   C63   A    
C75   C79   A    
Cu3   O6    S    
Cu2   O4    S    
C60   N2    A    
C32   C72   A    
C28   C62   A    
