data_mof_unit_44477.cif
_audit_creation_date              2012-12-11T15:29:21-0500
_audit_creation_method            fapswitch 2.2
_symmetry_space_group_name_H-M    P1
_symmetry_Int_Tables_number       1
_space_group_crystal_system       triclinic
_cell_length_a                    13.506576
_cell_length_b                    13.535854
_cell_length_c                    27.516694
_cell_angle_alpha                 90.927129
_cell_angle_beta                  90.07405
_cell_angle_gamma                 59.942279
_cell_volume                      4353.4604554

loop_
_atom_site_label
_atom_site_type_symbol
_atom_type_description
_atom_site_fract_x
_atom_site_fract_y
_atom_site_fract_z
_atom_type_partial_charge
C1    C     C_R   0.619381 0.100427 0.570563 0.539164
C2    C     C_1   0.633924 0.733301 0.615503 -0.022699
C3    C     C_3   0.721260 0.545373 0.758556 0.287527
C4    C     C_3   0.699039 0.628463 0.801389 0.074764
C5    C     C_3   0.609246 0.634569 0.734828 -0.106601
C6    C     C_3   0.678372 0.680231 0.708426 -0.033403
C7    C     C_3   0.587816 0.719409 0.777592 -0.151373
C8    C     C_3   0.656005 0.766373 0.750620 -0.092190
C9    C     C_1   0.703027 0.609330 0.853552 0.013071
C10   C     C_1   0.657931 0.705977 0.657010 -0.068307
C11   C     C_3   0.089784 0.134571 0.737165 -0.148098
C12   C     C_R   0.599939 0.779789 0.568323 0.534446
C13   C     C_3   0.185481 0.059643 0.773179 0.339951
C14   C     C_1   0.100940 0.197477 0.900434 0.007573
C15   C     C_1   0.219749 0.144067 0.614885 -0.033731
C16   C     C_3   0.058834 0.240425 0.770186 -0.162538
C17   C     C_3   0.154013 0.163927 0.805831 0.037280
C18   C     C_3   0.145688 0.262177 0.742375 -0.161204
C19   C     C_3   0.176650 0.156462 0.709774 -0.005840
C20   C     C_3   0.240862 0.185916 0.778882 -0.114719
C21   C     C_3   0.271908 0.080888 0.745838 0.308230
C22   C     C_1   0.131001 0.176866 0.858408 -0.005373
C23   C     C_R   0.274670 0.123480 0.568381 0.531211
C24   C     C_1   0.190605 0.154204 0.656864 -0.074707
C25   C     C_3   0.611828 0.269144 0.744143 -0.122013
C26   C     C_3   0.540020 0.245502 0.780710 0.312391
C27   C     C_1   0.683934 0.201365 0.904447 0.006688
C28   C     C_1   0.630650 0.129203 0.620011 -0.013258
C29   C     C_3   0.719336 0.197062 0.775665 -0.124397
C30   C     C_3   0.645555 0.174745 0.811807 0.032483
C31   C     C_3   0.742102 0.088475 0.747522 0.291229
C32   C     C_3   0.636690 0.158907 0.716124 0.011411
C33   C     C_3   0.670410 0.064632 0.783973 -0.134895
C34   C     C_R   0.621128 0.098680 0.431004 0.532066
C35   C     C_3   0.562604 0.136554 0.752419 -0.146418
C36   C     C_1   0.660858 0.187407 0.863634 -0.007245
C37   C     C_1   0.634707 0.145596 0.663055 -0.032207
C38   C     C_R   0.648347 0.702865 0.387272 0.018527
C39   C     C_R   0.752697 0.682776 0.367133 -0.189846
C40   C     C_R   0.784060 0.638353 0.320131 -0.145177
C41   C     C_R   0.710045 0.616216 0.292480 -0.006876
C42   C     C_R   0.610401 0.628187 0.314237 -0.091026
C43   C     C_R   0.581981 0.665565 0.361986 0.281930
C44   C     C_R   0.679666 0.532978 0.217954 -0.127197
C45   C     C_R   0.602865 0.774620 0.431074 0.554100
C46   C     C_R   0.656374 0.543218 0.168940 0.225140
C47   C     C_R   0.766391 0.640004 0.159554 0.216528
C48   C     C_R   0.770238 0.647274 0.210524 -0.128306
C49   C     C_R   0.726880 0.593267 0.239853 -0.057885
C50   C     C_R   0.705116 0.591237 0.138632 0.041125
C51   C     C_R   0.212502 0.144094 0.385714 -0.032575
C52   C     C_R   0.196251 0.059940 0.361612 0.283542
C53   C     C_R   0.158571 0.076195 0.313281 0.336124
C54   C     C_R   0.139068 0.175630 0.289155 0.003203
C55   C     C_R   0.143397 0.263121 0.315008 -0.203808
C56   C     C_R   0.277947 0.120384 0.431120 0.553239
C57   C     C_R   0.178727 0.247994 0.362843 -0.196082
C58   C     C_R   0.025174 0.288392 0.220091 -0.210135
C59   C     C_R   0.006941 0.306480 0.170845 -0.193522
C60   C     C_R   0.173220 0.120543 0.152821 0.256094
C61   C     C_R   0.197290 0.106043 0.202950 0.310909
C62   C     C_R   0.119647 0.188576 0.236607 -0.001444
C63   C     C_R   0.080361 0.223603 0.137089 0.004130
C64   C     C_R   0.628795 0.121312 0.380126 0.035770
C65   C     C_R   0.604655 0.229077 0.364451 -0.139678
C66   C     C_R   0.600397 0.249993 0.314668 -0.122184
C67   C     C_3   0.791248 0.589515 0.731568 -0.097687
C68   C     C_R   0.616255 0.164404 0.280792 0.055387
C69   C     C_R   0.632145 0.059943 0.296954 -0.081137
C70   C     C_R   0.640727 0.037735 0.346164 -0.110797
C71   C     C_R   0.736806 0.094098 0.206672 0.273351
C72   C     C_R   0.760279 0.112342 0.159461 -0.108151
C73   C     C_R   0.575064 0.284152 0.154694 -0.108049
C74   C     C_R   0.552188 0.269261 0.202725 -0.176281
C75   C     C_R   0.634021 0.176073 0.229133 0.033221
C76   C     C_R   0.681491 0.208589 0.133571 -0.005115
C77   C     C_R   0.050275 0.234407 0.947955 0.551415
C78   C     C_3   0.766391 0.674222 0.774429 0.272119
C79   C     C_R   0.713417 0.558654 0.945738 0.550221
C80   C     C_R   0.721287 0.223040 0.949960 0.545389
C81   C     C_R   0.046973 0.244633 0.086430 0.583265
C82   C     C_R   0.711456 0.565788 0.086428 0.591925
C83   C     C_R   0.719836 0.232586 0.087481 0.556665
C84   C     C_1   0.705094 0.592165 0.896334 0.016050
Cr1   Cr    Cr6+3 0.417550 0.169090 0.500530 1.012566
Cr2   Cr    Cr6+3 0.669180 0.913420 0.499920 1.014981
Cr3   Cr    Cr6+3 0.413260 0.917540 0.499520 1.054169
Cr4   Cr    Cr6+3 0.909770 0.175810 0.018240 1.030478
Cr5   Cr    Cr6+3 0.913300 0.427650 0.016090 1.046521
Cr6   Cr    Cr6+3 0.657770 0.431010 0.016900 1.054058
H1    H     H_    0.302962 0.205902 0.796383 0.151018
H2    H     H_    0.128006 0.346684 0.729386 0.115053
H3    H     H_    0.695256 0.981202 0.800536 0.132240
H4    H     H_    0.784580 0.218825 0.787795 0.141790
H5    H     H_    0.650862 0.485453 0.239292 0.123255
H6    H     H_    0.862775 0.627210 0.304687 0.110041
H7    H     H_    0.803665 0.697668 0.226859 0.107934
H8    H     H_    0.548719 0.616283 0.293691 0.121241
H9    H     H_    0.965341 0.352640 0.245475 0.138761
H10   H     H_    0.932577 0.384133 0.158957 0.135743
H11   H     H_    0.635088 0.856512 0.749011 0.137663
H12   H     H_    0.126147 0.340950 0.297206 0.127263
H13   H     H_    0.187261 0.315221 0.380696 0.156183
H14   H     H_    0.843950 0.054094 0.144314 0.135902
H15   H     H_    0.511790 0.356427 0.134752 0.152143
H16   H     H_    0.544186 0.617757 0.718042 0.106254
H17   H     H_    0.027787 0.114571 0.719574 0.115560
O1    O     O_R   0.301780 0.195490 0.553940 -0.510066
O2    O     O_R   0.658840 0.818280 0.449970 -0.525388
O3    O     O_R   0.503160 0.801780 0.445740 -0.432244
O4    O     O_R   0.319320 0.022190 0.450230 -0.450821
O5    O     O_3   0.499990 0.000010 0.499990 -0.253905
O6    O     O_R   0.819250 0.149410 0.965240 -0.506450
O7    O     O_R   0.006940 0.180310 0.968270 -0.489544
O8    O     O_R   0.028420 0.332670 0.963010 -0.499994
O9    O     O_R   0.810130 0.520390 0.966030 -0.488518
O10   O     O_R   0.636050 0.541380 0.962520 -0.506084
O11   O     O_R   0.666480 0.323610 0.968170 -0.492555
O12   O     O_R   0.522450 0.158840 0.550250 -0.500354
O13   O     O_R   0.817280 0.156800 0.072180 -0.534122
O14   O     O_R   0.005110 0.187160 0.067410 -0.493826
O15   O     O_R   0.026450 0.340060 0.069950 -0.528939
O16   O     O_R   0.808300 0.527240 0.065170 -0.485934
O17   O     O_R   0.634070 0.548770 0.069460 -0.476907
O18   O     O_R   0.664650 0.330470 0.067300 -0.469275
O19   O     O_3   0.826940 0.344820 0.017080 -0.267169
O20   O     O_R   0.694460 0.003360 0.553820 -0.499009
O21   O     O_R   0.657750 0.819520 0.549120 -0.495730
O22   O     O_R   0.501990 0.803120 0.552700 -0.518957
O23   O     O_R   0.318230 0.023430 0.549370 -0.505613
O24   O     O_R   0.302950 0.194150 0.446980 -0.526642
O25   O     O_R   0.523540 0.157600 0.451100 -0.495598
O26   O     O_R   0.695630 0.002030 0.446860 -0.518450
O27   O     O_3   0.846692 0.694097 0.798972 -0.561255
C85   C     C_3   0.910548 0.716069 0.764889 -0.122350
H18   H     H_    0.854384 0.790828 0.742236 0.149777
H19   H     H_    0.964170 0.639647 0.741603 0.106111
H20   H     H_    0.970018 0.735631 0.784959 0.138476
H21   H     H_    0.971897 0.307262 0.781800 0.177088
O28   O     O_3   0.434066 0.326319 0.801631 -0.547638
C86   C     C_3   0.355840 0.386116 0.764454 -0.127634
H22   H     H_    0.348210 0.327451 0.737879 0.100327
H23   H     H_    0.379917 0.443034 0.745517 0.113208
H24   H     H_    0.270128 0.440777 0.781131 0.145253
H25   H     H_    0.586202 0.352756 0.727667 0.118003
H26   H     H_    0.495985 0.114885 0.743433 0.140356
O29   O     O_3   0.848043 0.005386 0.727447 -0.572714
C87   C     C_3   0.931382 0.965163 0.764172 -0.132126
H27   H     H_    0.903693 0.937392 0.796757 0.121648
H28   H     H_    0.953497 0.031114 0.774923 0.142926
H29   H     H_    0.009890 0.889874 0.749672 0.132075
H30   H     H_    0.807033 0.707342 0.386572 0.136783
H31   H     H_    0.874369 0.539012 0.712250 0.085216
O30   O     O_3   0.589250 0.501120 0.150684 -0.546274
C88   C     C_3   0.473475 0.584840 0.158764 -0.108731
H32   H     H_    0.452952 0.669098 0.143903 0.128023
H33   H     H_    0.451389 0.593668 0.198136 0.112700
H34   H     H_    0.418311 0.558025 0.139608 0.116641
O31   O     O_3   0.810412 0.691063 0.130100 -0.562858
C89   C     C_3   0.930074 0.636764 0.135989 -0.113557
H35   H     H_    0.965402 0.669273 0.108153 0.138699
H36   H     H_    0.971535 0.542644 0.130328 0.141889
H37   H     H_    0.952816 0.656951 0.172154 0.082576
O32   O     O_3   0.480247 0.681056 0.380975 -0.505764
C90   C     C_3   0.495730 0.573670 0.393583 -0.108924
H38   H     H_    0.567066 0.529665 0.419806 0.101454
H39   H     H_    0.510626 0.518602 0.360815 0.091888
H40   H     H_    0.416461 0.586890 0.411589 0.145531
O33   O     O_3   0.228343 0.956368 0.382844 -0.484388
C91   C     C_3   0.135724 0.967957 0.410914 -0.075788
H41   H     H_    0.061766 0.984905 0.387619 0.107266
H42   H     H_    0.109051 0.036094 0.439414 0.088545
H43   H     H_    0.163137 0.886386 0.429652 0.144541
O34   O     O_3   0.151969 0.988998 0.289240 -0.513113
C92   C     C_3   0.036275 0.023479 0.280137 -0.087619
H44   H     H_    0.006406 0.074406 0.246581 0.139886
H45   H     H_    0.978268 0.072108 0.311157 0.095876
H46   H     H_    0.029656 0.945818 0.274041 0.177160
O35   O     O_3   0.294554 0.010082 0.218881 -0.523827
C93   C     C_3   0.384638 0.034260 0.220759 -0.094756
H47   H     H_    0.365435 0.105257 0.246975 0.107276
H48   H     H_    0.404032 0.054428 0.184148 0.142282
H49   H     H_    0.462728 0.957372 0.233568 0.144171
O36   O     O_3   0.245215 0.039346 0.119111 -0.559790
C94   C     C_3   0.223244 0.947830 0.118658 -0.095697
H50   H     H_    0.274652 0.887108 0.089029 0.135841
H51   H     H_    0.131585 0.977337 0.111228 0.114159
H52   H     H_    0.249415 0.900373 0.153265 0.158220
H53   H     H_    0.590815 0.295649 0.390542 0.091353
O37   O     O_3   0.820066 0.005932 0.233782 -0.595621
C95   C     C_3   0.853424 0.899505 0.210951 -0.151612
H54   H     H_    0.917097 0.881060 0.181636 0.117272
H55   H     H_    0.779136 0.893979 0.196530 0.141663
H56   H     H_    0.895519 0.831850 0.238361 0.128178
H57   H     H_    0.588319 0.331059 0.302582 0.098875
H58   H     H_    0.471798 0.331141 0.219576 0.109464
H59   H     H_    0.504735 0.772116 0.796718 0.163030
H60   H     H_    0.641989 0.994006 0.271295 0.115142
H61   H     H_    0.653550 0.956043 0.357847 0.126130
O38   O     O_3   0.754643 0.428881 0.762147 -0.583804
C96   C     C_3   0.785185 0.377651 0.715186 -0.146234
H62   H     H_    0.861755 0.377692 0.700604 0.118024
H63   H     H_    0.712713 0.419324 0.689407 0.116285
H64   H     H_    0.809806 0.286767 0.716940 0.140141
O39   O     O_3   0.205424 0.955193 0.792340 -0.560607
C97   C     C_3   0.238031 0.872886 0.754580 -0.123380
H65   H     H_    0.326424 0.844175 0.741843 0.165196
H66   H     H_    0.177855 0.904290 0.723478 0.098925
H67   H     H_    0.237418 0.797127 0.768976 0.127824
O40   O     O_3   0.387143 0.993336 0.738894 -0.593641
C98   C     C_3   0.422870 0.990030 0.690573 -0.136337
H68   H     H_    0.406357 0.075039 0.678664 0.116101
H69   H     H_    0.383814 0.953154 0.666081 0.141192
H70   H     H_    0.516202 0.933621 0.687614 0.135968

loop_
_geom_bond_atom_site_label_1
_geom_bond_atom_site_label_2
_ccdc_geom_bond_type
C44   C49   A    
C60   O36   S    
C85   H20   S    
C66   C68   A    
Cr5   O8    S    
C58   C62   A    
C90   H38   S    
C88   H33   S    
C41   C42   A    
O29   C87   S    
C87   H29   S    
C72   C76   A    
Cr1   O5    S    
C2    C12   S    
C95   H55   S    
C66   H57   S    
C7    C8    S    
C92   H45   S    
Cr3   O3    S    
C47   O31   S    
C53   C54   A    
C21   O40   S    
C68   C75   S    
C48   H7    S    
C55   H12   S    
C11   C19   S    
O37   C95   S    
C63   C81   S    
C60   C63   A    
C5    C6    S    
Cr6   O11   S    
Cr3   O23   S    
O32   C90   S    
C19   C21   S    
C40   H6    S    
C18   C19   S    
C26   O28   S    
C86   H23   S    
Cr1   O25   S    
C1    O12   A    
C29   H4    S    
C45   O2    A    
C94   H51   S    
Cr3   O4    S    
C91   H41   S    
C17   C20   S    
O36   C94   S    
C51   C56   S    
C73   C74   A    
C14   C77   S    
C41   C49   S    
Cr4   O6    S    
Cr1   O12   S    
O34   C92   S    
C38   C45   S    
Cr4   O19   S    
C33   C35   S    
C47   C48   A    
C93   H48   S    
C16   C17   S    
O38   C96   S    
C1    C28   S    
C31   C33   S    
C51   C57   A    
C64   C70   A    
C92   H46   S    
Cr1   O1    S    
C8    H11   S    
C56   O4    A    
C30   C33   S    
C93   H49   S    
Cr5   O19   S    
C31   O29   S    
C43   O32   S    
C25   C32   S    
C15   C23   S    
Cr5   O9    S    
C34   O25   A    
C90   H39   S    
C79   O9    A    
C88   H34   S    
C8    C78   S    
C59   H10   S    
C96   H63   S    
C61   C62   A    
C67   C78   S    
C83   O18   A    
C4    C7    S    
C57   H13   S    
C76   C83   S    
C82   O17   A    
C44   C46   A    
C53   O34   S    
C47   C50   A    
C80   O11   A    
C5    H16   S    
C25   C29   S    
C46   O30   S    
C20   H1    S    
C74   H58   S    
C74   C75   A    
Cr2   O21   S    
C51   C52   A    
C32   C35   S    
C85   H18   S    
Cr2   O2    S    
C87   H27   S    
C27   C80   S    
C12   O22   A    
C86   H24   S    
C39   C40   A    
C5    C7    S    
C97   H65   S    
C68   C69   A    
C94   H52   S    
C6    C8    S    
Cr3   O5    S    
Cr5   O16   S    
C34   O26   A    
C58   C59   A    
O39   C97   S    
C39   H30   S    
C95   H54   S    
C23   O23   A    
C81   O14   A    
C60   C61   A    
C35   H26   S    
C89   H36   S    
C83   O13   A    
C7    H59   S    
Cr2   O5    S    
Cr6   O10   S    
C98   H68   S    
C4    C78   S    
C29   C30   S    
C11   C16   S    
Cr2   O26   S    
C73   H15   S    
O31   C89   S    
C20   C21   S    
C34   C64   S    
C3    O38   S    
Cr6   O19   S    
C13   C21   S    
O33   C91   S    
C32   C37   S    
O28   C86   S    
C78   O27   S    
O30   C88   S    
C15   C24   T    
C98   H69   S    
C65   H53   S    
C26   C30   S    
C90   H40   S    
C55   C57   A    
C11   H17   S    
C69   H60   S    
C96   H64   S    
C13   O39   S    
C16   H21   S    
Cr4   O13   S    
C42   C43   A    
C3    C4    S    
C2    C10   T    
C82   O16   A    
C52   C53   A    
C50   C82   S    
C85   H19   S    
C54   C55   A    
C40   C41   A    
C79   C84   S    
Cr2   O20   S    
C45   O3    A    
Cr6   O17   S    
C31   C32   S    
C3    C67   S    
C58   H9    S    
C1    O20   A    
C87   H28   S    
Cr4   O14   S    
C3    C5    S    
C33   H3    S    
C52   O33   S    
C6    C10   S    
C61   O35   S    
O27   C85   S    
C12   O21   A    
C30   C36   S    
C27   C36   T    
C54   C62   S    
C46   C50   A    
C59   C63   A    
C17   C22   S    
C96   H62   S    
C13   C17   S    
C81   O15   A    
C67   H31   S    
C18   H2    S    
C89   H35   S    
C14   C22   T    
C42   H8    S    
C19   C24   S    
C25   C26   S    
C95   H56   S    
C38   C43   A    
C29   C31   S    
C92   H44   S    
C6    C67   S    
C86   H22   S    
C64   C65   A    
C71   C75   A    
C11   C13   S    
C97   H67   S    
Cr3   O22   S    
C94   H50   S    
C38   C39   A    
C91   H42   S    
C28   C37   T    
C48   C49   A    
C23   O1    A    
C79   O10   A    
C73   C76   A    
Cr6   O18   S    
C18   C20   S    
C65   C66   A    
C71   O37   S    
Cr4   O7    S    
C69   C70   A    
C56   O24   A    
C9    C84   T    
O35   C93   S    
C26   C35   S    
C71   C72   A    
C98   H70   S    
C80   O6    A    
C16   C18   S    
O40   C98   S    
Cr5   O15   S    
C88   H32   S    
C44   H5    S    
C70   H61   S    
C25   H25   S    
C4    C9    S    
C77   O8    A    
C97   H66   S    
C72   H14   S    
Cr1   O24   S    
C93   H47   S    
C77   O7    A    
C91   H43   S    
C89   H37   S    
