data_mof_unit_41779.cif
_audit_creation_date              2012-12-10T17:31:50-0500
_audit_creation_method            fapswitch 2.2
_symmetry_space_group_name_H-M    P1
_symmetry_Int_Tables_number       1
_space_group_crystal_system       triclinic
_cell_length_a                    12.049384
_cell_length_b                    11.552935
_cell_length_c                    12.907668
_cell_angle_alpha                 91.222014
_cell_angle_beta                  92.379195
_cell_angle_gamma                 85.282096
_cell_volume                      1788.90032759

loop_
_atom_site_label
_atom_site_type_symbol
_atom_type_description
_atom_site_fract_x
_atom_site_fract_y
_atom_site_fract_z
_atom_type_partial_charge
C1    C     C_R   0.478493 0.508087 0.299976 0.921730
C2    C     C_R   0.973227 0.544482 0.530160 -0.072387
C3    C     C_R   0.500609 0.281843 0.499688 0.931707
C4    C     C_R   0.499299 0.718162 0.500175 0.925456
C5    C     C_1   0.501465 0.161317 0.499506 -0.141553
C6    C     C_1   0.498024 0.838711 0.500001 -0.138993
C7    C     C_1   0.500458 0.059266 0.499527 0.007602
C8    C     C_1   0.498667 0.940792 0.499757 0.013477
C9    C     C_R   0.533730 0.479264 0.810975 -0.135561
C10   C     C_R   0.465956 0.520475 0.188934 -0.140570
C11   C     C_R   0.360485 0.570288 0.030897 -0.248235
C12   C     C_R   0.521447 0.491765 0.699985 0.929287
C13   C     C_R   0.638961 0.429164 0.968977 -0.252406
C14   C     C_R   0.367674 0.571930 0.138855 -0.037139
C15   C     C_R   0.631370 0.426351 0.861013 -0.049373
C16   C     C_R   0.556199 0.476773 0.131487 -0.243189
C17   C     C_R   0.443664 0.523742 0.868377 -0.258131
C18   C     C_R   0.549282 0.477228 0.025161 0.152863
C19   C     C_R   0.450553 0.523230 0.974693 0.157396
C20   C     C_2   0.722202 0.360348 0.804913 0.921899
C21   C     C_2   0.274725 0.633703 0.195094 0.937682
C22   C     C_2   0.779806 0.297031 0.376941 1.022734
C23   C     C_R   0.038479 0.623196 0.583247 0.363246
C24   C     C_2   0.217475 0.709826 0.613816 1.005626
C25   C     C_3   0.001056 0.695959 0.746527 0.078186
C26   C     C_3   0.897545 0.646168 0.787121 -0.395607
C27   C     C_3   0.905750 0.634627 0.904801 -0.807763
C28   C     C_3   0.052508 0.188926 0.418927 0.069282
C29   C     C_3   0.141196 0.118166 0.357493 -0.366134
C30   C     C_3   0.187803 0.010149 0.415474 -0.828026
C31   C     C_R   0.961584 0.371326 0.422977 0.351044
C32   C     C_R   0.155548 0.612952 0.573109 -0.033234
C33   C     C_R   0.844183 0.386401 0.427584 -0.001374
C34   C     C_R   0.145162 0.442527 0.469188 -0.037762
C35   C     C_R   0.855032 0.556958 0.531317 -0.045854
C36   C     C_R   0.027067 0.452025 0.473738 -0.089592
H1    H     H_    0.367355 0.559990 0.830677 0.217407
H2    H     H_    0.325169 0.769409 0.721689 0.329319
H3    H     H_    0.011271 0.781238 0.785637 0.188406
H4    H     H_    0.076934 0.638402 0.768859 0.132876
H5    H     H_    0.822192 0.703917 0.765355 0.232694
H6    H     H_    0.888544 0.559004 0.751414 0.244168
H7    H     H_    0.979069 0.574889 0.928164 0.281039
H8    H     H_    0.829346 0.598830 0.931579 0.272754
H9    H     H_    0.913544 0.720902 0.942816 0.257169
H10   H     H_    0.984017 0.133422 0.433586 0.202090
H11   H     H_    0.091131 0.214763 0.495137 0.130587
H12   H     H_    0.632367 0.440467 0.169210 0.226208
H13   H     H_    0.104178 0.091277 0.281302 0.250692
H14   H     H_    0.210532 0.172825 0.343141 0.226064
H15   H     H_    0.225240 0.034759 0.492086 0.278263
H16   H     H_    0.253434 0.962281 0.369721 0.270349
H17   H     H_    0.120397 0.952144 0.426718 0.293272
H18   H     H_    0.285980 0.608634 0.990615 0.167154
H19   H     H_    0.713082 0.390140 0.009361 0.190129
H20   H     H_    0.812588 0.628258 0.573358 0.183768
H21   H     H_    0.187732 0.373750 0.424343 0.175334
H22   H     H_    0.765880 0.249712 0.687611 0.354910
H23   H     H_    0.226978 0.744172 0.311161 0.349162
H24   H     H_    0.729920 0.134926 0.382071 0.341154
N1    N     N_R   0.792200 0.479100 0.480660 -0.168962
N2    N     N_R   0.207800 0.520900 0.519340 -0.160893
O1    O     O_R   0.578300 0.494420 0.341180 -0.604771
O2    O     O_R   0.696948 0.290483 0.718706 -0.781796
O3    O     O_2   0.178287 0.623538 0.165199 -0.622655
O4    O     O_R   0.297257 0.707423 0.279370 -0.797010
O5    O     O_2   0.737143 0.313029 0.290620 -0.648556
O6    O     O_R   0.774038 0.190773 0.425394 -0.825108
O7    O     O_2   0.201326 0.804844 0.573668 -0.636196
O8    O     O_R   0.288959 0.695741 0.700956 -0.842556
O9    O     O_3   0.987221 0.715635 0.638489 -0.635604
O10   O     O_3   0.010355 0.285198 0.359211 -0.631372
O11   O     O_R   0.421700 0.505580 0.658820 -0.590184
O12   O     O_R   0.390690 0.507830 0.353590 -0.604979
O13   O     O_R   0.609310 0.492170 0.646410 -0.616228
O14   O     O_R   0.593810 0.327740 0.493800 -0.580572
O15   O     O_R   0.406190 0.672260 0.506200 -0.583254
O16   O     O_R   0.406190 0.341150 0.506220 -0.641439
O17   O     O_R   0.593810 0.658850 0.493780 -0.630026
O18   O     O_2   0.818936 0.362703 0.837049 -0.641028
Zn1   Zn    Zn3+2 0.625270 0.491050 0.491710 0.991421
Zn2   Zn    Zn3+2 0.374730 0.508950 0.508290 0.990467

loop_
_geom_bond_atom_site_label_1
_geom_bond_atom_site_label_2
_ccdc_geom_bond_type
C2    C35   A    
C30   H15   S    
H2    O8    S    
C28   H11   S    
C21   O4    S    
C16   H12   S    
C24   O8    S    
C7    C8    S    
C29   H13   S    
C11   C19   A    
C26   C27   S    
C13   C18   A    
O1    Zn1   S    
C1    O12   A    
C14   C21   S    
C28   C29   S    
C25   H4    S    
C11   C14   A    
C2    C36   A    
C34   N2    A    
C18   C19   A    
C27   H8    S    
C34   H21   S    
C31   C33   A    
C25   O9    S    
C27   H9    S    
N2    Zn2   S    
C12   O11   A    
C28   O10   S    
O12   Zn2   S    
C1    O1    A    
C24   O7    D    
C29   H14   S    
H22   O2    S    
C15   C20   S    
C30   H17   S    
C20   O18   D    
C23   O9    S    
C4    O17   A    
C4    C6    S    
C10   C14   A    
C5    C7    T    
O13   Zn1   S    
C6    C8    T    
C25   C26   S    
C20   O2    S    
C24   C32   S    
C29   C30   S    
O16   Zn2   S    
C28   H10   S    
C35   N1    A    
C17   H1    S    
C3    O14   A    
C22   O6    S    
C11   H18   S    
C33   N1    A    
C31   O10   S    
C13   C15   A    
O11   Zn2   S    
C26   H6    S    
O17   Zn1   S    
C9    C17   A    
C22   C33   S    
C30   H16   S    
C21   O3    D    
C35   H20   S    
C1    C10   S    
C3    C5    S    
O14   Zn1   S    
C23   C32   A    
C9    C15   A    
C32   N2    A    
C4    O15   A    
H23   O4    S    
N1    Zn1   S    
C25   H3    S    
O15   Zn2   S    
C17   C19   A    
C34   C36   A    
C9    C12   S    
C22   O5    D    
C27   H7    S    
H24   O6    S    
C16   C18   A    
C12   O13   A    
C2    C23   A    
C31   C36   A    
C10   C16   A    
C3    O16   A    
C26   H5    S    
C13   H19   S    
