data_mof_unit_57965.cif
_audit_creation_date              2012-12-10T20:44:40-0500
_audit_creation_method            fapswitch 2.2
_symmetry_space_group_name_H-M    P1
_symmetry_Int_Tables_number       1
_space_group_crystal_system       triclinic
_cell_length_a                    9.882846
_cell_length_b                    10.693202
_cell_length_c                    16.748639
_cell_angle_alpha                 89.465635
_cell_angle_beta                  95.531706
_cell_angle_gamma                 90.048631
_cell_volume                      1761.66449597

loop_
_atom_site_label
_atom_site_type_symbol
_atom_type_description
_atom_site_fract_x
_atom_site_fract_y
_atom_site_fract_z
_atom_type_partial_charge
C1    C     C_R   0.500146 0.260531 0.501407 0.911579
C2    C     C_R   0.634697 0.420205 0.780630 -0.270445
C3    C     C_R   0.552213 0.373570 0.147300 0.133330
C4    C     C_R   0.564889 0.400431 0.228936 -0.262921
C5    C     C_R   0.441963 0.426079 0.097936 0.296731
C6    C     C_R   0.466915 0.473695 0.261444 -0.049760
C7    C     C_R   0.351622 0.514767 0.213564 -0.219625
C8    C     C_R   0.339566 0.490949 0.131974 -0.232668
C9    C     C_R   0.570654 0.064597 0.449254 0.029956
C10   C     C_R   0.498164 0.128739 0.502852 -0.138672
C11   C     C_R   0.414115 0.064926 0.552681 0.087393
C12   C     C_R   0.518638 0.499435 0.653597 0.874233
C13   C     C_R   0.413291 0.934915 0.552918 0.023944
C14   C     C_R   0.497443 0.871395 0.503066 -0.186937
C15   C     C_R   0.569885 0.936744 0.449129 0.099381
C16   C     C_3   0.717435 0.930291 0.435831 -0.084589
C17   C     C_3   0.717796 0.072708 0.435653 -0.514560
C18   C     C_R   0.078300 0.410281 0.541579 0.121896
C19   C     C_R   0.064324 0.581195 0.452759 0.142905
C20   C     C_R   0.920088 0.580895 0.452927 -0.194083
C21   C     C_R   0.935705 0.410608 0.541781 0.134303
C22   C     C_3   0.948470 0.387180 0.630719 0.169213
C23   C     C_R   0.500010 0.739496 0.501661 0.902204
C24   C     C_3   0.102323 0.385040 0.629464 -0.521621
C25   C     C_R   0.481078 0.497691 0.346694 0.879432
C26   C     C_R   0.531235 0.493526 0.740739 -0.024217
C27   C     C_R   0.436694 0.554558 0.784657 0.064178
C28   C     C_R   0.444582 0.537554 0.867298 -0.218433
C29   C     C_R   0.545090 0.459878 0.906298 0.304868
C30   C     C_R   0.642560 0.404777 0.863301 -0.195091
H1    H     H_    0.650156 0.362941 0.267311 0.152499
H2    H     H_    0.859322 0.647493 0.416103 0.171914
H3    H     H_    0.148833 0.292283 0.643378 0.201986
H4    H     H_    0.706385 0.371066 0.747721 0.183125
H5    H     H_    0.372282 0.585029 0.901193 0.144818
N1    N     N_2   0.552241 0.440807 0.989574 -0.161611
N2    N     N_2   0.437663 0.428824 0.013757 -0.203751
N3    N     N_R   0.142860 0.499130 0.500540 -0.097081
N4    N     N_R   0.857210 0.499170 0.500530 -0.112551
O1    O     O_R   0.614690 0.316790 0.499990 -0.637003
O2    O     O_R   0.385350 0.316760 0.500000 -0.595623
O3    O     O_R   0.627460 0.498860 0.616130 -0.606763
O4    O     O_R   0.398120 0.498820 0.616130 -0.600466
O5    O     O_R   0.614650 0.683240 0.500000 -0.614036
O6    O     O_R   0.385310 0.683210 0.500010 -0.607685
O7    O     O_R   0.601880 0.501180 0.383870 -0.614083
O8    O     O_R   0.372540 0.501140 0.383870 -0.602764
Zn1   Zn    Zn3+2 0.653130 0.500020 0.499990 0.947797
Zn2   Zn    Zn3+2 0.346870 0.499980 0.500010 0.967912
N5    N     N_3   0.335962 0.870457 0.608775 -0.474010
H6    H     H_    0.400049 0.807327 0.641862 0.197497
H7    H     H_    0.256277 0.822087 0.577230 0.218421
H8    H     H_    0.782339 0.886626 0.486529 0.170845
N6    N     N_3   0.738206 0.876104 0.357980 -0.451422
H9    H     H_    0.839305 0.892218 0.347343 0.178431
H10   H     H_    0.676830 0.921438 0.312143 0.200300
H11   H     H_    0.781306 0.112587 0.487697 0.194650
H12   H     H_    0.733044 0.116800 0.376796 0.196396
N7    N     N_3   0.128249 0.669031 0.403734 -0.397571
H13   H     H_    0.100749 0.758902 0.420196 0.158588
H14   H     H_    0.089072 0.655473 0.344215 0.158220
N8    N     N_3   0.900481 0.490939 0.677155 -0.402450
H15   H     H_    0.941657 0.575344 0.658547 0.174151
H16   H     H_    0.937335 0.477228 0.737249 0.184959
N9    N     N_3   0.890830 0.266810 0.652849 -0.452259
H17   H     H_    0.786143 0.269399 0.636304 0.204484
H18   H     H_    0.929369 0.195309 0.619266 0.160899
H19   H     H_    0.155603 0.463244 0.662078 0.209676
N10   N     N_3   0.650268 0.294981 0.114116 -0.444044
H20   H     H_    0.599755 0.213694 0.093761 0.180409
H21   H     H_    0.726163 0.267034 0.158518 0.170241
H22   H     H_    0.721643 0.346603 0.893559 0.153179
H23   H     H_    0.273407 0.568481 0.238778 0.159770
H24   H     H_    0.254071 0.529297 0.094273 0.148531
N11   N     N_3   0.334282 0.635289 0.746135 -0.468512
H25   H     H_    0.348816 0.724282 0.770857 0.179207
H26   H     H_    0.239657 0.603514 0.760806 0.175422
N12   N     N_3   0.336415 0.132103 0.606251 -0.446105
H27   H     H_    0.369614 0.105414 0.665105 0.192840
H28   H     H_    0.234665 0.105430 0.594566 0.190699

loop_
_geom_bond_atom_site_label_1
_geom_bond_atom_site_label_2
_ccdc_geom_bond_type
C23   O6    A    
C5    N2    S    
C18   C21   A    
C19   C20   A    
C7    C8    A    
O8    Zn2   S    
N3    Zn2   S    
C29   N1    S    
C26   C27   A    
C29   C30   A    
C18   C24   S    
C28   C29   A    
C3    N10   S    
C12   O4    A    
N12   H28   S    
C6    C25   S    
C15   C16   S    
N10   H21   S    
C16   H8    S    
N8    H16   S    
C1    O1    A    
C28   H5    S    
C16   C17   S    
N9    H18   S    
N5    H7    S    
C9    C10   A    
C25   O8    A    
C17   H12   S    
C2    H4    S    
N7    H13   S    
C13   C14   A    
C27   N11   S    
O2    Zn2   S    
O7    Zn1   S    
N6    H10   S    
N7    H14   S    
C12   O3    A    
C7    H23   S    
C20   N4    A    
N12   H27   S    
O4    Zn2   S    
C19   N7    S    
C23   O5    A    
C12   C26   S    
C14   C23   S    
N11   H25   S    
C22   N9    S    
N8    H15   S    
C11   N12   S    
C22   N8    S    
C21   N4    A    
O6    Zn2   S    
C8    H24   S    
N5    H6    S    
C2    C26   A    
O3    Zn1   S    
N11   H26   S    
C9    C17   S    
C22   C24   S    
C4    C6    A    
C3    C4    A    
C20   H2    S    
C1    O2    A    
O1    Zn1   S    
N6    H9    S    
N1    N2    D    
C1    C10   S    
C3    C5    A    
C5    C8    A    
C30   H22   S    
C6    C7    A    
C24   H3    S    
C2    C30   A    
C9    C15   A    
C11   C13   A    
C18   N3    A    
N10   H20   S    
C16   N6    S    
C4    H1    S    
C10   C11   A    
C24   H19   S    
C13   N5    S    
C19   N3    A    
N9    H17   S    
C27   C28   A    
C14   C15   A    
C21   C22   S    
C25   O7    A    
O5    Zn1   S    
C17   H11   S    
N4    Zn1   S    
