data_mof_unit_28181.cif
_audit_creation_date              2012-10-26T21:03:35-0400
_audit_creation_method            fapswitch 2.2
_symmetry_space_group_name_H-M    P1
_symmetry_Int_Tables_number       1
_space_group_crystal_system       triclinic
_cell_length_a                    15.979805
_cell_length_b                    14.718057
_cell_length_c                    10.880821
_cell_angle_alpha                 90.200669
_cell_angle_beta                  90.201982
_cell_angle_gamma                 89.746831
_cell_volume                      2559.02214044

loop_
_atom_site_label
_atom_site_type_symbol
_atom_type_description
_atom_site_fract_x
_atom_site_fract_y
_atom_site_fract_z
_atom_type_partial_charge
C1    C     C_R   0.340859 0.500068 0.500928 0.539338
C2    C     C_R   0.427011 0.952357 0.535699 0.215142
C3    C     C_R   0.500634 0.902883 0.508563 -0.107460
C4    C     C_R   0.426865 0.048752 0.534256 0.198254
C5    C     C_R   0.574895 0.047701 0.484615 0.194125
C6    C     C_R   0.500630 0.097177 0.507322 -0.071210
C7    C     C_1   0.500106 0.802685 0.503960 0.256234
C8    C     C_1   0.500222 0.197326 0.503201 0.244899
C9    C     C_R   0.505270 0.499855 0.260890 0.585717
C10   C     C_R   0.489812 0.500787 0.737556 0.566683
C11   C     C_R   0.557201 0.661308 0.106329 0.221919
C12   C     C_R   0.659200 0.499794 0.499536 0.557486
C13   C     C_R   0.465697 0.672612 0.887372 0.240029
C14   C     C_R   0.544006 0.745848 0.049689 0.261808
C15   C     C_R   0.501668 0.750866 0.936924 0.257578
C16   C     C_R   0.485110 0.586171 0.937948 -0.110267
C17   C     C_R   0.517863 0.582090 0.058347 -0.110367
C18   C     C_R   0.507866 0.499634 0.125165 -0.020658
C19   C     C_R   0.476555 0.503582 0.871524 -0.026971
C20   C     C_R   0.485640 0.418952 0.061518 0.240091
C21   C     C_R   0.468996 0.421267 0.935766 0.250510
C22   C     C_R   0.957266 0.573609 0.452846 0.226403
C23   C     C_R   0.954518 0.411885 0.500102 0.260772
C24   C     C_R   0.044794 0.571633 0.454153 0.231018
C25   C     C_R   0.912648 0.494493 0.479366 -0.045726
C26   C     C_R   0.087726 0.490671 0.483634 -0.057959
C27   C     C_3   0.546422 0.283486 0.112431 0.045375
C28   C     C_3   0.524146 0.185164 0.142510 -0.259847
C29   C     C_3   0.600218 0.122769 0.131387 -0.460268
C30   C     C_3   0.366348 0.339637 0.835650 0.044353
C31   C     C_3   0.309666 0.298749 0.933925 -0.269388
C32   C     C_3   0.220157 0.288658 0.886493 -0.452865
C33   C     C_3   0.514933 0.856383 0.191247 0.034589
C34   C     C_R   0.042671 0.408619 0.504133 0.246543
C35   C     C_3   0.439781 0.905330 0.131977 -0.290212
C36   C     C_3   0.386942 0.955207 0.227127 -0.455276
C37   C     C_3   0.567496 0.863967 0.830192 0.051263
C38   C     C_3   0.566898 0.967803 0.823038 -0.262289
C39   C     C_3   0.652446 0.004976 0.787571 -0.439609
C40   C     C_3   0.904741 0.275475 0.427490 0.049610
C41   C     C_3   0.830045 0.297940 0.343943 -0.282866
C42   C     C_3   0.822353 0.229532 0.238905 -0.444276
C43   C     C_3   0.150965 0.295865 0.485188 0.020361
C44   C     C_3   0.146703 0.296186 0.343562 -0.301192
C45   C     C_1   0.823073 0.497623 0.487704 0.064975
C46   C     C_3   0.229989 0.265364 0.288668 -0.439931
C47   C     C_1   0.177046 0.495287 0.493931 0.028886
C48   C     C_1   0.251941 0.499356 0.498617 0.024850
C49   C     C_1   0.748165 0.499165 0.494043 0.053115
C50   C     C_R   0.574852 0.951389 0.484839 0.162720
Cl1   Cl    Cl    0.639310 0.655184 0.215624 -0.471698
Cl2   Cl    Cl    0.381454 0.687679 0.783120 -0.454926
Cl3   Cl    Cl    0.100741 0.672589 0.423032 -0.412371
Cl4   Cl    Cl    0.903308 0.676144 0.420963 -0.380832
Cl5   Cl    Cl    0.669146 0.106559 0.458040 -0.602862
Cl6   Cl    Cl    0.333527 0.109058 0.566059 -0.596605
Cl7   Cl    Cl    0.668448 0.891135 0.453827 -0.454600
Cl8   Cl    Cl    0.334163 0.893423 0.571093 -0.396756
Cu1   Cu    Cu3+1 0.500000 0.589220 0.500000 1.143118
Cu2   Cu    Cu3+1 0.500000 0.410780 0.500000 1.034588
H1    H     H_    0.594594 0.307962 0.178717 0.144357
H2    H     H_    0.334165 0.230886 0.961057 0.194981
H3    H     H_    0.309403 0.343491 0.016388 0.182397
H4    H     H_    0.193989 0.356042 0.860762 0.172139
H5    H     H_    0.180405 0.258941 0.959389 0.161184
H6    H     H_    0.218648 0.242990 0.804986 0.199443
H7    H     H_    0.548224 0.905908 0.250028 0.194841
H8    H     H_    0.492858 0.800831 0.252164 0.150513
H9    H     H_    0.462052 0.955665 0.064380 0.194543
H10   H     H_    0.399233 0.855299 0.084090 0.213622
H11   H     H_    0.362589 0.906475 0.295726 0.210167
H12   H     H_    0.573494 0.284751 0.018024 0.160504
H13   H     H_    0.333044 0.988792 0.181016 0.185795
H14   H     H_    0.424797 0.008253 0.273742 0.140222
H15   H     H_    0.575506 0.835229 0.736480 0.161269
H16   H     H_    0.623148 0.842923 0.885495 0.175074
H17   H     H_    0.519263 0.990349 0.755253 0.188233
H18   H     H_    0.549909 0.996965 0.913586 0.175685
H19   H     H_    0.698611 0.991380 0.861895 0.175670
H20   H     H_    0.647868 0.079557 0.773761 0.181759
H21   H     H_    0.674937 0.972961 0.701401 0.229732
H22   H     H_    0.896674 0.205593 0.463715 0.208678
H23   H     H_    0.499278 0.181450 0.237533 0.182013
H24   H     H_    0.963261 0.274496 0.372618 0.126290
H25   H     H_    0.771423 0.297698 0.398643 0.217971
H26   H     H_    0.838278 0.366501 0.303625 0.156950
H27   H     H_    0.880435 0.228739 0.183103 0.158642
H28   H     H_    0.769181 0.249161 0.178508 0.146280
H29   H     H_    0.810947 0.160348 0.275465 0.217767
H30   H     H_    0.159794 0.223925 0.513135 0.213277
H31   H     H_    0.207471 0.329693 0.521597 0.146084
H32   H     H_    0.097243 0.248825 0.311915 0.164140
H33   H     H_    0.132131 0.364930 0.307716 0.158265
H34   H     H_    0.474688 0.161211 0.078144 0.176294
H35   H     H_    0.246415 0.195988 0.320919 0.199307
H36   H     H_    0.280640 0.313102 0.315291 0.182034
H37   H     H_    0.224992 0.264000 0.186970 0.145188
H38   H     H_    0.624900 0.123785 0.036120 0.147811
H39   H     H_    0.582248 0.052210 0.154441 0.177471
H40   H     H_    0.650067 0.144722 0.195877 0.204195
H41   H     H_    0.363239 0.296206 0.752007 0.194127
H42   H     H_    0.342275 0.407881 0.808010 0.118177
N1    N     N_1   0.500000 0.276710 0.500000 -0.169955
N2    N     N_1   0.500000 0.723290 0.500000 -0.135071
O1    O     O_R   0.380310 0.575320 0.500020 -0.442309
O2    O     O_3   0.450715 0.340123 0.876243 -0.544228
O3    O     O_3   0.573400 0.824964 0.103075 -0.514847
O4    O     O_3   0.490260 0.833760 0.878955 -0.517529
O5    O     O_3   0.908295 0.335437 0.529529 -0.517607
O6    O     O_3   0.077711 0.327081 0.545944 -0.536312
O7    O     O_R   0.619690 0.575320 0.499980 -0.444871
O8    O     O_R   0.380310 0.424640 0.499960 -0.533408
O9    O     O_R   0.619690 0.424640 0.500040 -0.509046
O10   O     O_R   0.500000 0.575360 0.319640 -0.479084
O11   O     O_R   0.500000 0.575360 0.680360 -0.474232
O12   O     O_R   0.500000 0.424670 0.319580 -0.471682
O13   O     O_R   0.500000 0.424670 0.680420 -0.471247
O14   O     O_3   0.473513 0.337771 0.122765 -0.544733

loop_
_geom_bond_atom_site_label_1
_geom_bond_atom_site_label_2
_ccdc_geom_bond_type
C41   C42   S    
C40   H24   S    
C35   C36   S    
C33   O3    S    
C20   O14   S    
C12   C49   S    
C22   Cl4   S    
C41   H26   S    
Cu1   O1    S    
C29   H38   S    
Cu1   N2    S    
C28   C29   S    
C19   C21   A    
C24   C26   A    
C3    C7    S    
C16   C19   A    
C1    O8    A    
C30   C31   S    
C11   C14   A    
C28   H34   S    
C44   H33   S    
C27   H1    S    
C26   C34   A    
C46   H35   S    
C31   C32   S    
C35   H10   S    
C16   C17   A    
C22   C25   A    
Cu1   O7    S    
C14   O3    S    
C43   O6    S    
Cu2   N1    S    
C21   O2    S    
C44   H32   S    
C36   H11   S    
C37   H15   S    
Cu1   Cu2   S    
C30   O2    S    
C28   H23   S    
C50   Cl7   S    
C31   H2    S    
Cu2   O9    S    
C46   H37   S    
C3    C50   A    
C44   C46   S    
C38   C39   S    
C23   O5    S    
C43   H30   S    
C29   H39   S    
C40   H22   S    
C39   H21   S    
C37   O4    S    
C4    C6    A    
C6    C8    S    
C38   H18   S    
C24   Cl3   S    
C43   H31   S    
C39   H19   S    
C15   O4    S    
C2    C4    A    
C43   C44   S    
C37   C38   S    
Cu2   O8    S    
C31   H3    S    
C13   Cl2   S    
C47   C48   T    
C45   C49   T    
C10   C19   S    
C23   C34   A    
C30   H42   S    
C17   C18   A    
Cu2   O13   S    
C32   H4    S    
C36   H14   S    
C26   C47   S    
C40   C41   S    
C37   H16   S    
C7    N2    T    
C13   C15   A    
C34   O6    S    
C22   C24   A    
C5    C50   A    
Cu2   O12   S    
C42   H28   S    
C9    O10   A    
C25   C45   S    
C33   H7    S    
C32   H6    S    
C12   O9    A    
C27   O14   S    
C11   C17   A    
C29   H40   S    
C9    O12   A    
C5    Cl5   S    
C2    Cl8   S    
C1    C48   S    
C40   O5    S    
C38   H17   S    
C41   H25   S    
C42   H29   S    
C39   H20   S    
C2    C3    A    
C10   O13   A    
C5    C6    A    
Cu1   O10   S    
C30   H41   S    
C33   C35   S    
C18   C20   A    
C23   C25   A    
C8    N1    T    
C11   Cl1   S    
C36   H13   S    
C27   H12   S    
C9    C18   S    
C46   H36   S    
C20   C21   A    
C35   H9    S    
Cu1   O11   S    
C13   C16   A    
C27   C28   S    
C14   C15   A    
C42   H27   S    
C12   O7    A    
C4    Cl6   S    
C10   O11   A    
C33   H8    S    
C1    O1    A    
C32   H5    S    
