data_mof_unit_41754.cif
_audit_creation_date              2012-12-11T15:07:11-0500
_audit_creation_method            fapswitch 2.2
_symmetry_space_group_name_H-M    P1
_symmetry_Int_Tables_number       1
_space_group_crystal_system       triclinic
_cell_length_a                    19.656168
_cell_length_b                    11.342918
_cell_length_c                    18.711387
_cell_angle_alpha                 90.008475
_cell_angle_beta                  90.135985
_cell_angle_gamma                 89.796113
_cell_volume                      4171.8208658

loop_
_atom_site_label
_atom_site_type_symbol
_atom_type_description
_atom_site_fract_x
_atom_site_fract_y
_atom_site_fract_z
_atom_type_partial_charge
C1    C     C_R   0.761282 0.523488 0.639218 0.537944
C2    C     C_R   0.238686 0.523647 0.360807 0.538792
C3    C     C_R   0.261282 0.023488 0.639218 0.537943
C4    C     C_R   0.738686 0.023647 0.360807 0.538789
C5    C     C_3   0.810734 0.130460 0.449074 -0.260162
C6    C     C_3   0.189038 0.130653 0.550934 -0.260319
C7    C     C_3   0.310734 0.630460 0.449074 -0.260162
C8    C     C_3   0.689038 0.630653 0.550934 -0.260320
C9    C     C_3   0.747042 0.056737 0.436747 0.066510
C10   C     C_3   0.252859 0.056639 0.563284 0.066437
C11   C     C_3   0.247042 0.556737 0.436747 0.066510
C12   C     C_3   0.752858 0.556639 0.563284 0.066437
C13   C     C_3   0.760119 0.090624 0.574185 0.066457
C14   C     C_3   0.239878 0.090637 0.425826 0.066304
C15   C     C_3   0.260119 0.590624 0.574185 0.066456
C16   C     C_3   0.739878 0.590637 0.425826 0.066304
C17   C     C_3   0.753654 0.958421 0.561897 -0.262217
C18   C     C_3   0.246605 0.958386 0.438102 -0.262007
C19   C     C_3   0.253654 0.458422 0.561897 -0.262217
C20   C     C_3   0.746605 0.458386 0.438102 -0.262007
C21   C     C_3   0.823023 0.133375 0.530047 -0.216284
C22   C     C_3   0.176874 0.133731 0.469930 -0.216147
C23   C     C_3   0.323023 0.633375 0.530047 -0.216284
C24   C     C_3   0.676874 0.633731 0.469930 -0.216147
C25   C     C_3   0.003859 0.205329 0.458898 -0.232557
C26   C     C_3   0.996114 0.205189 0.540882 -0.232893
C27   C     C_3   0.503859 0.705329 0.458898 -0.232557
C28   C     C_3   0.496114 0.705189 0.540882 -0.232893
C29   C     C_3   0.064528 0.405805 0.474485 -0.213377
C30   C     C_3   0.935331 0.405994 0.525567 -0.213432
C31   C     C_3   0.564528 0.905805 0.474485 -0.213376
C32   C     C_3   0.435331 0.905994 0.525567 -0.213432
C33   C     C_3   0.941564 0.390714 0.444465 -0.262282
C34   C     C_3   0.058372 0.390073 0.555538 -0.262071
C35   C     C_3   0.441564 0.890714 0.444465 -0.262282
C36   C     C_3   0.558372 0.890073 0.555538 -0.262072
C37   C     C_3   0.010528 0.333382 0.430918 0.064711
C38   C     C_3   0.989468 0.333165 0.569045 0.064325
C39   C     C_3   0.510528 0.833382 0.430918 0.064712
C40   C     C_3   0.489468 0.833165 0.569045 0.064325
C41   C     C_3   0.818603 0.018896 0.047214 0.122155
C42   C     C_3   0.187823 0.002579 0.956584 0.117294
C43   C     C_3   0.318602 0.518905 0.047215 0.122212
C44   C     C_3   0.687824 0.502579 0.956585 0.117322
C45   C     C_R   0.774110 0.121040 0.649481 0.536900
C46   C     C_R   0.225880 0.121148 0.350513 0.535883
C47   C     C_R   0.274110 0.621040 0.649481 0.536900
C48   C     C_R   0.725880 0.621148 0.350513 0.535883
C49   C     C_3   0.823792 0.035658 0.967223 -0.184554
C50   C     C_3   0.183590 0.014120 0.037031 -0.192295
C51   C     C_3   0.323793 0.535661 0.967225 -0.184467
C52   C     C_3   0.683590 0.514118 0.037030 -0.192272
C53   C     C_3   0.692837 0.012801 0.031715 -0.266193
C54   C     C_3   0.317412 0.034262 0.968551 -0.263805
C55   C     C_3   0.192836 0.512793 0.031712 -0.266200
C56   C     C_3   0.817412 0.534263 0.968552 -0.263806
C57   C     C_3   0.748427 0.201561 0.061209 -0.233445
C58   C     C_3   0.240917 0.197561 0.938682 -0.231617
C59   C     C_3   0.248417 0.701560 0.061207 -0.233431
C60   C     C_3   0.740916 0.697561 0.938683 -0.231616
C61   C     C_3   0.750196 0.070074 0.075498 0.105331
C62   C     C_3   0.251701 0.066974 0.925844 0.099471
C63   C     C_3   0.250192 0.570073 0.075496 0.105325
C64   C     C_3   0.751701 0.566974 0.925844 0.099462
C65   C     C_3   0.761317 0.103881 0.936356 0.040930
C66   C     C_3   0.239477 0.098859 0.064987 0.037349
C67   C     C_3   0.261317 0.603880 0.936356 0.040911
C68   C     C_3   0.739476 0.598858 0.064987 0.037348
C69   C     C_3   0.700227 0.024724 0.949431 -0.277593
C70   C     C_3   0.307982 0.041134 0.050629 -0.273124
C71   C     C_3   0.200229 0.524719 0.949429 -0.277597
C72   C     C_3   0.807982 0.541133 0.050630 -0.273128
C73   C     C_3   0.746493 0.218760 0.979362 -0.227860
C74   C     C_3   0.236710 0.213197 0.020603 -0.229520
C75   C     C_3   0.246489 0.718758 0.979360 -0.227860
C76   C     C_3   0.736711 0.713197 0.020604 -0.229515
C77   C     C_3   0.995546 0.482287 0.042182 -0.232023
C78   C     C_3   0.991018 0.482258 0.961187 -0.223499
C79   C     C_3   0.495543 0.982282 0.042183 -0.232031
C80   C     C_3   0.491017 0.982256 0.961187 -0.223501
C81   C     C_3   0.067961 0.299659 0.025459 -0.231504
C82   C     C_3   0.938219 0.273259 0.973806 -0.206197
C83   C     C_3   0.567965 0.799664 0.025457 -0.231511
C84   C     C_3   0.438221 0.773256 0.973804 -0.206181
C85   C     C_3   0.947542 0.282949 0.055359 -0.227844
C86   C     C_3   0.057729 0.302822 0.943666 -0.260978
C87   C     C_3   0.447549 0.782933 0.055357 -0.227804
C88   C     C_3   0.557731 0.802825 0.943664 -0.260976
C89   C     C_R   0.969043 0.342116 0.645016 0.537025
C90   C     C_R   0.030970 0.342295 0.354979 0.537362
C91   C     C_R   0.469043 0.842116 0.645016 0.537025
C92   C     C_R   0.530970 0.842295 0.354979 0.537363
C93   C     C_3   0.009911 0.355272 0.069541 0.031448
C94   C     C_3   0.987734 0.353993 0.931079 0.046029
C95   C     C_3   0.509913 0.855268 0.069540 0.031428
C96   C     C_3   0.487735 0.853993 0.931077 0.046018
C97   C     C_R   0.760545 0.533025 0.849036 0.550973
C98   C     C_R   0.240289 0.535449 0.152070 0.558198
C99   C     C_R   0.260545 0.033024 0.849036 0.550980
C100  C     C_R   0.740290 0.035451 0.152071 0.558198
C101  C     C_R   0.774412 0.132797 0.859041 0.532943
C102  C     C_R   0.226317 0.130285 0.142003 0.530200
C103  C     C_R   0.274413 0.632797 0.859041 0.532937
C104  C     C_R   0.726317 0.630285 0.142004 0.530198
C105  C     C_R   0.967129 0.353825 0.854576 0.537105
C106  C     C_R   0.031580 0.354075 0.146103 0.535256
C107  C     C_R   0.467130 0.853825 0.854575 0.537104
C108  C     C_R   0.531581 0.854074 0.146102 0.535255
C109  C     C_3   0.687173 0.132140 0.465236 -0.234488
C110  C     C_3   0.312476 0.131999 0.534869 -0.234313
C111  C     C_3   0.187173 0.632140 0.465236 -0.234488
C112  C     C_3   0.812476 0.631999 0.534869 -0.234313
C113  C     C_3   0.692535 0.145455 0.546414 -0.231298
C114  C     C_3   0.307264 0.145121 0.453685 -0.231499
C115  C     C_3   0.192535 0.645455 0.546414 -0.231298
C116  C     C_3   0.807264 0.645120 0.453685 -0.231498
C117  C     C_3   0.756631 0.939453 0.480602 -0.217716
C118  C     C_3   0.243526 0.939433 0.519384 -0.217626
C119  C     C_3   0.256631 0.439453 0.480602 -0.217716
C120  C     C_3   0.743526 0.439433 0.519384 -0.217626
Cr1   Cr    Cr6+3 0.885690 0.492860 0.745310 0.992230
Cr2   Cr    Cr6+3 0.114310 0.492860 0.254690 0.992248
Cr3   Cr    Cr6+3 0.385690 0.992860 0.745310 0.992228
Cr4   Cr    Cr6+3 0.614310 0.992860 0.254690 0.992240
Cr5   Cr    Cr6+3 0.729880 0.332270 0.748190 1.005584
Cr6   Cr    Cr6+3 0.270120 0.332270 0.251810 1.003066
Cr7   Cr    Cr6+3 0.229880 0.832270 0.748190 1.005594
Cr8   Cr    Cr6+3 0.770120 0.832270 0.251810 1.003106
Cr9   Cr    Cr6+3 0.888120 0.178590 0.753010 1.000698
Cr10  Cr    Cr6+3 0.111880 0.178590 0.246990 0.998414
Cr11  Cr    Cr6+3 0.388120 0.678590 0.753010 1.000695
Cr12  Cr    Cr6+3 0.611880 0.678590 0.246990 0.998392
H1    H     H_    0.638248 0.095423 0.450384 0.131399
H2    H     H_    0.361528 0.095686 0.549973 0.131664
H3    H     H_    0.138248 0.595423 0.450384 0.131399
H4    H     H_    0.861528 0.595686 0.549973 0.131664
H5    H     H_    0.863784 0.067920 0.540484 0.126607
H6    H     H_    0.136333 0.068444 0.459435 0.126873
H7    H     H_    0.363785 0.567921 0.540484 0.126607
H8    H     H_    0.636333 0.568444 0.459435 0.126873
H9    H     H_    0.809124 0.908962 0.469655 0.125518
H10   H     H_    0.191077 0.909298 0.530224 0.125394
H11   H     H_    0.309124 0.408962 0.469655 0.125518
H12   H     H_    0.691077 0.409298 0.530224 0.125394
H13   H     H_    0.795914 0.910411 0.588794 0.121007
H14   H     H_    0.204518 0.910526 0.411133 0.121049
H15   H     H_    0.295914 0.410411 0.588794 0.121007
H16   H     H_    0.704518 0.410526 0.411133 0.121048
H17   H     H_    0.046322 0.150839 0.442092 0.130836
H18   H     H_    0.953492 0.151366 0.557488 0.130604
H19   H     H_    0.546322 0.650839 0.442092 0.130836
H20   H     H_    0.453493 0.651366 0.557489 0.130604
H21   H     H_    0.959262 0.162124 0.434152 0.108446
H22   H     H_    0.040627 0.161264 0.565612 0.108553
H23   H     H_    0.459262 0.662124 0.434152 0.108444
H24   H     H_    0.540628 0.661264 0.565612 0.108553
H25   H     H_    0.616436 0.890890 0.455978 0.111342
H26   H     H_    0.383474 0.890838 0.543990 0.111855
H27   H     H_    0.116436 0.390890 0.455978 0.111342
H28   H     H_    0.883474 0.390838 0.543990 0.111854
H29   H     H_    0.600193 0.834586 0.576748 0.105048
H30   H     H_    0.399822 0.835626 0.423104 0.105104
H31   H     H_    0.100193 0.334585 0.576748 0.105048
H32   H     H_    0.899822 0.335626 0.423104 0.105104
H33   H     H_    0.938305 0.477769 0.417548 0.122097
H34   H     H_    0.061647 0.477001 0.582611 0.122295
H35   H     H_    0.438305 0.977769 0.417548 0.122097
H36   H     H_    0.561647 0.977001 0.582611 0.122295
H37   H     H_    0.947408 0.499679 0.536003 0.130333
H38   H     H_    0.052304 0.499664 0.464235 0.129830
H39   H     H_    0.447408 0.999679 0.536003 0.130332
H40   H     H_    0.552304 0.999664 0.464235 0.129829
H41   H     H_    0.821112 0.923909 0.057081 0.125100
H42   H     H_    0.192076 0.910657 0.943349 0.133905
H43   H     H_    0.321114 0.423916 0.057084 0.125010
H44   H     H_    0.692076 0.410656 0.943347 0.133878
H45   H     H_    0.687360 0.220320 0.439843 0.107399
H46   H     H_    0.311829 0.220234 0.560167 0.107443
H47   H     H_    0.187360 0.720320 0.439843 0.107399
H48   H     H_    0.811829 0.720234 0.560167 0.107443
H49   H     H_    0.871364 0.077845 0.954323 0.154033
H50   H     H_    0.131505 0.043239 0.050957 0.156837
H51   H     H_    0.371366 0.577847 0.954327 0.154074
H52   H     H_    0.631504 0.543233 0.050955 0.156852
H53   H     H_    0.827559 0.947562 0.941133 0.081819
H54   H     H_    0.189660 0.927045 0.062677 0.079408
H55   H     H_    0.327562 0.447564 0.941137 0.081800
H56   H     H_    0.689661 0.427043 0.062676 0.079395
H57   H     H_    0.699723 0.922405 0.046090 0.092236
H58   H     H_    0.338219 0.949387 0.951869 0.108972
H59   H     H_    0.199724 0.422398 0.046087 0.092239
H60   H     H_    0.838220 0.449389 0.951869 0.108976
H61   H     H_    0.708052 0.937442 0.924044 0.108136
H62   H     H_    0.310327 0.952127 0.074947 0.105282
H63   H     H_    0.208055 0.437438 0.924041 0.108136
H64   H     H_    0.810324 0.452125 0.074946 0.105282
H65   H     H_    0.702156 0.239474 0.086374 0.096245
H66   H     H_    0.283665 0.249964 0.916465 0.090166
H67   H     H_    0.202141 0.739465 0.086368 0.096245
H68   H     H_    0.783664 0.749965 0.916465 0.090164
H69   H     H_    0.793310 0.245497 0.085004 0.155584
H70   H     H_    0.193903 0.229150 0.911862 0.161208
H71   H     H_    0.293295 0.745505 0.085007 0.155589
H72   H     H_    0.693902 0.729150 0.911864 0.161209
H73   H     H_    0.778996 0.291701 0.963023 0.095094
H74   H     H_    0.188466 0.248774 0.032781 0.117277
H75   H     H_    0.278995 0.791698 0.963024 0.095095
H76   H     H_    0.688469 0.748782 0.032785 0.117271
H77   H     H_    0.692881 0.240591 0.966862 0.113819
H78   H     H_    0.278296 0.268838 0.038196 0.110956
H79   H     H_    0.192878 0.740588 0.966855 0.113826
H80   H     H_    0.778300 0.768831 0.038196 0.110953
H81   H     H_    0.643060 0.047702 0.048935 0.134053
H82   H     H_    0.354769 0.102988 0.954652 0.126443
H83   H     H_    0.143059 0.547691 0.048931 0.134052
H84   H     H_    0.854769 0.602990 0.954654 0.126444
H85   H     H_    0.687432 0.237629 0.561770 0.137958
H86   H     H_    0.312203 0.237186 0.438258 0.137996
H87   H     H_    0.187432 0.737629 0.561770 0.137958
H88   H     H_    0.812203 0.737187 0.438258 0.137996
H89   H     H_    0.653374 0.063593 0.925727 0.119362
H90   H     H_    0.348352 0.096246 0.075092 0.123460
H91   H     H_    0.153375 0.563586 0.925723 0.119367
H92   H     H_    0.848352 0.596241 0.075094 0.123466
H93   H     H_    0.034845 0.546539 0.058255 0.133413
H94   H     H_    0.948940 0.537153 0.943856 0.135584
H95   H     H_    0.534840 0.046538 0.058256 0.133414
H96   H     H_    0.448940 0.037151 0.943855 0.135584
H97   H     H_    0.947774 0.515222 0.065753 0.117969
H98   H     H_    0.036229 0.528228 0.939114 0.115986
H99   H     H_    0.447769 0.015209 0.065752 0.117967
H100  H     H_    0.536228 0.028229 0.939116 0.115986
H101  H     H_    0.608427 0.856322 0.037924 0.118454
H102  H     H_    0.385317 0.784570 0.957906 0.115563
H103  H     H_    0.108426 0.356311 0.037928 0.118449
H104  H     H_    0.885315 0.284569 0.957904 0.115567
H105  H     H_    0.597316 0.856589 0.917018 0.105957
H106  H     H_    0.402147 0.821444 0.081583 0.125796
H107  H     H_    0.097316 0.356586 0.917021 0.105961
H108  H     H_    0.902142 0.321478 0.081580 0.125760
H109  H     H_    0.958933 0.196056 0.078581 0.186921
H110  H     H_    0.060567 0.213576 0.920467 0.193245
H111  H     H_    0.458951 0.696034 0.078568 0.186938
H112  H     H_    0.560570 0.713577 0.920466 0.193260
H113  H     H_    0.953093 0.182224 0.959462 0.129511
H114  H     H_    0.077830 0.208277 0.043059 0.144009
H115  H     H_    0.453094 0.682223 0.959454 0.129541
H116  H     H_    0.577839 0.708284 0.043057 0.144018
H117  H     H_    0.648594 0.102089 0.572264 0.107187
H118  H     H_    0.351315 0.101514 0.427941 0.107207
H119  H     H_    0.148594 0.602089 0.572264 0.107187
H120  H     H_    0.851315 0.601514 0.427941 0.107207
H121  H     H_    0.722240 0.869476 0.463715 0.108601
H122  H     H_    0.277888 0.869155 0.536362 0.108490
H123  H     H_    0.222240 0.369476 0.463715 0.108601
H124  H     H_    0.777888 0.369155 0.536362 0.108490
H125  H     H_    0.705407 0.924608 0.584363 0.104855
H126  H     H_    0.294938 0.924360 0.415691 0.104868
H127  H     H_    0.205407 0.424608 0.584363 0.104855
H128  H     H_    0.794938 0.424360 0.415691 0.104868
H129  H     H_    0.855087 0.090131 0.421608 0.124838
H130  H     H_    0.144796 0.090459 0.578343 0.124757
H131  H     H_    0.355087 0.590131 0.421608 0.124836
H132  H     H_    0.644796 0.590459 0.578343 0.124757
H133  H     H_    0.804110 0.220642 0.427449 0.105250
H134  H     H_    0.195468 0.220746 0.572643 0.104917
H135  H     H_    0.304110 0.720642 0.427449 0.105250
H136  H     H_    0.695468 0.720746 0.572643 0.104917
H137  H     H_    0.841615 0.219295 0.547749 0.111974
H138  H     H_    0.158236 0.219782 0.452228 0.112549
H139  H     H_    0.341615 0.719295 0.547749 0.111974
H140  H     H_    0.658236 0.719782 0.452228 0.112549
O1    O     O_R   0.957210 0.449410 0.665480 -0.532683
O2    O     O_R   0.042790 0.449410 0.334520 -0.533358
O3    O     O_R   0.457210 0.949410 0.665480 -0.532684
O4    O     O_R   0.542790 0.949410 0.334520 -0.533358
O5    O     O_R   0.736260 0.212010 0.826560 -0.511794
O6    O     O_R   0.263740 0.212010 0.173440 -0.512863
O7    O     O_R   0.236260 0.712010 0.826560 -0.511790
O8    O     O_R   0.763740 0.712010 0.173440 -0.512857
O9    O     O_R   0.832520 0.095300 0.836000 -0.535393
O10   O     O_R   0.167480 0.095300 0.164000 -0.536400
O11   O     O_R   0.332520 0.595300 0.836000 -0.535398
O12   O     O_R   0.667480 0.595300 0.164000 -0.536406
O13   O     O_R   0.946380 0.253940 0.826940 -0.509177
O14   O     O_R   0.053620 0.253940 0.173060 -0.510226
O15   O     O_R   0.446380 0.753940 0.826940 -0.509182
O16   O     O_R   0.553620 0.753940 0.173060 -0.510235
O17   O     O_3   0.834560 0.334570 0.748840 -0.280640
O18   O     O_3   0.165440 0.334570 0.251160 -0.277471
O19   O     O_3   0.334560 0.834570 0.748840 -0.280640
O20   O     O_3   0.665440 0.834570 0.251160 -0.277473
O21   O     O_R   0.820730 0.541240 0.668250 -0.515313
O22   O     O_R   0.179270 0.541240 0.331750 -0.515864
O23   O     O_R   0.320730 0.041240 0.668250 -0.515314
O24   O     O_R   0.679270 0.041240 0.331750 -0.515866
O25   O     O_R   0.714240 0.455060 0.663710 -0.531112
O26   O     O_R   0.285760 0.455060 0.336290 -0.530955
O27   O     O_R   0.214240 0.955060 0.663710 -0.531112
O28   O     O_R   0.785760 0.955060 0.336290 -0.530952
O29   O     O_R   0.736780 0.204870 0.675910 -0.516382
O30   O     O_R   0.263220 0.204870 0.324090 -0.516867
O31   O     O_R   0.236780 0.704870 0.675910 -0.516382
O32   O     O_R   0.763220 0.704870 0.324090 -0.516867
O33   O     O_R   0.833070 0.087590 0.673490 -0.529476
O34   O     O_R   0.166930 0.087590 0.326510 -0.529640
O35   O     O_R   0.333070 0.587590 0.673490 -0.529476
O36   O     O_R   0.666930 0.587590 0.326510 -0.529643
O37   O     O_R   0.946890 0.246800 0.676300 -0.510222
O38   O     O_R   0.053110 0.246800 0.323700 -0.509823
O39   O     O_R   0.446890 0.746800 0.676300 -0.510222
O40   O     O_R   0.553110 0.746800 0.323700 -0.509825
O41   O     O_R   0.956650 0.457120 0.827980 -0.530491
O42   O     O_R   0.043350 0.457120 0.172020 -0.529626
O43   O     O_R   0.456650 0.957120 0.827980 -0.530491
O44   O     O_R   0.543350 0.957120 0.172020 -0.529625
O45   O     O_R   0.820220 0.548390 0.818890 -0.522234
O46   O     O_R   0.179780 0.548390 0.181110 -0.523297
O47   O     O_R   0.320220 0.048390 0.818890 -0.522238
O48   O     O_R   0.679780 0.048390 0.181110 -0.523307
O49   O     O_R   0.713680 0.462770 0.826210 -0.485392
O50   O     O_R   0.286320 0.462770 0.173790 -0.491892
O51   O     O_R   0.213680 0.962770 0.826210 -0.485373
O52   O     O_R   0.786320 0.962770 0.173790 -0.491824
O53   O     O_3   0.873515 0.068155 0.083638 -0.736652
H141  H     H_    0.912715 0.013345 0.077730 0.305640
O54   O     O_3   0.127731 0.043977 0.924215 -0.736269
H142  H     H_    0.091523 0.985246 0.933933 0.308993
O55   O     O_3   0.373506 0.568194 0.083640 -0.736607
H143  H     H_    0.412697 0.513276 0.077839 0.305593
O56   O     O_3   0.627732 0.543980 0.924221 -0.736178
H144  H     H_    0.591522 0.485195 0.933922 0.308909

loop_
_geom_bond_atom_site_label_1
_geom_bond_atom_site_label_2
_ccdc_geom_bond_type
C78   H94   S    
C5    H133  S    
C82   C94   S    
C119  H11   S    
C120  H12   S    
C21   H5    S    
C53   C69   S    
C104  O8    A    
C56   H60   S    
C43   C63   S    
C44   C64   S    
Cr6   O6    S    
Cr11  O35   S    
C84   H115  S    
C16   C20   S    
C114  H86   S    
C63   C98   S    
C51   H51   S    
Cr2   O2    S    
C19   H127  S    
C35   C39   S    
C31   H40   S    
C28   C40   S    
C72   H92   S    
C36   H36   S    
C30   C38   S    
C113  H85   S    
C75   H75   S    
C56   C72   S    
C45   O33   A    
C8    H132  S    
C18   C118  S    
C81   C86   S    
C83   C88   S    
C87   H106  S    
C48   O32   A    
C89   O1    A    
C41   C49   S    
C42   O54   S    
Cr8   O28   S    
Cr1   O45   S    
Cr2   O42   S    
Cr3   O47   S    
Cr4   O48   S    
C26   C38   S    
Cr10  O34   S    
C14   C114  S    
Cr11  O39   S    
C60   C76   S    
C24   H8    S    
Cr8   O52   S    
C55   H59   S    
C30   H37   S    
C88   H112  S    
C54   C70   S    
C48   O36   A    
C68   C72   S    
C23   H139  S    
C69   H61   S    
C13   C21   S    
C99   O47   A    
C79   H99   S    
C31   H25   S    
C64   C97   S    
C36   H29   S    
C15   C115  S    
C97   O49   A    
C20   C120  S    
C101  O5    A    
C54   H82   S    
C57   H65   S    
C59   C63   S    
C52   H52   S    
Cr4   O20   S    
C72   H64   S    
C57   C61   S    
C82   C85   S    
Cr6   O50   S    
C77   H97   S    
Cr11  O19   S    
C60   C64   S    
Cr9   O13   S    
C13   C45   S    
C102  O6    A    
C78   C94   S    
C91   O3    A    
C69   H89   S    
C109  H1    S    
C95   C108  S    
C60   H68   S    
C62   C99   S    
C107  O43   A    
C5    C21   S    
C58   H70   S    
C79   H95   S    
C110  H46   S    
C31   C36   S    
C47   O35   A    
C4    O28   A    
C97   O45   A    
Cr5   O17   S    
C90   O38   A    
C44   O56   S    
Cr1   O21   S    
C84   H102  S    
Cr2   O18   S    
C65   C101  S    
Cr10  O14   S    
Cr3   O23   S    
Cr11  O11   S    
C67   C103  S    
C66   C70   S    
C37   C90   S    
C24   H140  S    
C73   H77   S    
C55   H83   S    
C115  H119  S    
C111  H47   S    
C113  H117  S    
C25   H17   S    
C57   C73   S    
C53   C61   S    
C60   H72   S    
C83   H101  S    
C55   C63   S    
C6    H134  S    
C56   C64   S    
C7    H131  S    
Cr7   O51   S    
C116  H88   S    
C42   C62   S    
C112  H48   S    
Cr5   O29   S    
C76   H80   S    
C50   H50   S    
C1    C12   S    
Cr9   O33   S    
C80   H100  S    
C2    C11   S    
Cr3   O3    S    
C112  H4    S    
C6    H130  S    
C42   H42   S    
Cr9   O37   S    
C25   C26   S    
C105  O13   A    
C107  O15   A    
C5    C9    S    
C108  O16   A    
C109  H45   S    
C93   C106  S    
C71   H63   S    
C8    C12   S    
C90   O2    A    
C51   C67   S    
C7    H135  S    
C42   C50   S    
C49   H49   S    
Cr2   O46   S    
Cr3   O43   S    
C110  H2    S    
C61   C100  S    
C67   C75   S    
C17   H125  S    
C50   H54   S    
C112  C116  S    
C58   C74   S    
Cr10  O38   S    
C41   H41   S    
C53   H81   S    
C54   H58   S    
C81   H114  S    
C33   H33   S    
C44   H44   S    
C68   C76   S    
C1    O21   A    
C98   O46   A    
C85   H108  S    
C14   C22   S    
C3    O23   A    
C7    C23   S    
C8    C24   S    
C40   C91   S    
C101  O9    A    
C56   H84   S    
Cr7   O27   S    
C99   O51   A    
Cr8   O20   S    
C49   H53   S    
C57   H69   S    
C52   H56   S    
Cr7   O7    S    
C4    C9    S    
Cr4   O24   S    
C53   H57   S    
Cr8   O8    S    
C86   H110  S    
C58   C62   S    
C5    H129  S    
C88   C96   S    
C94   C105  S    
C77   H93   S    
C82   H104  S    
C12   C112  S    
C21   H137  S    
C14   C46   S    
C77   C78   S    
C15   C19   S    
C75   H79   S    
C1    O25   A    
C92   O40   A    
C6    C22   S    
C2    O22   A    
C73   H73   S    
Cr6   O18   S    
Cr2   O22   S    
C103  O7    A    
Cr3   O19   S    
C46   O34   A    
C82   H113  S    
C17   C117  S    
C19   C119  S    
C27   H23   S    
C81   H103  S    
Cr12  O36   S    
C16   C116  S    
C76   H76   S    
C9    C109  S    
C25   H21   S    
C26   H18   S    
C105  O41   A    
C54   C62   S    
C18   H14   S    
C11   C111  S    
C29   C34   S    
C108  O44   A    
C33   C37   S    
C41   C61   S    
C43   O55   S    
C30   H28   S    
O56   H144  S    
C79   C95   S    
Cr5   O25   S    
Cr6   O30   S    
C70   H62   S    
C85   H109  S    
C86   H107  S    
C80   H96   S    
Cr12  O12   S    
C32   H39   S    
C100  O52   A    
C39   C92   S    
C27   H19   S    
C106  O14   A    
C14   C18   S    
C68   C104  S    
C119  H123  S    
C17   H13   S    
C6    C10   S    
C13   C17   S    
C78   H98   S    
C22   H6    S    
Cr5   O49   S    
C19   H15   S    
O54   H142  S    
C104  O12   A    
C43   C51   S    
Cr5   O5    S    
C65   C69   S    
C77   C93   S    
C70   H90   S    
C10   C110  S    
C67   C71   S    
O53   H141  S    
C111  H3    S    
Cr1   O1    S    
C18   H126  S    
C51   H55   S    
C3    O27   A    
C59   H71   S    
C29   C37   S    
C34   H34   S    
C66   C74   S    
C43   H43   S    
C9    C117  S    
O55   H143  S    
C102  O10   A    
C117  H9    S    
C84   C87   S    
C15   C47   S    
C8    H136  S    
C11   C119  S    
C16   C48   S    
C29   H27   S    
C7    C11   S    
C38   C89   S    
C49   C65   S    
C74   H78   S    
C23   H7    S    
Cr7   O31   S    
Cr8   O32   S    
Cr1   O41   S    
C114  H118  S    
C65   C73   S    
C41   O53   S    
C84   C96   S    
Cr4   O44   S    
C118  H122  S    
C25   C37   S    
C12   C120  S    
C27   C39   S    
C83   H116  S    
C35   H35   S    
Cr12  O20   S    
C55   C71   S    
C29   H38   S    
C80   C96   S    
C86   C94   S    
C52   C68   S    
C109  C113  S    
C22   H138  S    
C15   C23   S    
Cr9   O17   S    
C16   C24   S    
C115  H87   S    
C85   C93   S    
C2    O26   A    
C103  O11   A    
C32   H26   S    
C35   H30   S    
C71   H91   S    
C117  H121  S    
C120  H124  S    
C32   C35   S    
C36   C40   S    
C33   H32   S    
C34   H31   S    
C59   H67   S    
C66   C102  S    
Cr7   O19   S    
C116  H120  S    
C87   C95   S    
C46   O30   A    
C10   C118  S    
C81   C93   S    
C87   H111  S    
C83   C95   S    
Cr10  O18   S    
C20   H16   S    
Cr12  O40   S    
Cr9   O9    S    
C50   C66   S    
C100  O48   A    
C20   H128  S    
C28   H20   S    
C45   O29   A    
C26   H22   S    
C92   O4    A    
C59   C75   S    
C106  O42   A    
C74   H74   S    
C110  C114  S    
C58   H66   S    
C30   C33   S    
C34   C38   S    
C96   C107  S    
C47   O31   A    
C4    O24   A    
C118  H10   S    
C89   O37   A    
Cr6   O26   S    
C91   O39   A    
Cr1   O17   S    
Cr10  O10   S    
C3    C10   S    
Cr11  O15   S    
Cr4   O4    S    
C44   C52   S    
Cr12  O16   S    
C88   H105  S    
C31   C39   S    
C32   C40   S    
C79   C80   S    
C98   O50   A    
C27   C28   S    
C28   H24   S    
C111  C115  S    
C13   C113  S    
