data_mof_unit_29887.cif
_audit_creation_date              2012-10-26T21:33:05-0400
_audit_creation_method            fapswitch 2.2
_symmetry_space_group_name_H-M    P1
_symmetry_Int_Tables_number       1
_space_group_crystal_system       triclinic
_cell_length_a                    28.257491
_cell_length_b                    18.465293
_cell_length_c                    17.0671
_cell_angle_alpha                 90.182836
_cell_angle_beta                  60.708346
_cell_angle_gamma                 90.065003
_cell_volume                      7766.65028165

loop_
_atom_site_label
_atom_site_type_symbol
_atom_type_description
_atom_site_fract_x
_atom_site_fract_y
_atom_site_fract_z
_atom_type_partial_charge
C1    C     C_R   0.703457 0.272723 0.674645 0.902778
C2    C     C_R   0.941323 0.621460 0.529297 -0.321055
C3    C     C_R   0.074090 0.900433 0.933900 0.907585
C4    C     C_R   0.574207 0.599436 0.933850 0.918556
C5    C     C_R   0.425835 0.400478 0.066048 0.901244
C6    C     C_R   0.425894 0.599571 0.066138 0.915245
C7    C     C_R   0.571665 0.397560 0.936129 0.900576
C8    C     C_R   0.546625 0.994855 0.509032 0.026004
C9    C     C_R   0.455012 0.994966 0.486234 0.024553
C10   C     C_R   0.046108 0.494881 0.510463 0.027016
C11   C     C_R   0.954487 0.494959 0.487700 0.023465
C12   C     C_R   0.526606 0.060204 0.494664 0.070814
C13   C     C_R   0.966757 0.367354 0.452411 -0.295316
C14   C     C_R   0.480410 0.928998 0.484689 0.068474
C15   C     C_R   0.475523 0.060357 0.499798 0.066137
C16   C     C_R   0.520859 0.929020 0.511061 0.068058
C17   C     C_R   0.025948 0.560259 0.496425 0.067365
C18   C     C_R   0.980008 0.429020 0.485873 0.069418
C19   C     C_R   0.974862 0.560351 0.501555 0.066971
C20   C     C_R   0.020455 0.429018 0.512241 0.072767
C21   C     C_R   0.607366 0.933227 0.551052 0.066198
C22   C     C_R   0.376382 0.059136 0.497984 0.063075
C23   C     C_R   0.393308 0.933044 0.446268 0.066671
C24   C     C_R   0.059666 0.621138 0.468653 -0.316460
C25   C     C_R   0.625140 0.058775 0.498284 0.067398
C26   C     C_R   0.107161 0.433159 0.551749 0.067216
C27   C     C_R   0.875853 0.559046 0.499320 0.067766
C28   C     C_R   0.893087 0.433110 0.447022 0.064416
C29   C     C_R   0.124686 0.558807 0.499394 0.066423
C30   C     C_R   0.657664 0.934618 0.552308 -0.073114
C31   C     C_R   0.333026 0.061389 0.477429 -0.093230
C32   C     C_R   0.342625 0.934382 0.446375 -0.072658
C33   C     C_R   0.667741 0.061311 0.520532 -0.096547
C34   C     C_R   0.157576 0.434569 0.552639 -0.072286
C35   C     C_R   0.533753 0.867555 0.544977 -0.314247
C36   C     C_R   0.832705 0.561354 0.478296 -0.094883
C37   C     C_R   0.842514 0.434432 0.446778 -0.068930
C38   C     C_R   0.167521 0.561312 0.521095 -0.094552
C39   C     C_R   0.683019 0.999440 0.547276 -0.312281
C40   C     C_R   0.317281 0.999243 0.451594 -0.315705
C41   C     C_R   0.182934 0.499411 0.547558 -0.316176
C42   C     C_R   0.817125 0.499263 0.452086 -0.314178
C43   C     C_R   0.592745 0.995773 0.520557 0.017828
C44   C     C_R   0.408583 0.995909 0.475548 0.015849
C45   C     C_R   0.092336 0.495779 0.521697 0.016502
C46   C     C_R   0.442055 0.121509 0.527537 -0.299935
C47   C     C_R   0.908141 0.495887 0.476796 0.015428
C48   C     C_R   0.071985 0.371686 0.575406 0.004076
C49   C     C_R   0.888694 0.616428 0.541867 0.005132
C50   C     C_R   0.928163 0.371507 0.423106 0.004992
C51   C     C_R   0.112181 0.615951 0.456492 0.005178
C52   C     C_R   0.572118 0.871830 0.574805 0.007297
C53   C     C_R   0.389386 0.116528 0.540325 0.003887
C54   C     C_R   0.428283 0.871346 0.422521 0.006887
C55   C     C_R   0.612805 0.115909 0.455117 -0.005752
C56   C     C_2   0.068260 0.315961 0.640768 0.459650
C57   C     C_R   0.466968 0.867245 0.451642 -0.317359
C58   C     C_2   0.846616 0.659804 0.616643 0.468066
C59   C     C_2   0.931538 0.315472 0.357928 0.475737
C60   C     C_2   0.154518 0.658938 0.381954 0.476649
C61   C     C_2   0.568230 0.816248 0.640428 0.467112
C62   C     C_2   0.347411 0.159908 0.615165 0.497031
C63   C     C_2   0.431453 0.815115 0.357692 0.462596
C64   C     C_2   0.655180 0.159415 0.381203 0.482782
C65   C     C_2   0.690507 0.397905 0.049776 0.435670
C66   C     C_2   0.254891 0.600153 0.044757 0.396234
C67   C     C_2   0.200362 0.351391 0.151304 0.422024
C68   C     C_R   0.560377 0.121034 0.466862 -0.313715
C69   C     C_2   0.745235 0.599426 0.954929 0.391274
C70   C     C_2   0.244947 0.900792 0.956051 0.388479
C71   C     C_2   0.865033 0.209330 0.881627 0.357283
C72   C     C_2   0.755721 0.900477 0.043486 0.392516
C73   C     C_2   0.296502 0.147926 0.854298 0.418352
C74   C     C_R   0.729588 0.288822 0.945768 -0.034246
C75   C     C_R   0.277736 0.732309 0.048304 -0.044902
C76   C     C_R   0.277227 0.268484 0.048694 -0.046583
C77   C     C_R   0.298366 0.731757 0.324098 0.965986
C78   C     C_R   0.722697 0.731645 0.951267 -0.045740
C79   C     C_R   0.222499 0.768545 0.951815 -0.046210
C80   C     C_R   0.791532 0.256235 0.033912 -0.023851
C81   C     C_R   0.777646 0.768180 0.048124 -0.047447
C82   C     C_R   0.221089 0.233750 0.953353 -0.048846
C83   C     C_R   0.773324 0.239741 0.908960 -0.125037
C84   C     C_R   0.272906 0.804709 0.028223 -0.141639
C85   C     C_R   0.300120 0.221254 0.974619 -0.123357
C86   C     C_R   0.727650 0.804120 0.971293 -0.142361
C87   C     C_R   0.227278 0.696150 0.971988 -0.140498
C88   C     C_R   0.297955 0.269107 0.324259 0.900566
C89   C     C_R   0.749260 0.308021 0.069116 -0.134803
C90   C     C_R   0.772787 0.695713 0.027953 -0.137004
C91   C     C_R   0.198148 0.280980 0.027493 -0.120860
C92   C     C_R   0.808344 0.231672 0.944838 0.017679
C93   C     C_R   0.246057 0.823659 0.979837 0.001153
C94   C     C_R   0.272466 0.202576 0.927448 -0.010178
C95   C     C_R   0.754389 0.823230 0.019846 -0.001612
C96   C     C_R   0.254051 0.677218 0.020500 0.000036
C97   C     C_R   0.721895 0.329216 0.022366 -0.007722
C98   C     C_R   0.746148 0.676606 0.979220 0.009638
C99   C     C_R   0.701719 0.731586 0.675926 0.964123
C100  C     C_R   0.225515 0.299035 0.075439 -0.002521
C101  C     C_R   0.641790 0.325013 0.947203 -0.207510
C102  C     C_R   0.355714 0.672167 0.054525 -0.209102
C103  C     C_R   0.355316 0.328033 0.054565 -0.183108
C104  C     C_R   0.644687 0.671702 0.945102 -0.210611
C105  C     C_R   0.144400 0.828204 0.945532 -0.207771
C106  C     C_R   0.853892 0.170905 0.059751 -0.205516
C107  C     C_R   0.855651 0.827883 0.054482 -0.208305
C108  C     C_R   0.143487 0.173736 0.946543 -0.186128
C109  C     C_R   0.614165 0.344203 0.900247 -0.068574
C110  C     C_R   0.201874 0.768747 0.675802 0.901127
C111  C     C_R   0.383332 0.652735 0.101621 -0.070769
C112  C     C_R   0.382983 0.347712 0.101655 -0.068142
C113  C     C_R   0.616944 0.652308 0.898174 -0.072995
C114  C     C_R   0.116797 0.847529 0.898373 -0.064689
C115  C     C_R   0.882216 0.151262 0.104938 -0.082071
C116  C     C_R   0.883163 0.847593 0.101677 -0.064092
C117  C     C_R   0.116386 0.153187 0.898848 -0.076424
C118  C     C_R   0.632532 0.321610 0.813661 -0.246753
C119  C     C_R   0.367095 0.678799 0.186317 -0.229015
C120  C     C_R   0.366455 0.322393 0.186652 -0.254526
C121  C     C_R   0.799778 0.234658 0.323709 0.962362
C122  C     C_R   0.633193 0.678159 0.813474 -0.228956
C123  C     C_R   0.133220 0.821724 0.813543 -0.256622
C124  C     C_R   0.868843 0.180536 0.186987 -0.215702
C125  C     C_R   0.866629 0.822187 0.186635 -0.253563
C126  C     C_R   0.133110 0.178267 0.813649 -0.230216
C127  C     C_R   0.682794 0.290431 0.767944 -0.053472
C128  C     C_R   0.320658 0.719307 0.228866 -0.021106
C129  C     C_R   0.319757 0.282446 0.229435 -0.051687
C130  C     C_R   0.679606 0.718749 0.771012 -0.023015
C131  C     C_R   0.179799 0.781542 0.770910 -0.054318
C132  C     C_R   0.798083 0.768833 0.324161 0.900681
C133  C     C_R   0.824997 0.225884 0.227141 -0.022407
C134  C     C_R   0.820131 0.781776 0.229114 -0.055467
C135  C     C_R   0.179708 0.218473 0.771052 -0.020827
C136  C     C_R   0.715479 0.282205 0.808953 -0.174795
C137  C     C_R   0.292147 0.740066 0.183176 -0.135466
C138  C     C_R   0.290871 0.262292 0.184166 -0.199057
C139  C     C_R   0.708225 0.739363 0.816637 -0.133307
C140  C     C_R   0.208438 0.761092 0.816514 -0.180741
C141  C     C_R   0.801327 0.254649 0.177277 -0.138713
C142  C     C_R   0.791575 0.761109 0.183390 -0.180503
C143  C     C_R   0.201838 0.231298 0.675903 0.967798
C144  C     C_R   0.208184 0.239241 0.816881 -0.155457
C145  C     C_R   0.695185 0.298482 0.900637 0.079911
C146  C     C_R   0.309346 0.715730 0.095436 0.052837
C147  C     C_R   0.308619 0.285303 0.095970 0.052350
C148  C     C_R   0.691117 0.715000 0.904150 0.052906
C149  C     C_R   0.190997 0.785093 0.904482 0.056232
C150  C     C_R   0.817061 0.229172 0.089407 0.090606
C151  C     C_R   0.809064 0.784885 0.095507 0.054987
C152  C     C_R   0.189978 0.216846 0.905535 0.040457
C153  C     C_R   0.695742 0.127588 0.519872 0.962026
C154  C     C_R   0.033522 0.367467 0.545778 -0.309680
C155  C     C_R   0.308924 0.870162 0.464035 0.951081
C156  C     C_R   0.304546 0.127571 0.479292 0.957095
C157  C     C_R   0.691129 0.870304 0.535708 0.950424
C158  C     C_R   0.195674 0.627581 0.520050 0.953937
C159  C     C_R   0.808901 0.370183 0.464128 0.937194
C160  C     C_R   0.804379 0.627561 0.479796 0.954443
C161  C     C_R   0.191110 0.370283 0.535786 0.951798
C162  C     C_R   0.073955 0.099784 0.934130 0.917261
C163  C     C_R   0.925893 0.900449 0.066042 0.903843
C164  C     C_R   0.924008 0.097042 0.068429 0.916735
H1    H     H_    0.717958 0.000517 0.557616 0.197118
H2    H     H_    0.453533 0.168323 0.553004 0.149334
H3    H     H_    0.490872 0.818356 0.438771 0.140617
H4    H     H_    0.549262 0.167735 0.440982 0.144452
H5    H     H_    0.783021 0.210241 0.848279 0.178425
H6    H     H_    0.291547 0.846533 0.048766 0.190508
H7    H     H_    0.339444 0.197536 0.955035 0.190238
H8    H     H_    0.709174 0.845877 0.950597 0.190309
H9    H     H_    0.208622 0.654327 0.951474 0.190380
H10   H     H_    0.739299 0.336504 0.130378 0.172958
H11   H     H_    0.791273 0.653980 0.048659 0.191168
H12   H     H_    0.281922 0.000176 0.442406 0.196344
H13   H     H_    0.158743 0.304461 0.047197 0.192533
H14   H     H_    0.622513 0.335139 0.018616 0.147037
H15   H     H_    0.368912 0.651408 0.987504 0.156807
H16   H     H_    0.368523 0.348361 0.987505 0.161457
H17   H     H_    0.631521 0.651133 0.012048 0.160681
H18   H     H_    0.131015 0.848728 0.012715 0.155524
H19   H     H_    0.859925 0.138101 0.003449 0.162527
H20   H     H_    0.869078 0.848064 0.987287 0.157902
H21   H     H_    0.130086 0.153635 0.013762 0.163196
H22   H     H_    0.609344 0.333015 0.779863 0.175706
H23   H     H_    0.218000 0.500482 0.557554 0.196490
H24   H     H_    0.388515 0.663008 0.221768 0.179505
H25   H     H_    0.388007 0.338102 0.222005 0.177881
H26   H     H_    0.611708 0.662346 0.778046 0.179227
H27   H     H_    0.111758 0.837394 0.778121 0.177264
H28   H     H_    0.889079 0.162216 0.223391 0.179186
H29   H     H_    0.887999 0.838179 0.222187 0.177348
H30   H     H_    0.111881 0.162023 0.777949 0.180530
H31   H     H_    0.757068 0.265297 0.767710 0.151190
H32   H     H_    0.255197 0.771693 0.216984 0.153621
H33   H     H_    0.253741 0.231104 0.218020 0.159788
H34   H     H_    0.781883 0.500206 0.442572 0.197314
H35   H     H_    0.745155 0.770977 0.782968 0.155369
H36   H     H_    0.245504 0.729710 0.782644 0.160272
H37   H     H_    0.768825 0.293093 0.210454 0.137633
H38   H     H_    0.754555 0.729686 0.217084 0.162622
H39   H     H_    0.245336 0.270393 0.783118 0.155626
H40   H     H_    0.048539 0.264550 0.644731 0.048276
H41   H     H_    0.857136 0.710975 0.635674 0.034766
H42   H     H_    0.951141 0.263988 0.353861 0.036548
H43   H     H_    0.144204 0.709993 0.362664 0.031684
H44   H     H_    0.548511 0.764830 0.644432 0.033360
H45   H     H_    0.009420 0.318750 0.558748 0.146286
H46   H     H_    0.358226 0.210019 0.635943 0.036408
H47   H     H_    0.450992 0.763609 0.353785 0.035910
H48   H     H_    0.644717 0.210402 0.361999 0.042352
H49   H     H_    0.683875 0.428404 0.001780 0.085006
H50   H     H_    0.269488 0.585201 0.090577 0.096432
H51   H     H_    0.222259 0.369994 0.184906 0.080054
H52   H     H_    0.730076 0.584102 0.909888 0.089447
H53   H     H_    0.230077 0.915857 0.910636 0.082751
H54   H     H_    0.897771 0.225967 0.893690 0.081204
H55   H     H_    0.770220 0.915708 0.089447 0.086306
H56   H     H_    0.952714 0.668281 0.554882 0.144131
H57   H     H_    0.272524 0.124689 0.826772 0.125770
H58   H     H_    0.990764 0.318540 0.439336 0.145270
H59   H     H_    0.048483 0.667842 0.442876 0.144439
H60   H     H_    0.509579 0.818894 0.558091 0.140520
O1    O     O_R   0.746490 0.236330 0.638080 -0.632794
O2    O     O_R   0.325830 0.813840 0.483730 -0.634914
O3    O     O_R   0.325830 0.186160 0.483730 -0.641190
O4    O     O_R   0.674170 0.813840 0.516270 -0.635669
O5    O     O_R   0.174170 0.686160 0.516270 -0.642275
O6    O     O_R   0.825830 0.313840 0.483730 -0.639036
O7    O     O_R   0.825830 0.686160 0.483730 -0.640986
O8    O     O_R   0.174170 0.313840 0.516270 -0.634093
O9    O     O_R   0.739960 0.127620 0.525000 -0.630240
O10   O     O_R   0.260040 0.872380 0.475000 -0.636943
O11   O     O_R   0.260040 0.127620 0.475000 -0.634583
O12   O     O_R   0.253510 0.763670 0.361920 -0.640811
O13   O     O_R   0.739960 0.872380 0.525000 -0.635945
O14   O     O_R   0.239960 0.627620 0.525000 -0.634612
O15   O     O_R   0.760040 0.372380 0.475000 -0.639638
O16   O     O_R   0.760040 0.627620 0.475000 -0.634058
O17   O     O_R   0.239960 0.372380 0.525000 -0.637214
O18   O     O_R   0.680700 0.294870 0.629350 -0.629135
O19   O     O_R   0.319300 0.705130 0.370650 -0.626097
O20   O     O_R   0.319300 0.294870 0.370650 -0.628243
O21   O     O_R   0.680700 0.705130 0.629350 -0.626824
O22   O     O_R   0.180700 0.794870 0.629350 -0.627386
O23   O     O_R   0.253510 0.236330 0.361920 -0.637321
O24   O     O_R   0.819300 0.205130 0.370650 -0.627823
O25   O     O_R   0.819300 0.794870 0.370650 -0.628035
O26   O     O_R   0.180700 0.205130 0.629350 -0.626086
O27   O     O_R   0.062020 0.072840 0.007170 -0.625401
O28   O     O_R   0.937980 0.927160 0.992830 -0.625624
O29   O     O_R   0.937980 0.072840 0.992830 -0.619119
O30   O     O_R   0.062020 0.927160 0.007170 -0.627813
O31   O     O_R   0.562020 0.572840 0.007170 -0.622314
O32   O     O_R   0.437980 0.427160 0.992830 -0.628151
O33   O     O_R   0.437980 0.572840 0.992830 -0.626803
O34   O     O_R   0.746490 0.763670 0.638080 -0.638614
O35   O     O_R   0.562020 0.427160 0.007170 -0.622462
O36   O     O_R   0.947860 0.073950 0.109290 -0.624636
O37   O     O_R   0.052140 0.926050 0.890710 -0.622855
O38   O     O_R   0.052140 0.073950 0.890710 -0.618795
O39   O     O_R   0.947860 0.926050 0.109290 -0.625410
O40   O     O_R   0.447860 0.573950 0.109290 -0.621625
O41   O     O_R   0.552140 0.426050 0.890710 -0.620337
O42   O     O_R   0.552140 0.573950 0.890710 -0.621170
O43   O     O_R   0.447860 0.426050 0.109290 -0.623599
O44   O     O_2   0.084953 0.327987 0.693394 -0.589567
O45   O     O_R   0.246490 0.736330 0.638080 -0.637491
O46   O     O_2   0.800437 0.636731 0.660729 -0.601758
O47   O     O_2   0.914670 0.327306 0.305575 -0.592500
O48   O     O_2   0.200696 0.635654 0.338336 -0.600216
O49   O     O_2   0.584802 0.828397 0.693189 -0.587677
O50   O     O_2   0.300796 0.138000 0.657212 -0.619347
O51   O     O_2   0.414482 0.826798 0.305446 -0.590206
O52   O     O_2   0.701570 0.136726 0.338014 -0.584852
O53   O     O_2   0.672712 0.422216 0.125673 -0.565995
O54   O     O_2   0.238748 0.552102 0.014383 -0.559296
O55   O     O_2   0.154684 0.374891 0.177183 -0.552861
O56   O     O_R   0.753510 0.263670 0.361920 -0.634432
O57   O     O_2   0.762045 0.551681 0.984318 -0.565085
O58   O     O_2   0.261138 0.948791 0.986415 -0.558847
O59   O     O_2   0.876081 0.173613 0.814455 -0.572271
O60   O     O_2   0.740156 0.948390 0.012330 -0.554497
O61   O     O_2   0.343291 0.127444 0.824484 -0.561669
O62   O     O_R   0.753510 0.736330 0.361920 -0.636248
O63   O     O_R   0.246490 0.263670 0.638080 -0.637775
O64   O     O_R   0.674170 0.186160 0.516270 -0.639576
Zn1   Zn    Zn3+2 0.792340 0.208750 0.507670 0.973161
Zn2   Zn    Zn3+2 0.494040 0.500000 0.919480 0.951897
Zn3   Zn    Zn3+2 0.005960 0.000000 0.080520 0.951120
Zn4   Zn    Zn3+2 0.994040 1.000000 0.919480 0.972845
Zn5   Zn    Zn3+2 0.207660 0.791250 0.492330 0.954996
Zn6   Zn    Zn3+2 0.207660 0.208750 0.492330 0.966515
Zn7   Zn    Zn3+2 0.792340 0.791250 0.507670 0.958753
Zn8   Zn    Zn3+2 0.292340 0.708750 0.507670 0.961769
Zn9   Zn    Zn3+2 0.707660 0.291250 0.492330 0.962110
Zn10  Zn    Zn3+2 0.707660 0.708750 0.492330 0.965613
Zn11  Zn    Zn3+2 0.292340 0.291250 0.507670 0.956861
Zn12  Zn    Zn3+2 0.505960 0.500000 0.080520 0.967194

loop_
_geom_bond_atom_site_label_1
_geom_bond_atom_site_label_2
_ccdc_geom_bond_type
C28   C47   A    
C82   C94   A    
O18   Zn9   S    
O27   Zn3   S    
C36   C42   A    
C164  O29   A    
C13   H58   S    
C34   C161  S    
C79   C87   A    
C118  H22   S    
C155  O2    A    
C13   C18   A    
C50   C59   S    
C5    O32   A    
C52   C61   S    
C16   C35   A    
C81   C95   A    
C54   C63   S    
C156  O11   A    
C41   H23   S    
C37   C42   A    
C119  H24   S    
C131  C140  A    
O13   Zn7   S    
C7    O35   A    
C113  C122  A    
C10   C20   A    
C3    O37   A    
C132  O25   A    
C72   O60   D    
C91   C100  A    
C22   C53   A    
C117  C126  A    
C74   C83   A    
C161  O17   A    
C78   C148  S    
C79   C149  S    
C69   C98   S    
C24   C51   A    
C104  H17   S    
C8    C16   A    
C2    H56   S    
C102  C111  A    
C89   H10   S    
C109  C118  A    
C137  C146  A    
C42   H34   S    
C70   C93   S    
C127  C136  A    
C136  H31   S    
C112  C120  A    
C58   H41   S    
C70   O58   D    
O2    Zn8   S    
C82   C91   A    
C29   C45   A    
C103  C112  A    
C142  C151  A    
C39   H1    S    
C65   H49   S    
C125  H29   S    
C110  C131  S    
C67   C100  S    
C158  O14   A    
C81   C90   A    
C124  C133  A    
C59   H42   S    
C63   O51   D    
C5    O43   A    
C14   C57   A    
C2    C19   A    
O39   Zn3   S    
C25   C55   A    
C60   H43   S    
C76   C100  A    
C58   O46   D    
C73   H57   S    
C106  C115  A    
C140  H36   S    
C120  H25   S    
C83   H5    S    
C46   C53   A    
C84   C93   A    
C9    C15   A    
C106  H19   S    
C3    O30   A    
C86   C95   A    
C61   H44   S    
C132  C134  S    
C64   H48   S    
C6    O40   A    
C101  C109  A    
C76   C85   A    
O15   Zn9   S    
C11   C18   A    
C106  C150  A    
C6    C111  S    
C74   C145  S    
C25   C43   A    
C31   C156  S    
C103  C147  A    
C12   C68   A    
C101  C145  A    
C85   H7    S    
C71   H54   S    
C6    O33   A    
C86   H8    S    
C163  O28   A    
C84   H6    S    
C33   C153  S    
C75   C84   A    
C32   C155  S    
O37   Zn4   S    
C4    C113  S    
C111  C119  A    
C103  H16   S    
C62   O50   D    
C101  H14   S    
C157  O4    A    
O21   Zn10  S    
C121  O24   A    
C71   C92   S    
C29   C38   A    
C107  C151  A    
C135  C143  S    
C55   C64   S    
C69   H52   S    
O14   Zn8   S    
C88   C129  S    
C158  O5    A    
C141  C150  A    
C75   C146  S    
C139  C148  A    
O4    Zn10  S    
C120  C129  A    
C38   C41   A    
C40   H12   S    
O19   Zn8   S    
C81   C151  S    
C162  O27   A    
C8    C12   A    
C10   C45   A    
C62   H46   S    
O42   Zn2   S    
C114  C123  A    
C68   H4    S    
O1    Zn1   S    
C116  C125  A    
C105  H18   S    
O9    Zn1   S    
C118  C127  A    
C67   O55   D    
C29   C51   A    
C24   H59   S    
C27   C47   A    
C48   C154  A    
C61   O49   D    
C77   O19   A    
C108  C117  A    
O40   Zn12  S    
C63   H47   S    
C3    C114  S    
C5    C112  S    
C117  C162  S    
C107  H20   S    
C71   O59   D    
C37   C159  S    
C144  C152  A    
C35   H60   S    
C119  C128  A    
C28   C37   A    
C30   C39   A    
C56   O44   D    
C107  C116  A    
C1    O18   A    
C13   C50   A    
C138  H33   S    
C51   C60   S    
C15   C46   A    
O31   Zn12  S    
C140  C149  A    
C27   C49   A    
C25   C33   A    
C54   C57   A    
C125  C134  A    
C30   C157  S    
C143  O63   A    
C104  C148  A    
C116  C163  S    
C11   C47   A    
C8    C43   A    
C55   C68   A    
O23   Zn6   S    
C11   C19   A    
O63   Zn11  S    
O24   Zn1   S    
C142  H38   S    
C162  O38   A    
C4    O42   A    
C31   C40   A    
C80   C89   A    
C7    O41   A    
C108  C152  A    
O16   Zn10  S    
O64   Zn9   S    
C99   O21   A    
C26   C48   A    
C137  H32   S    
O56   Zn9   S    
C34   C41   A    
C73   C94   S    
C87   H9    S    
C130  C139  A    
C75   C96   A    
C122  H26   S    
O25   Zn7   S    
C70   H53   S    
O10   Zn5   S    
C108  H21   S    
C38   C158  S    
C155  O10   A    
C90   H11   S    
C77   O12   A    
C23   C44   A    
O28   Zn4   S    
C66   H50   S    
O12   Zn5   S    
C134  C142  A    
C144  H39   S    
C126  H30   S    
C12   C15   A    
C153  O9    A    
C156  O3    A    
C157  O13   A    
C126  C135  A    
C65   O53   D    
O41   Zn2   S    
O29   Zn4   S    
O3    Zn11  S    
C123  H27   S    
O30   Zn3   S    
C124  H28   S    
C66   C96   S    
C1    O1    A    
C22   C44   A    
C115  C124  A    
C46   H2    S    
C99   C130  S    
C123  C131  A    
C88   O20   A    
C57   H3    S    
C27   C36   A    
C21   C30   A    
O22   Zn5   S    
C133  C141  A    
C99   O34   A    
C23   C32   A    
O11   Zn6   S    
C104  C113  A    
O38   Zn4   S    
O8    Zn6   S    
C73   O61   D    
C35   C52   A    
C159  O15   A    
C82   C152  S    
C80   C92   A    
O26   Zn6   S    
C143  O26   A    
C67   H51   S    
C121  O56   A    
C9    C14   A    
O32   Zn2   S    
O17   Zn11  S    
C64   O52   D    
C80   C150  S    
C83   C92   A    
C33   C39   A    
C20   C154  A    
C141  H37   S    
C79   C93   A    
C154  H45   S    
C139  H35   S    
C10   C17   A    
C115  C164  S    
O45   Zn8   S    
C21   C43   A    
C72   C95   S    
C28   C50   A    
C26   C34   A    
C69   O57   D    
C129  C138  A    
C76   C147  S    
C78   C98   A    
C136  C145  A    
C26   C45   A    
C78   C86   A    
O36   Zn3   S    
C102  H15   S    
O6    Zn1   S    
O34   Zn7   S    
O33   Zn2   S    
C74   C97   A    
C132  O62   A    
O35   Zn12  S    
C17   C24   A    
C22   C31   A    
C159  O6    A    
C105  C114  A    
C49   C58   S    
C7    C109  S    
C89   C97   A    
C128  C137  A    
O7    Zn7   S    
C2    C49   A    
C161  O8    A    
C85   C94   A    
C138  C147  A    
C87   C96   A    
C153  O64   A    
C160  O7    A    
C59   O47   D    
O43   Zn12  S    
C60   O48   D    
O5    Zn5   S    
C77   C128  S    
C135  C144  A    
C164  O36   A    
C14   C16   A    
C23   C54   A    
C48   C56   S    
C72   H55   S    
C9    C44   A    
C160  O16   A    
C1    C127  S    
C110  O45   A    
C56   H40   S    
C105  C149  A    
C65   C97   S    
C102  C146  A    
C88   O23   A    
C110  O22   A    
C91   H13   S    
C17   C19   A    
C90   C98   A    
C66   O54   D    
C18   C20   A    
C32   C40   A    
C36   C160  S    
C53   C62   S    
C163  O39   A    
O62   Zn10  S    
C4    O31   A    
C121  C133  S    
C122  C130  A    
C21   C52   A    
O20   Zn11  S    
