data_mof_unit_56907.cif
_audit_creation_date              2013-03-05T16:06:56-0500
_audit_creation_method            fapswitch 2.2
_symmetry_space_group_name_H-M    P1
_symmetry_Int_Tables_number       1
_space_group_crystal_system       triclinic
_cell_length_a                    14.511591
_cell_length_b                    16.185337
_cell_length_c                    6.970878
_cell_angle_alpha                 90.021964
_cell_angle_beta                  98.647345
_cell_angle_gamma                 89.953319
_cell_volume                      1618.67244081

loop_
_atom_site_label
_atom_site_type_symbol
_atom_site_description
_atom_site_fract_x
_atom_site_fract_y
_atom_site_fract_z
_atom_type_partial_charge
O1    O     O_R   0.584990 0.413650 0.534420 -0.598969
O2    O     O_R   0.584990 0.586350 0.534420 -0.593698
O3    O     O_R   0.596190 0.585230 0.208380 -0.604157
O4    O     O_R   0.596190 0.414770 0.208380 -0.597989
O5    O     O_R   0.415010 0.586420 0.976930 -0.598685
O6    O     O_R   0.415010 0.413580 0.976930 -0.600742
C1    C     C_R   0.618840 0.614152 0.384168 0.938500
C2    C     C_R   0.618632 0.385694 0.383832 0.937198
O7    O     O_3   0.440560 0.500000 0.319140 -0.254186
V1    V     V_3+5 0.511030 0.500000 0.068070 1.171426
O8    O     O_R   0.403810 0.414840 0.643540 -0.581730
O9    O     O_R   0.403810 0.585160 0.643540 -0.574121
C3    C     C_R   0.382673 0.385514 0.806394 1.014492
C4    C     C_R   0.381755 0.613768 0.806228 1.021295
V2    V     V_3+5 0.488970 0.500000 0.560620 1.202213
O10   O     O_3   0.559440 0.500000 0.859420 -0.292396
H1    H     H_    0.193508 0.809538 0.809717 0.199236
H2    H     H_    0.214553 0.175776 0.826560 0.192022
H3    H     H_    0.327842 0.698555 0.100044 0.183153
H4    H     H_    0.321845 0.307936 0.102115 0.178563
C5    C     C_2   0.311830 0.680533 0.798079 -0.436390
C6    C     C_2   0.316290 0.315924 0.799126 -0.452748
C7    C     C_2   0.291087 0.717312 0.959554 -0.003660
C8    C     C_2   0.291571 0.283181 0.962116 0.012232
C9    C     C_2   0.192161 0.816079 0.112804 0.074973
C10   C     C_2   0.184614 0.189899 0.112861 0.056571
C11   C     C_2   0.220641 0.784303 0.951376 -0.207743
C12   C     C_2   0.226121 0.212497 0.958345 -0.226493
H5    H     H_    0.276235 0.699376 0.658497 0.253747
H6    H     H_    0.288433 0.291072 0.658847 0.233184
C13   C     C_R   0.692045 0.734708 0.580283 0.140813
C14   C     C_R   0.753550 0.312603 0.586141 0.158914
C15   C     C_R   0.685545 0.684793 0.414417 -0.198143
C16   C     C_R   0.690279 0.319000 0.413997 -0.212729
C17   C     C_R   0.745407 0.704040 0.279418 -0.142869
C18   C     C_R   0.699331 0.260399 0.267924 -0.142421
H7    H     H_    0.746133 0.665029 0.154322 0.159837
H8    H     H_    0.652983 0.262899 0.131337 0.121022
C19   C     C_R   0.809774 0.769976 0.312252 -0.109560
C20   C     C_R   0.763683 0.194267 0.301908 -0.114841
H9    H     H_    0.857474 0.781047 0.211236 0.162207
H10   H     H_    0.765294 0.148314 0.189775 0.123218
C21   C     C_R   0.818227 0.817654 0.482320 -0.199621
C22   C     C_R   0.821359 0.184798 0.482686 -0.256851
C23   C     C_R   0.759221 0.797162 0.616028 0.071455
C24   C     C_R   0.817526 0.247944 0.619158 0.173219
C25   C     C_3   0.785606 0.770938 0.821699 0.034835
C26   C     C_3   0.807937 0.243699 0.828787 0.025417
C27   C     C_3   0.708539 0.706990 0.785737 -0.524956
C28   C     C_3   0.737555 0.313995 0.792079 -0.538632
H11   H     H_    0.771375 0.820856 0.922481 0.105066
H12   H     H_    0.776823 0.184376 0.866931 0.099998
H13   H     H_    0.647941 0.721411 0.860465 0.172114
H14   H     H_    0.665344 0.295187 0.806972 0.172484
H15   H     H_    0.733096 0.641909 0.801778 0.225094
H16   H     H_    0.761080 0.372854 0.865648 0.231830
O11   O     O_R   0.921430 0.915960 0.371040 -0.602795
O12   O     O_R   0.921430 0.084040 0.371040 -0.579159
O13   O     O_R   0.910450 0.087500 0.697310 -0.604287
O14   O     O_R   0.910450 0.912500 0.697310 -0.592879
O15   O     O_R   0.091710 0.087460 0.928430 -0.600208
O16   O     O_R   0.091710 0.912540 0.928430 -0.605950
C29   C     C_R   0.888061 0.114337 0.519694 0.965658
C30   C     C_R   0.888579 0.885285 0.519878 0.951530
O17   O     O_3   0.065970 1.000000 0.586140 -0.254111
V3    V     V_3+5 0.995640 0.000000 0.837400 1.201008
O18   O     O_R   0.103020 0.915700 0.261710 -0.547500
O19   O     O_R   0.103020 0.084300 0.261710 -0.538201
C31   C     C_R   0.125212 0.886006 0.100197 0.903161
C32   C     C_R   0.123816 0.115214 0.100359 0.914942
V4    V     V_3+5 0.017940 0.000000 0.344880 1.246482
O20   O     O_3   0.947330 0.000000 0.046180 -0.289011
N1    N     N_R   0.221576 0.779003 0.298423 0.231871
O21   O     O_R   0.251161 0.825225 0.447701 -0.446285
O22   O     O_R   0.204343 0.701159 0.323497 -0.392424
N2    N     N_R   0.190271 0.241523 0.283369 0.239166
O23   O     O_R   0.178498 0.209156 0.448596 -0.424672
O24   O     O_R   0.185487 0.321545 0.265913 -0.353870
I1    I     I_    0.922026 0.713565 0.874021 -0.341127
I2    I     I_    0.934599 0.279068 0.008423 -0.263339

loop_
_geom_bond_atom_site_label_1
_geom_bond_atom_site_label_2
_geom_bond_distance
_ccdc_geom_bond_type
O15   C32   1.298951 A    
O1    C2    1.303225 A    
N1    O22   1.301675 A    
N1    O21   1.300935 A    
C17   C19   1.414535 A    
O2    C1    1.302398 A    
C25   I1    2.166696 S    
O4    C2    1.305303 A    
C19   H9    1.074233 S    
C28   H14   1.111212 S    
C4    C5    1.477003 S    
C17   H7    1.077751 S    
C9    N1    1.432006 S    
N2    O24   1.301744 A    
O3    C1    1.306700 A    
O13   V3    2.030468 S    
O12   V4    1.979490 S    
V2    O10   2.178009 S    
O8    V2    1.994832 S    
O15   V3    2.021534 S    
V3    O20   1.707752 S    
H4    C8    1.084905 S    
O17   V4    1.720972 S    
C10   N2    1.444875 S    
C13   C15   1.401809 A    
O1    V2    2.000346 S    
C7    C11   1.484806 S    
O7    V1    2.155713 S    
C20   C22   1.412390 A    
C16   C18   1.411729 A    
C20   H10   1.081552 S    
O14   V3    2.031351 S    
C1    C15   1.492971 S    
C13   C27   1.485585 S    
C22   C24   1.402756 A    
C21   C30   1.493402 S    
C23   C25   1.489094 S    
C22   C29   1.492454 S    
C24   C26   1.490206 S    
O16   V3    2.020285 S    
H1    C11   1.086335 S    
C18   C20   1.416306 A    
H2    C12   1.085685 S    
N2    O23   1.300004 A    
C25   C27   1.517311 S    
C19   C21   1.404185 A    
C27   H15   1.112013 S    
C5    H5    1.074906 S    
C28   H16   1.111130 S    
O16   C31   1.295951 A    
O18   C31   1.307932 A    
C14   C16   1.400841 A    
H3    C7    1.085657 S    
O9    V2    1.993133 S    
C26   H12   1.110625 S    
C2    C16   1.490989 S    
O11   V4    1.981154 S    
O2    V2    2.002029 S    
C21   C23   1.397369 A    
C14   C28   1.488430 S    
O5    C4    1.293114 A    
O9    C4    1.308231 A    
C5    C7    1.346508 D    
C10   C32   1.491890 S    
C6    C8    1.350467 D    
O13   C29   1.306308 A    
C9    C31   1.484980 S    
O4    V1    2.005396 S    
O11   C30   1.303748 A    
O12   C29   1.303414 A    
C6    H6    1.078208 S    
C14   C24   1.394440 A    
C8    C12   1.485220 S    
O6    V1    2.009470 S    
C25   H11   1.109908 S    
C9    C11   1.356717 D    
C10   C12   1.361061 D    
O14   C30   1.306269 A    
C26   I2    2.140854 S    
C18   H8    1.080734 S    
O7    V2    1.723808 S    
V4    O20   2.178056 S    
O3    V1    2.006264 S    
V1    O10   1.707706 S    
O6    C3    1.293042 A    
O8    C3    1.309011 A    
O19   V4    1.985127 S    
C27   H13   1.111961 S    
C26   C28   1.524108 S    
C15   C17   1.408458 A    
C3    C6    1.478586 S    
O18   V4    1.983439 S    
O5    V1    2.008227 S    
O19   C32   1.307385 A    
O17   V3    2.155673 S    
C13   C23   1.400902 A    
