data_mof_unit_62904.cif
_audit_creation_date              2012-12-10T18:59:18-0500
_audit_creation_method            fapswitch 2.2
_symmetry_space_group_name_H-M    P1
_symmetry_Int_Tables_number       1
_space_group_crystal_system       triclinic
_cell_length_a                    9.871881
_cell_length_b                    10.626205
_cell_length_c                    16.636698
_cell_angle_alpha                 88.973691
_cell_angle_beta                  96.430493
_cell_angle_gamma                 89.460102
_cell_volume                      1733.82718227

loop_
_atom_site_label
_atom_site_type_symbol
_atom_type_description
_atom_site_fract_x
_atom_site_fract_y
_atom_site_fract_z
_atom_type_partial_charge
Br1   Br    Br    0.659822 0.717915 0.091246 -0.197180
Br2   Br    Br    0.340213 0.282087 0.908765 -0.197192
Br3   Br    Br    0.760249 0.668842 0.742229 -0.260233
Br4   Br    Br    0.239721 0.331199 0.257760 -0.260227
Br5   Br    Br    0.365358 0.849393 0.649190 -0.287537
Br6   Br    Br    0.634642 0.150607 0.350810 -0.287540
Br7   Br    Br    0.133691 0.688905 0.373212 -0.340692
Br8   Br    Br    0.866309 0.311095 0.626788 -0.340691
C1    C     C_R   0.500317 0.260349 0.499164 1.037057
C2    C     C_R   0.083229 0.422879 0.551622 -0.108328
C3    C     C_R   0.520160 0.498565 0.653803 0.994030
C4    C     C_R   0.479839 0.501436 0.346197 0.994029
C5    C     C_R   0.537412 0.487642 0.741248 -0.249543
C6    C     C_R   0.462589 0.512368 0.258752 -0.249546
C7    C     C_R   0.450453 0.406935 0.777943 -0.244625
C8    C     C_R   0.549560 0.593068 0.222061 -0.244622
C9    C     C_R   0.460700 0.394952 0.861425 0.258040
C10   C     C_R   0.539316 0.605060 0.138580 0.258036
C11   C     C_R   0.557593 0.466080 0.908728 0.066967
C12   C     C_R   0.499683 0.739650 0.500836 1.037057
C13   C     C_R   0.442414 0.533949 0.091272 0.066971
C14   C     C_R   0.650061 0.540981 0.872428 0.629690
C15   C     C_R   0.349932 0.459057 0.127568 0.629684
C16   C     C_R   0.640143 0.553233 0.788501 0.172343
C17   C     C_R   0.359847 0.446796 0.211495 0.172349
C18   C     C_R   0.441407 0.064963 0.560276 0.604081
C19   C     C_R   0.558593 0.935037 0.439724 0.604081
C20   C     C_R   0.440312 0.935501 0.561676 0.160172
C21   C     C_R   0.559688 0.064499 0.438323 0.160167
C22   C     C_R   0.498911 0.871971 0.500935 -0.393859
C23   C     C_R   0.501089 0.128029 0.499065 -0.393860
C24   C     C_R   0.060069 0.577422 0.448109 0.345500
C25   C     C_R   0.939930 0.422577 0.551891 0.345496
C26   C     C_R   0.916771 0.577121 0.448378 -0.108328
F1    F     F_    0.744202 0.607925 0.919085 -0.539806
F2    F     F_    0.255781 0.392131 0.080907 -0.539809
F3    F     F_    0.387572 0.129599 0.619230 -0.610537
F4    F     F_    0.612428 0.870401 0.380770 -0.610537
H1    H     H_    0.625747 0.646744 0.258417 0.238038
H2    H     H_    0.374274 0.353247 0.741589 0.238040
H3    H     H_    0.853245 0.638701 0.407190 0.202285
H4    H     H_    0.146755 0.361299 0.592810 0.202288
N1    N     N_2   0.553746 0.474019 0.992336 -0.052371
N2    N     N_2   0.446263 0.526012 0.007664 -0.052367
N3    N     N_R   0.857210 0.499970 0.500020 -0.134312
N4    N     N_R   0.142790 0.500030 0.499980 -0.134312
O1    O     O_R   0.614620 0.316750 0.500010 -0.580001
O2    O     O_R   0.385380 0.683250 0.499990 -0.580002
O3    O     O_R   0.385290 0.316780 0.500000 -0.589478
O4    O     O_R   0.614710 0.683220 0.500000 -0.589476
O5    O     O_R   0.627460 0.498830 0.616130 -0.574713
O6    O     O_R   0.372540 0.501170 0.383870 -0.574712
O7    O     O_R   0.398130 0.498850 0.616130 -0.613392
O8    O     O_R   0.601870 0.501150 0.383870 -0.613395
Zn1   Zn    Zn3+2 0.653130 0.499980 0.500000 1.068411
Zn2   Zn    Zn3+2 0.346870 0.500020 0.500000 1.068412

loop_
_geom_bond_atom_site_label_1
_geom_bond_atom_site_label_2
_ccdc_geom_bond_type
C2    N4    A    
C13   N2    S    
N1    N2    D    
C18   F3    S    
C7    C9    A    
C6    C8    A    
C19   C21   A    
Br5   C20   S    
C25   N3    A    
C18   C20   A    
O4    Zn1   S    
C3    O7    A    
C5    C7    A    
C11   C14   A    
C20   C22   A    
Br4   C17   S    
Br3   C16   S    
C18   C23   A    
C21   C23   A    
C26   N3    A    
C12   C22   S    
C6    C17   A    
C19   C22   A    
C14   F1    S    
C3    C5    S    
Br1   C10   S    
C12   O2    A    
C26   H3    S    
C3    O5    A    
C8    C10   A    
C9    C11   A    
C4    C6    S    
C1    O1    A    
C2    C25   A    
O5    Zn1   S    
Br8   C25   S    
C15   C17   A    
C13   C15   A    
C14   C16   A    
C7    H2    S    
C2    H4    S    
C1    C23   S    
C19   F4    S    
C10   C13   A    
O3    Zn2   S    
Br6   C21   S    
C1    O3    A    
N3    Zn1   S    
O1    Zn1   S    
C15   F2    S    
O7    Zn2   S    
N4    Zn2   S    
O2    Zn2   S    
O8    Zn1   S    
C12   O4    A    
Br7   C24   S    
C8    H1    S    
C4    O6    A    
C24   N4    A    
C4    O8    A    
O6    Zn2   S    
C5    C16   A    
C11   N1    S    
Br2   C9    S    
C24   C26   A    
