data_mof_unit_5753.cif
_audit_creation_date              2012-10-26T19:56:46-0400
_audit_creation_method            fapswitch 2.2
_symmetry_space_group_name_H-M    P1
_symmetry_Int_Tables_number       1
_space_group_crystal_system       triclinic
_cell_length_a                    15.513272
_cell_length_b                    15.692467
_cell_length_c                    10.084517
_cell_angle_alpha                 91.406531
_cell_angle_beta                  58.855744
_cell_angle_gamma                 90.390479
_cell_volume                      2100.46436639

loop_
_atom_site_label
_atom_site_type_symbol
_atom_type_description
_atom_site_fract_x
_atom_site_fract_y
_atom_site_fract_z
_atom_type_partial_charge
C1    C     C_R   0.371977 0.118517 0.562828 0.531010
C2    C     C_2   0.487711 0.004720 0.084723 0.436391
C3    C     C_2   0.012289 0.495268 0.915276 0.436383
C4    C     C_2   0.987710 0.504731 0.084725 0.436385
C5    C     C_2   0.295072 0.818553 0.597724 -0.142592
C6    C     C_2   0.704928 0.181447 0.402278 -0.142593
C7    C     C_2   0.701357 0.813359 0.402327 -0.145706
C8    C     C_2   0.298639 0.186638 0.597674 -0.145706
C9    C     C_2   0.795074 0.318551 0.597721 -0.142590
C10   C     C_2   0.204933 0.681443 0.402278 -0.142598
C11   C     C_2   0.201355 0.313357 0.402328 -0.145710
C12   C     C_R   0.628021 0.881481 0.437173 0.531004
C13   C     C_2   0.798641 0.686640 0.597674 -0.145715
C14   C     C_2   0.293669 0.775045 0.483910 -0.173708
C15   C     C_2   0.706343 0.224939 0.516095 -0.173698
C16   C     C_2   0.713919 0.783959 0.515362 -0.166747
C17   C     C_2   0.286071 0.216032 0.484642 -0.166729
C18   C     C_2   0.793662 0.275056 0.483904 -0.173698
C19   C     C_2   0.206346 0.724936 0.516096 -0.173707
C20   C     C_2   0.213918 0.283959 0.515361 -0.166730
C21   C     C_2   0.786076 0.716037 0.484641 -0.166744
C22   C     C_3   0.724667 0.996261 0.023255 0.058832
C23   C     C_R   0.626994 0.118607 0.438957 0.529679
C24   C     C_3   0.823202 0.955986 0.896686 -0.405395
C25   C     C_3   0.275332 0.003692 0.976730 0.058819
C26   C     C_3   0.176758 0.043859 0.103420 -0.405345
C27   C     C_3   0.224666 0.496259 0.023253 0.058833
C28   C     C_3   0.323202 0.455983 0.896687 -0.405379
C29   C     C_3   0.775333 0.503744 0.976747 0.058832
C30   C     C_3   0.676799 0.544025 0.103308 -0.405381
C31   C     C_3   0.327288 0.958174 0.255913 0.042501
C32   C     C_3   0.237151 0.979083 0.416988 -0.349212
C33   C     C_3   0.672734 0.041764 0.744036 0.042446
C34   C     C_R   0.373005 0.881394 0.561044 0.529690
C35   C     C_3   0.762844 0.020837 0.582943 -0.349202
C36   C     C_3   0.827268 0.458230 0.255966 0.042453
C37   C     C_3   0.737167 0.479149 0.417073 -0.349209
C38   C     C_3   0.172733 0.541765 0.744031 0.042457
C39   C     C_3   0.262834 0.520842 0.582925 -0.349208
C40   C     C_R   0.871980 0.618520 0.562827 0.530991
C41   C     C_R   0.128020 0.381480 0.437173 0.530987
C42   C     C_R   0.126996 0.618606 0.438956 0.529679
C43   C     C_R   0.873006 0.381393 0.561043 0.529679
C44   C     C_2   0.512290 0.995265 0.915275 0.436362
Cu1   Cu    Cu3+1 0.522650 0.000000 0.349410 0.983248
Cu2   Cu    Cu3+1 0.477350 1.000000 0.650590 0.983226
Cu3   Cu    Cu3+1 0.022650 0.500000 0.349410 0.983236
Cu4   Cu    Cu3+1 0.977350 0.500000 0.650590 0.983238
H1    H     H_    0.643106 0.222742 0.634480 0.143335
H2    H     H_    0.234830 0.812065 0.717676 0.089066
H3    H     H_    0.255057 0.212881 0.715143 0.114694
H4    H     H_    0.744945 0.787122 0.284855 0.114675
H5    H     H_    0.265168 0.687939 0.282324 0.089066
H6    H     H_    0.734844 0.312049 0.717676 0.089071
H7    H     H_    0.755055 0.712878 0.715145 0.114678
H8    H     H_    0.244939 0.287117 0.284857 0.114651
H9    H     H_    0.724243 0.987432 0.130558 0.188234
H10   H     H_    0.726441 0.066311 0.007667 0.096983
H11   H     H_    0.836379 0.969129 0.780535 0.144220
H12   H     H_    0.356918 0.777227 0.365532 0.143330
H13   H     H_    0.887036 0.982734 0.904283 0.082021
H14   H     H_    0.821365 0.885923 0.911143 0.167354
H15   H     H_    0.273624 0.933628 0.992147 0.097089
H16   H     H_    0.275733 0.012612 0.869467 0.188236
H17   H     H_    0.178714 0.113995 0.089649 0.167697
H18   H     H_    0.112996 0.017428 0.095258 0.082029
H19   H     H_    0.163338 0.030222 0.219552 0.143711
H20   H     H_    0.224240 0.487432 0.130558 0.188234
H21   H     H_    0.226443 0.566308 0.007661 0.096977
H22   H     H_    0.336397 0.469157 0.780536 0.144187
H23   H     H_    0.329487 0.189917 0.367044 0.200295
H24   H     H_    0.387035 0.482709 0.904321 0.082013
H25   H     H_    0.321351 0.385914 0.911109 0.167376
H26   H     H_    0.773552 0.433695 0.992344 0.096976
H27   H     H_    0.775760 0.512570 0.869442 0.188237
H28   H     H_    0.678655 0.614093 0.088879 0.167379
H29   H     H_    0.612967 0.517301 0.095676 0.082013
H30   H     H_    0.663604 0.530855 0.219460 0.144192
H31   H     H_    0.366121 0.899207 0.253729 0.125852
H32   H     H_    0.297240 0.940573 0.182774 0.125572
H33   H     H_    0.198087 0.037360 0.414289 0.143343
H34   H     H_    0.670495 0.810068 0.632963 0.200305
H35   H     H_    0.183306 0.925242 0.457132 0.091941
H36   H     H_    0.260944 0.991293 0.501766 0.165890
H37   H     H_    0.702825 0.059341 0.817122 0.125568
H38   H     H_    0.633919 0.100744 0.746236 0.125852
H39   H     H_    0.739041 0.008708 0.498159 0.165862
H40   H     H_    0.816748 0.074635 0.542827 0.091924
H41   H     H_    0.801850 0.962510 0.585597 0.143291
H42   H     H_    0.866089 0.399247 0.253747 0.125847
H43   H     H_    0.797164 0.440659 0.182894 0.125572
H44   H     H_    0.698107 0.537439 0.414421 0.143233
H45   H     H_    0.143104 0.722745 0.634478 0.143343
H46   H     H_    0.683303 0.425321 0.457241 0.091947
H47   H     H_    0.760992 0.491334 0.501816 0.165911
H48   H     H_    0.202838 0.559337 0.817102 0.125570
H49   H     H_    0.133913 0.600748 0.746248 0.125849
H50   H     H_    0.239007 0.508660 0.498182 0.165909
H51   H     H_    0.316701 0.574667 0.542756 0.091946
H52   H     H_    0.301889 0.462549 0.585579 0.143235
H53   H     H_    0.856899 0.277253 0.365520 0.143344
H54   H     H_    0.829499 0.689928 0.367040 0.200313
H55   H     H_    0.170499 0.310071 0.632961 0.200311
H56   H     H_    0.765159 0.187948 0.282322 0.089074
N1    N     N_2   0.443290 1.000000 0.876860 -0.067695
N2    N     N_2   0.556710 1.000000 0.123140 -0.067709
N3    N     N_2   0.943290 0.500000 0.876860 -0.067698
N4    N     N_2   0.056710 0.500000 0.123140 -0.067699
O1    O     O_R   0.422430 0.089640 0.419570 -0.458645
O2    O     O_R   0.615830 0.910350 0.326090 -0.502602
O3    O     O_R   0.615830 0.089650 0.326090 -0.534170
O4    O     O_R   0.384170 0.910350 0.673910 -0.534171
O5    O     O_R   0.884170 0.589650 0.673910 -0.502602
O6    O     O_R   0.115830 0.410350 0.326090 -0.502604
O7    O     O_R   0.115830 0.589650 0.326090 -0.534169
O8    O     O_R   0.884170 0.410350 0.673910 -0.534168
O9    O     O_3   0.642248 0.957171 0.021708 -0.478590
O10   O     O_3   0.357729 0.042792 0.978333 -0.478633
O11   O     O_3   0.142247 0.457170 0.021705 -0.478582
O12   O     O_R   0.577570 0.910360 0.580430 -0.458628
O13   O     O_3   0.857754 0.542830 0.978296 -0.478585
O14   O     O_3   0.391363 0.029819 0.199609 -0.536983
O15   O     O_3   0.608630 0.970139 0.800394 -0.537025
O16   O     O_3   0.891369 0.529858 0.199604 -0.537014
O17   O     O_3   0.108630 0.470139 0.800398 -0.537015
O18   O     O_R   0.577570 0.089640 0.580430 -0.498259
O19   O     O_R   0.422430 0.910360 0.419570 -0.498234
O20   O     O_R   0.922430 0.589640 0.419570 -0.458640
O21   O     O_R   0.077570 0.410360 0.580430 -0.458640
O22   O     O_R   0.077570 0.589640 0.580430 -0.498249
O23   O     O_R   0.922430 0.410360 0.419570 -0.498248
O24   O     O_R   0.384170 0.089650 0.673910 -0.502621

loop_
_geom_bond_atom_site_label_1
_geom_bond_atom_site_label_2
_ccdc_geom_bond_type
Cu3   O6    S    
C24   H13   S    
Cu2   O4    S    
C15   C18   S    
C1    C8    S    
C34   O4    A    
C41   O6    A    
C1    O24   A    
C25   O10   S    
C22   H9    S    
C12   O2    A    
C31   H32   S    
C20   H55   S    
C44   N1    D    
Cu3   O7    S    
C32   H33   S    
C4    N4    D    
C37   H47   S    
C16   C21   S    
C26   H19   S    
C36   C37   S    
C36   O16   S    
C7    H4    S    
Cu2   O24   S    
C38   C39   S    
Cu1   O1    S    
Cu4   N3    S    
C10   C42   S    
C40   O20   A    
Cu2   N1    S    
C17   C20   S    
C4    O16   S    
C25   H15   S    
C10   H5    S    
C33   H37   S    
C13   C40   S    
C27   H20   S    
Cu4   O21   S    
C1    O1    A    
C6    C15   D    
C12   O12   A    
C30   H29   S    
C35   H39   S    
C40   O5    A    
C2    C44   S    
C34   O19   A    
C29   O13   S    
C6    H56   S    
C27   H21   S    
Cu4   O8    S    
N4    O11   S    
Cu4   O22   S    
C28   H24   S    
C38   H49   S    
C28   H25   S    
C2    O14   S    
C7    C12   S    
C32   H36   S    
C11   C20   D    
C9    C43   S    
Cu2   O12   S    
C26   H18   S    
Cu3   O20   S    
Cu1   O2    S    
C39   H50   S    
C29   H26   S    
C3    N3    D    
C25   C26   S    
Cu1   Cu2   S    
C2    N2    D    
Cu3   O23   S    
C25   H16   S    
C33   H38   S    
C29   C30   S    
C43   O8    A    
C30   H28   S    
C35   H40   S    
C9    C18   D    
C39   H51   S    
Cu3   Cu4   S    
C10   C19   D    
C5    C34   S    
C16   H34   S    
C13   C21   D    
C42   O22   A    
C8    H3    S    
C5    C14   D    
C23   O18   A    
C21   H54   S    
C35   H41   S    
C36   H43   S    
C7    C16   D    
C17   H23   S    
N2    O9    S    
C22   C24   S    
C5    H2    S    
N3    O13   S    
C3    C4    S    
C38   O17   S    
C23   O3    A    
Cu1   N2    S    
C36   H42   S    
C32   H35   S    
C24   H14   S    
C37   H44   S    
C26   H17   S    
C14   C19   S    
Cu2   O18   S    
C31   C32   S    
C28   H22   S    
C31   O14   S    
C19   H45   S    
C22   H10   S    
C3    O17   S    
C31   H31   S    
C29   H27   S    
C27   O11   S    
C14   H12   S    
C44   O15   S    
C8    C17   D    
C43   O23   A    
Cu1   O3    S    
C41   O21   A    
C39   H52   S    
Cu1   O19   S    
C24   H11   S    
C6    C23   S    
C33   C35   S    
C37   H46   S    
C11   C41   S    
C15   H1    S    
N1    O10   S    
C30   H30   S    
C42   O7    A    
Cu3   N4    S    
C38   H48   S    
C27   C28   S    
C33   O15   S    
C9    H6    S    
C22   O9    S    
C18   H53   S    
C11   H8    S    
Cu4   O5    S    
C13   H7    S    
