data_mof_unit_27318.cif
_audit_creation_date              2012-10-26T17:10:26-0400
_audit_creation_method            fapswitch 2.2
_symmetry_space_group_name_H-M    P1
_symmetry_Int_Tables_number       1
_space_group_crystal_system       triclinic
_cell_length_a                    16.916182
_cell_length_b                    16.879614
_cell_length_c                    16.88061
_cell_angle_alpha                 68.064202
_cell_angle_beta                  67.826968
_cell_angle_gamma                 67.840137
_cell_volume                      3980.85162062

loop_
_atom_site_label
_atom_site_type_symbol
_atom_type_description
_atom_site_fract_x
_atom_site_fract_y
_atom_site_fract_z
_atom_type_partial_charge
C1    C     C_R   0.596035 0.021440 0.595784 -0.010708
C2    C     C_R   0.170802 0.433713 0.975993 0.551056
C3    C     C_R   0.565674 0.025198 0.829211 0.588699
C4    C     C_R   0.434309 0.974871 0.170781 0.588788
C5    C     C_R   0.434460 0.170799 0.974532 0.589164
C6    C     C_R   0.565710 0.829223 0.025106 0.588832
C7    C     C_R   0.977415 0.433330 0.170513 0.569173
C8    C     C_R   0.021496 0.566866 0.829946 0.602169
C9    C     C_R   0.170786 0.975407 0.433822 0.569317
C10   C     C_R   0.829193 0.024732 0.566136 0.566007
C11   C     C_R   0.546878 0.010880 0.546242 0.028201
C12   C     C_R   0.403575 0.979983 0.403801 -0.010608
C13   C     C_R   0.452690 0.990669 0.453302 0.028449
C14   C     C_R   0.037769 0.539636 0.539006 0.028414
C15   C     C_R   0.014470 0.446447 0.446189 0.027862
C16   C     C_R   0.547222 0.546213 0.010569 0.025802
C17   C     C_R   0.453982 0.452609 0.990050 0.071915
C18   C     C_R   0.549295 0.925672 0.549964 -0.126317
C19   C     C_R   0.450261 0.075887 0.449577 -0.126689
C20   C     C_R   0.952182 0.544840 0.541545 -0.123254
C21   C     C_R   0.100366 0.441060 0.443353 -0.124489
C22   C     C_R   0.551274 0.548541 0.925282 -0.127495
C23   C     C_R   0.046915 0.589416 0.589297 -0.009150
C24   C     C_R   0.449649 0.450536 0.075337 -0.104040
C25   C     C_R   0.502304 0.915592 0.503579 -0.123986
C26   C     C_R   0.497256 0.085968 0.495973 -0.124257
C27   C     C_R   0.504684 0.501863 0.915044 -0.106756
C28   C     C_R   0.496283 0.497178 0.085577 -0.125868
C29   C     C_R   0.940588 0.498539 0.495426 -0.125977
C30   C     C_R   0.112024 0.487605 0.489735 -0.123560
C31   C     C_R   0.555050 0.025074 0.684177 0.050811
C32   C     C_R   0.444696 0.975902 0.315555 0.050738
C33   C     C_R   0.045083 0.679489 0.550724 0.057514
C34   C     C_R   0.000583 0.397750 0.397905 -0.009768
C35   C     C_R   0.992593 0.310947 0.440039 0.049989
C36   C     C_R   0.684835 0.555603 0.023846 0.059014
C37   C     C_R   0.315907 0.443161 0.979198 0.057053
C38   C     C_R   0.314808 0.977848 0.443844 0.059360
C39   C     C_R   0.684828 0.023511 0.555748 0.059935
C40   C     C_R   0.445910 0.315511 0.974035 0.037235
C41   C     C_R   0.555302 0.684253 0.024579 0.050118
C42   C     C_R   0.994254 0.438874 0.310434 0.059060
C43   C     C_R   0.044563 0.550472 0.679415 0.048703
C44   C     C_R   0.602216 0.034805 0.732228 0.055648
C45   C     C_R   0.596218 0.595770 0.021288 -0.009597
C46   C     C_R   0.397725 0.965551 0.267711 0.055841
C47   C     C_R   0.028227 0.733967 0.605275 0.022356
C48   C     C_R   0.973146 0.266313 0.396044 0.053849
C49   C     C_R   0.732383 0.603255 0.033910 0.019458
C50   C     C_R   0.267630 0.396574 0.967747 -0.010451
C51   C     C_R   0.267517 0.966793 0.396561 0.018936
C52   C     C_R   0.732386 0.033721 0.603318 0.018829
C53   C     C_R   0.398155 0.267753 0.964875 0.057021
C54   C     C_R   0.602314 0.732263 0.034608 0.055602
C55   C     C_R   0.974162 0.394898 0.266133 0.018574
C56   C     C_R   0.404819 0.403239 0.979307 0.023464
C57   C     C_R   0.027996 0.604649 0.734024 0.052094
C58   C     C_R   0.687445 0.047487 0.688762 0.014978
C59   C     C_R   0.312630 0.952570 0.311312 0.015868
C60   C     C_R   0.011839 0.697027 0.698090 0.015701
C61   C     C_R   0.956480 0.311517 0.312669 0.015179
C62   C     C_R   0.687462 0.688769 0.047501 0.017719
C63   C     C_R   0.312692 0.311442 0.952853 0.024768
C64   C     C_R   0.021421 0.829938 0.567102 0.571326
C65   C     C_R   0.976998 0.170553 0.433709 0.595390
C66   C     C_R   0.829183 0.566090 0.024856 0.570832
Cu1   Cu    Cu3+1 0.995180 0.995180 0.424630 0.971085
Cu2   Cu    Cu3+1 0.004820 0.004820 0.575370 0.945882
Cu3   Cu    Cu3+1 0.995180 0.424630 0.995180 0.949449
Cu4   Cu    Cu3+1 0.004820 0.575370 0.004820 0.938100
Cu5   Cu    Cu3+1 0.424630 0.995180 0.995180 0.993842
Cu6   Cu    Cu3+1 0.575370 0.004820 0.004820 0.993965
H1    H     H_    0.495031 0.152004 0.492895 0.108522
H2    H     H_    0.590418 0.586478 0.867036 0.105741
H3    H     H_    0.157899 0.400910 0.405416 0.103467
H4    H     H_    0.894391 0.584823 0.579477 0.109981
H5    H     H_    0.424252 0.071167 0.688161 0.233910
H6    H     H_    0.462232 0.958802 0.724120 0.233240
H7    H     H_    0.537231 0.042584 0.275283 0.232615
H8    H     H_    0.575479 0.930286 0.311613 0.234169
H9    H     H_    0.119205 0.679058 0.424265 0.227223
H10   H     H_    0.007802 0.710219 0.439184 0.237279
H11   H     H_    0.067711 0.265478 0.525923 0.232288
H12   H     H_    0.504527 0.849552 0.506670 0.109107
H13   H     H_    0.957099 0.305836 0.570757 0.232877
H14   H     H_    0.689877 0.424473 0.068481 0.229953
H15   H     H_    0.725443 0.463304 0.956172 0.233116
H16   H     H_    0.226514 0.531322 0.049535 0.257020
H17   H     H_    0.255296 0.575072 0.935281 0.254401
H18   H     H_    0.308809 0.935284 0.575144 0.231925
H19   H     H_    0.274087 0.047427 0.534512 0.232476
H20   H     H_    0.725142 0.955099 0.464153 0.231878
H21   H     H_    0.690481 0.067371 0.424503 0.233359
H22   H     H_    0.576520 0.312384 0.925602 0.230343
H23   H     H_    0.178393 0.483129 0.487400 0.104378
H24   H     H_    0.540606 0.275352 0.038064 0.230023
H25   H     H_    0.463241 0.724002 0.957486 0.236482
H26   H     H_    0.424389 0.688720 0.069827 0.237687
H27   H     H_    0.961548 0.569920 0.302966 0.232994
H28   H     H_    0.071959 0.522360 0.264957 0.229188
H29   H     H_    0.006168 0.439757 0.709448 0.238633
H30   H     H_    0.117692 0.423691 0.679424 0.227159
H31   H     H_    0.749026 0.132077 0.686897 0.245001
H32   H     H_    0.775961 0.025913 0.755223 0.264449
H33   H     H_    0.251504 0.867246 0.313897 0.245477
H34   H     H_    0.874054 0.503149 0.498063 0.109199
H35   H     H_    0.224368 0.973015 0.245028 0.265987
H36   H     H_    0.914835 0.801393 0.741694 0.240484
H37   H     H_    0.017097 0.780256 0.757513 0.266010
H38   H     H_    0.966312 0.247341 0.226458 0.266612
H39   H     H_    0.864083 0.320603 0.256731 0.241112
H40   H     H_    0.748913 0.686928 0.132172 0.242127
H41   H     H_    0.775963 0.755225 0.026023 0.269198
H42   H     H_    0.251140 0.314177 0.867812 0.245818
H43   H     H_    0.224294 0.245108 0.973657 0.266022
H44   H     H_    0.492766 0.495244 0.151660 0.107152
H45   H     H_    0.508108 0.503893 0.848957 0.107183
H46   H     H_    0.412088 0.134201 0.410755 0.104382
H47   H     H_    0.587460 0.867353 0.588789 0.105860
H48   H     H_    0.410375 0.412724 0.133578 0.104457
N1    N     N_3   0.465195 0.019244 0.724923 -0.590739
N2    N     N_3   0.465712 0.725152 0.017994 -0.589033
N3    N     N_3   0.008412 0.525533 0.266697 -0.594334
N4    N     N_3   0.056656 0.456362 0.715870 -0.599734
N5    N     N_3   0.725521 0.077891 0.731291 -0.597180
N6    N     N_3   0.274895 0.921385 0.269152 -0.597398
N7    N     N_3   0.971027 0.752648 0.757951 -0.601132
N8    N     N_3   0.918221 0.272952 0.278169 -0.601225
N9    N     N_3   0.725468 0.731317 0.077962 -0.597486
N10   N     N_3   0.274639 0.269413 0.921866 -0.596626
N11   N     N_3   0.534478 0.981951 0.274739 -0.590999
N12   N     N_3   0.058200 0.715957 0.456483 -0.596301
N13   N     N_3   0.004292 0.268215 0.527713 -0.593320
N14   N     N_3   0.726197 0.465967 0.016763 -0.592113
N15   N     N_3   0.277573 0.531445 0.990364 -0.623179
N16   N     N_3   0.273000 0.986526 0.532921 -0.589426
N17   N     N_3   0.726384 0.015683 0.466370 -0.587975
N18   N     N_3   0.536367 0.275070 0.977964 -0.593745
O1    O     O_R   0.124540 0.978640 0.385460 -0.537335
O2    O     O_R   0.124540 0.385460 0.978640 -0.521972
O3    O     O_R   0.021360 0.875460 0.614540 -0.535799
O4    O     O_R   0.978640 0.124540 0.385460 -0.488652
O5    O     O_R   0.013780 0.867370 0.487190 -0.468824
O6    O     O_R   0.986220 0.132630 0.512810 -0.475963
O7    O     O_R   0.867370 0.487190 0.013780 -0.465632
O8    O     O_R   0.132630 0.512810 0.986220 -0.524340
O9    O     O_R   0.487190 0.013780 0.867370 -0.477804
O10   O     O_R   0.512810 0.986220 0.132630 -0.477992
O11   O     O_R   0.512810 0.132630 0.986220 -0.477019
O12   O     O_R   0.875460 0.021360 0.614540 -0.541986
O13   O     O_R   0.487190 0.867370 0.013780 -0.477753
O14   O     O_R   0.986220 0.512810 0.132630 -0.466631
O15   O     O_R   0.013780 0.487190 0.867370 -0.475780
O16   O     O_R   0.132630 0.986220 0.512810 -0.461518
O17   O     O_R   0.867370 0.013780 0.487190 -0.461634
O18   O     O_R   0.978640 0.385460 0.124540 -0.533375
O19   O     O_R   0.021360 0.614540 0.875460 -0.487386
O20   O     O_R   0.385460 0.124540 0.978640 -0.494585
O21   O     O_R   0.614540 0.875460 0.021360 -0.493236
O22   O     O_R   0.614540 0.021360 0.875460 -0.493450
O23   O     O_R   0.385460 0.978640 0.124540 -0.493695
O24   O     O_R   0.875460 0.614540 0.021360 -0.529825

loop_
_geom_bond_atom_site_label_1
_geom_bond_atom_site_label_2
_ccdc_geom_bond_type
C16   C28   A    
Cu5   O9    S    
C39   N17   S    
C11   C18   A    
C3    O9    A    
C2    O8    A    
H17   N15   S    
C46   C59   A    
Cu3   O7    S    
C34   C42   A    
C7    C55   S    
Cu1   O5    S    
C35   N13   S    
C33   C47   A    
C2    C50   S    
C6    O21   A    
C23   C43   A    
C4    C46   S    
C59   N6    S    
C20   H4    S    
H25   N2    S    
Cu6   O21   S    
H41   N9    S    
H33   N6    S    
C5    C53   S    
C14   C30   A    
Cu2   O16   S    
Cu6   O11   S    
H24   N18   S    
C8    C57   S    
C64   O3    A    
H20   N17   S    
C4    O10   A    
C1    C31   A    
C26   H1    S    
C5    O11   A    
H5    N1    S    
C66   O24   A    
Cu1   O17   S    
C34   C35   A    
C63   N10   S    
H6    N1    S    
C19   C26   A    
C53   C63   A    
C66   O7    A    
C28   H44   S    
C47   C60   A    
C37   C56   A    
H19   N16   S    
H37   N7    S    
Cu5   O13   S    
C7    O18   A    
C19   H46   S    
C35   C48   A    
C40   C56   A    
C9    C51   S    
C65   O4    A    
C25   H12   S    
C37   N15   S    
Cu4   O8    S    
C38   N16   S    
C48   C65   S    
Cu1   O1    S    
C15   C34   S    
Cu3   O2    S    
C39   C52   A    
C10   C52   S    
H8    N11   S    
C12   C32   A    
C50   C63   A    
H42   N10   S    
C62   N9    S    
C13   C25   A    
C18   C25   A    
C6    C54   S    
H30   N4    S    
C8    O19   A    
Cu4   O24   S    
H14   N14   S    
C42   N3    S    
C15   C29   A    
C20   C29   A    
C27   H45   S    
C3    C44   S    
C24   H48   S    
C17   C24   A    
C49   C66   S    
C13   C19   A    
Cu1   Cu2   S    
Cu3   O18   S    
C14   C20   A    
C36   C45   A    
Cu2   O12   S    
C31   N1    S    
C31   C44   A    
C44   C58   A    
C47   C64   S    
C65   O6    A    
C1    C39   A    
C57   C60   A    
C38   C51   A    
C54   C62   A    
C11   C26   A    
C23   C33   A    
Cu6   O10   S    
Cu3   O15   S    
C40   N18   S    
C17   C27   A    
C14   C23   S    
C16   C45   S    
C30   H23   S    
C42   C55   A    
H18   N16   S    
H7    N11   S    
H15   N14   S    
Cu4   O14   S    
Cu2   O3    S    
C8    O15   A    
C17   C56   S    
C52   C58   A    
C6    O13   A    
H32   N5    S    
C33   N12   S    
C41   N2    S    
C9    O16   A    
C40   C53   A    
C22   C27   A    
C3    O22   A    
H40   N9    S    
C29   H34   S    
C51   C59   A    
C22   H2    S    
H10   N12   S    
H27   N3    S    
H26   N2    S    
Cu5   O20   S    
C16   C22   A    
C49   C62   A    
Cu5   O23   S    
C32   C46   A    
C60   N7    S    
C24   C28   A    
H16   N15   S    
H9    N12   S    
C36   N14   S    
C10   O17   A    
C64   O5    A    
H35   N6    S    
C21   C30   A    
C21   H3    S    
Cu6   O22   S    
H28   N3    S    
C2    O2    A    
Cu4   O19   S    
Cu5   Cu6   S    
C10   O12   A    
C37   C50   A    
C9    O1    A    
C48   C61   A    
H22   N18   S    
C55   C61   A    
H29   N4    S    
Cu2   O6    S    
C61   N8    S    
H36   N7    S    
C12   C38   A    
Cu3   Cu4   S    
H31   N5    S    
C41   C54   A    
H11   N13   S    
H21   N17   S    
C43   C57   A    
C7    O14   A    
C15   C21   A    
C12   C13   S    
C43   N4    S    
C58   N5    S    
C5    O20   A    
H13   N13   S    
H39   N8    S    
C41   C45   A    
C4    O23   A    
C1    C11   S    
Cu1   O4    S    
C18   H47   S    
C32   N11   S    
C36   C49   A    
H38   N8    S    
H43   N10   S    
