data_mof_unit_10086.cif
_audit_creation_date              2012-12-10T16:47:57-0500
_audit_creation_method            fapswitch 2.2
_symmetry_space_group_name_H-M    P1
_symmetry_Int_Tables_number       1
_space_group_crystal_system       triclinic
_cell_length_a                    7.773202
_cell_length_b                    8.577166
_cell_length_c                    10.695318
_cell_angle_alpha                 90.949618
_cell_angle_beta                  85.477561
_cell_angle_gamma                 93.702021
_cell_volume                      709.327990456

loop_
_atom_site_label
_atom_site_type_symbol
_atom_type_description
_atom_site_fract_x
_atom_site_fract_y
_atom_site_fract_z
_atom_type_partial_charge
C1    C     C_R   0.545831 0.794756 0.496959 0.956618
C2    C     C_2   0.569933 0.958267 0.495292 -0.374245
C3    C     C_3   0.938265 0.495402 0.913622 0.090321
C4    C     C_3   0.933719 0.673889 0.906237 -0.359680
C5    C     C_3   0.100032 0.755876 0.948108 -0.948367
C6    C     C_2   0.430085 0.041739 0.505440 -0.373867
C7    C     C_R   0.500292 0.491771 0.737324 0.946479
C8    C     C_R   0.454177 0.205238 0.503311 0.958468
C9    C     C_R   0.498663 0.499228 0.262624 0.965270
C10   C     C_2   0.617313 0.422248 0.062222 -0.281907
C11   C     C_2   0.500098 0.501997 0.130340 -0.407268
C12   C     C_2   0.638707 0.438610 0.926759 0.544801
C13   C     C_2   0.496528 0.462499 0.868291 -0.443974
H1    H     H_    0.703714 0.349510 0.106815 0.172622
H2    H     H_    0.916824 0.707529 0.808336 0.223126
H3    H     H_    0.822733 0.714139 0.967522 0.216628
H4    H     H_    0.119495 0.723776 0.045973 0.262389
H5    H     H_    0.091546 0.884412 0.944124 0.269082
H6    H     H_    0.212886 0.722907 0.885293 0.268950
H7    H     H_    0.412761 0.577806 0.090465 0.146540
H8    H     H_    0.369029 0.458473 0.917959 0.115895
H9    H     H_    0.701976 0.009419 0.485582 0.181875
H10   H     H_    0.298042 0.990589 0.515219 0.181002
H11   H     H_    0.013468 0.381326 0.406941 0.188100
H12   H     H_    0.986540 0.618977 0.592676 0.191943
H13   H     H_    0.057226 0.460155 0.859007 0.184213
H14   H     H_    0.950175 0.458103 0.011355 0.124021
N1    N     N_2   0.950320 0.457950 0.466680 -0.169070
N2    N     N_2   0.049680 0.542050 0.533320 -0.164851
O1    O     O_R   0.389250 0.738570 0.508180 -0.613664
O2    O     O_R   0.678390 0.711630 0.486820 -0.636075
O3    O     O_R   0.355470 0.513470 0.691600 -0.639089
O4    O     O_R   0.644610 0.486520 0.670240 -0.560631
O5    O     O_R   0.321610 0.288370 0.513180 -0.630770
O6    O     O_R   0.610750 0.261430 0.491820 -0.613084
O7    O     O_R   0.355390 0.513480 0.329760 -0.629991
O8    O     O_R   0.644530 0.486530 0.308400 -0.617655
O9    O     O_3   0.796284 0.416995 0.858686 -0.620593
Zn1   Zn    Zn3+2 0.306940 0.517990 0.514260 0.938533
Zn2   Zn    Zn3+2 0.693060 0.482010 0.485740 0.957908

loop_
_geom_bond_atom_site_label_1
_geom_bond_atom_site_label_2
_ccdc_geom_bond_type
C2    H9    S    
C9    O7    A    
C4    H3    S    
C5    H6    S    
C7    O4    A    
C1    O2    A    
N2    Zn1   S    
C4    H2    S    
C9    O8    A    
O6    Zn2   S    
C13   H8    S    
C8    O5    A    
C12   C13   D    
H12   N2    S    
C9    C11   S    
C2    C6    D    
C10   C12   S    
C5    H5    S    
C6    H10   S    
C3    H14   S    
N1    N2    D    
O1    Zn1   S    
O8    Zn2   S    
C3    H13   S    
C12   O9    S    
C11   H7    S    
O4    Zn2   S    
C5    H4    S    
C10   C11   D    
N1    Zn2   S    
C3    C4    S    
C7    C13   S    
O2    Zn2   S    
C1    C2    S    
C10   H1    S    
O3    Zn1   S    
C1    O1    A    
C6    C8    S    
C7    O3    A    
O5    Zn1   S    
O7    Zn1   S    
H11   N1    S    
C3    O9    S    
C4    C5    S    
C8    O6    A    
