data_mof_unit_31902.cif
_audit_creation_date              2012-12-11T16:12:53-0500
_audit_creation_method            fapswitch 2.2
_symmetry_space_group_name_H-M    P1
_symmetry_Int_Tables_number       1
_space_group_crystal_system       triclinic
_cell_length_a                    6.950824
_cell_length_b                    21.312635
_cell_length_c                    23.584327
_cell_angle_alpha                 90.0
_cell_angle_beta                  90.00053
_cell_angle_gamma                 90.001067
_cell_volume                      3493.79104187

loop_
_atom_site_label
_atom_site_type_symbol
_atom_type_description
_atom_site_fract_x
_atom_site_fract_y
_atom_site_fract_z
_atom_type_partial_charge
O1    O     O_R   0.615270 0.806540 0.192260 -0.534336
O2    O     O_R   0.384730 0.193460 0.807740 -0.534336
O3    O     O_R   0.384730 0.193460 0.692260 -0.534337
O4    O     O_R   0.615270 0.806540 0.307740 -0.534336
O5    O     O_R   0.115270 0.693460 0.307740 -0.534337
O6    O     O_R   0.884730 0.306540 0.692260 -0.534336
O7    O     O_R   0.884730 0.306540 0.807740 -0.534336
O8    O     O_R   0.115270 0.693460 0.192260 -0.534336
O9    O     O_R   0.285500 0.813970 0.307340 -0.538300
O10   O     O_R   0.714500 0.186030 0.692660 -0.538300
O11   O     O_R   0.714500 0.186030 0.807340 -0.538301
O12   O     O_R   0.285500 0.813970 0.192660 -0.538300
O13   O     O_R   0.785500 0.686030 0.192660 -0.538301
O14   O     O_R   0.214500 0.313970 0.807340 -0.538300
O15   O     O_R   0.214500 0.313970 0.692660 -0.538301
O16   O     O_R   0.785500 0.686030 0.307340 -0.538300
C1    C     C_R   0.454388 0.829152 0.326773 0.725828
C2    C     C_R   0.545612 0.170848 0.673227 0.725829
C3    C     C_R   0.545613 0.170848 0.826773 0.725827
C4    C     C_R   0.454387 0.829151 0.173227 0.725827
C5    C     C_R   0.954384 0.670848 0.173227 0.725827
C6    C     C_R   0.045616 0.329152 0.826773 0.725826
C7    C     C_R   0.045614 0.329152 0.673227 0.725827
C8    C     C_R   0.954386 0.670848 0.326773 0.725827
O17   O     O_3   0.448760 0.710460 0.250000 -0.367527
O18   O     O_3   0.551240 0.289540 0.750000 -0.367527
O19   O     O_3   0.948760 0.789540 0.250000 -0.367526
O20   O     O_3   0.051240 0.210460 0.750000 -0.367526
V1    V     V_3+5 0.173900 0.757330 0.250000 1.419483
V2    V     V_3+5 0.826100 0.242670 0.750000 1.419483
V3    V     V_3+5 0.673900 0.742670 0.250000 1.419485
V4    V     V_3+5 0.326100 0.257330 0.750000 1.419485
C9    C     C_3   0.128388 0.519901 0.537556 0.196511
C10   C     C_3   0.871611 0.480099 0.462443 0.196502
C11   C     C_3   0.871638 0.480091 0.037561 0.196511
C12   C     C_3   0.128362 0.519908 0.962438 0.196504
C13   C     C_3   0.628328 0.980090 0.962430 0.196487
C14   C     C_3   0.371671 0.019910 0.037570 0.196471
C15   C     C_3   0.371627 0.019901 0.462438 0.196473
C16   C     C_3   0.628373 0.980099 0.537563 0.196448
C17   C     C_3   0.944736 0.556281 0.520535 -0.181172
C18   C     C_3   0.055263 0.443719 0.479465 -0.181151
C19   C     C_3   0.055306 0.443723 0.020534 -0.181153
C20   C     C_3   0.944694 0.556277 0.979465 -0.181136
C21   C     C_3   0.444656 0.943726 0.979466 -0.181146
C22   C     C_3   0.555343 0.056274 0.020535 -0.181106
C23   C     C_3   0.555281 0.056281 0.479465 -0.181172
C24   C     C_3   0.444721 0.943719 0.520535 -0.181149
H1    H     H_    0.900414 0.602702 0.537421 0.120369
H2    H     H_    0.099586 0.397298 0.462579 0.120363
H3    H     H_    0.099665 0.397305 0.037420 0.120368
H4    H     H_    0.900335 0.602695 0.962580 0.120363
H5    H     H_    0.400268 0.897311 0.962580 0.120366
H6    H     H_    0.599732 0.102690 0.037421 0.120355
H7    H     H_    0.599615 0.102702 0.462579 0.120364
H8    H     H_    0.400385 0.897297 0.537422 0.120355
H9    H     H_    0.684839 0.489272 0.546129 0.125679
H10   H     H_    0.315160 0.510724 0.453870 0.125661
H11   H     H_    0.315179 0.510749 0.046118 0.125655
H12   H     H_    0.684822 0.489255 0.953881 0.125642
H13   H     H_    0.184783 0.010761 0.953905 0.125641
H14   H     H_    0.815214 0.989244 0.046097 0.125612
H15   H     H_    0.815199 0.989271 0.453886 0.125669
H16   H     H_    0.184804 0.010722 0.546115 0.125645
C25   C     C_1   0.964542 0.625063 0.372282 -0.192297
C26   C     C_1   0.035458 0.374937 0.627718 -0.192298
C27   C     C_1   0.035463 0.374936 0.872283 -0.192296
C28   C     C_1   0.964537 0.625064 0.127717 -0.192297
C29   C     C_1   0.464545 0.874934 0.127716 -0.192297
C30   C     C_1   0.535455 0.125066 0.872284 -0.192300
C31   C     C_1   0.535449 0.125064 0.627717 -0.192298
C32   C     C_1   0.464551 0.874936 0.372283 -0.192301
C33   C     C_3   0.173116 0.505532 0.474645 -0.173204
C34   C     C_3   0.826883 0.494468 0.525355 -0.173249
C35   C     C_3   0.826875 0.494457 0.974650 -0.173193
C36   C     C_3   0.173126 0.505543 0.025349 -0.173230
C37   C     C_3   0.673141 0.994450 0.025339 -0.173176
C38   C     C_3   0.326857 0.005551 0.974661 -0.173248
C39   C     C_3   0.326868 0.005532 0.525349 -0.173199
C40   C     C_3   0.673133 0.994467 0.474651 -0.173256
C41   C     C_3   0.988164 0.541132 0.457744 0.092994
C42   C     C_3   0.011836 0.458868 0.542256 0.093000
C43   C     C_3   0.011842 0.458867 0.957745 0.092985
C44   C     C_3   0.988158 0.541133 0.042255 0.092991
C45   C     C_3   0.488170 0.958865 0.042254 0.092982
C46   C     C_3   0.511830 0.041135 0.957746 0.092995
C47   C     C_3   0.511822 0.041133 0.542255 0.093002
C48   C     C_3   0.488179 0.958866 0.457745 0.093014
C49   C     C_1   0.974766 0.587144 0.410665 -0.059064
C50   C     C_1   0.025233 0.412856 0.589335 -0.059062
C51   C     C_1   0.025240 0.412856 0.910666 -0.059058
C52   C     C_1   0.974759 0.587144 0.089334 -0.059057
C53   C     C_1   0.474773 0.912853 0.089333 -0.059060
C54   C     C_1   0.525227 0.087147 0.910667 -0.059058
C55   C     C_1   0.525218 0.087145 0.589334 -0.059067
C56   C     C_1   0.474782 0.912855 0.410666 -0.059065
C57   C     C_3   0.274319 0.541882 0.581676 -0.363762
C58   C     C_3   0.382084 0.600215 0.561787 -0.769475
H17   H     H_    0.463897 0.590044 0.522392 0.226471
H18   H     H_    0.279597 0.639175 0.553678 0.228792
H19   H     H_    0.485306 0.615173 0.595073 0.216607
H20   H     H_    0.197754 0.552445 0.621893 0.178896
H21   H     H_    0.378594 0.503523 0.589885 0.173495
C59   C     C_3   0.725676 0.458124 0.418324 -0.363723
C60   C     C_3   0.617988 0.399768 0.438196 -0.769413
H22   H     H_    0.720525 0.360812 0.446275 0.228770
H23   H     H_    0.536210 0.409908 0.477607 0.226464
H24   H     H_    0.514744 0.384820 0.404913 0.216599
H25   H     H_    0.621355 0.496477 0.410137 0.173473
H26   H     H_    0.802227 0.447590 0.378095 0.178880
C61   C     C_3   0.725732 0.458103 0.081684 -0.363797
C62   C     C_3   0.618052 0.399751 0.061812 -0.769502
H27   H     H_    0.536238 0.409896 0.022413 0.226484
H28   H     H_    0.720592 0.360804 0.053715 0.228798
H29   H     H_    0.514843 0.384790 0.095099 0.216614
H30   H     H_    0.802304 0.447565 0.121904 0.178912
H31   H     H_    0.621403 0.496447 0.089882 0.173510
C63   C     C_3   0.274272 0.541891 0.918315 -0.363766
C64   C     C_3   0.381890 0.600262 0.938175 -0.769454
H32   H     H_    0.279311 0.639206 0.946245 0.228781
H33   H     H_    0.463673 0.590143 0.977587 0.226479
H34   H     H_    0.485120 0.615214 0.904890 0.216607
H35   H     H_    0.378638 0.503552 0.910135 0.173493
H36   H     H_    0.197713 0.552406 0.878085 0.178898
C65   C     C_3   0.774202 0.958102 0.918299 -0.363742
C66   C     C_3   0.881837 0.899731 0.938156 -0.769431
H37   H     H_    0.963700 0.909862 0.977553 0.226457
H38   H     H_    0.779256 0.860792 0.946253 0.228779
H39   H     H_    0.985001 0.884764 0.904860 0.216603
H40   H     H_    0.697602 0.947581 0.878076 0.178892
H41   H     H_    0.878569 0.996440 0.910108 0.173498
C67   C     C_3   0.225795 0.041891 0.081704 -0.363693
C68   C     C_3   0.118288 0.100300 0.061874 -0.769361
H42   H     H_    0.220950 0.139232 0.053828 0.228748
H43   H     H_    0.036482 0.090223 0.022453 0.226454
H44   H     H_    0.015086 0.115251 0.095166 0.216593
H45   H     H_    0.121352 0.003564 0.089859 0.173469
H46   H     H_    0.302376 0.052363 0.121942 0.178875
C69   C     C_3   0.225713 0.041881 0.418313 -0.363671
C70   C     C_3   0.117957 0.100225 0.438193 -0.769354
H47   H     H_    0.036086 0.090057 0.477584 0.226432
H48   H     H_    0.220468 0.139183 0.446311 0.228764
H49   H     H_    0.014777 0.115191 0.404899 0.216584
H50   H     H_    0.302305 0.052436 0.378093 0.178863
H51   H     H_    0.121418 0.003521 0.410107 0.173466
C71   C     C_3   0.774289 0.958126 0.581689 -0.363580
C72   C     C_3   0.881951 0.899748 0.561830 -0.769236
H52   H     H_    0.779374 0.860795 0.553750 0.228721
H53   H     H_    0.963794 0.909875 0.522420 0.226410
H54   H     H_    0.985150 0.884794 0.595123 0.216566
H55   H     H_    0.878646 0.996479 0.589866 0.173424
H56   H     H_    0.697706 0.947609 0.621923 0.178829

loop_
_geom_bond_atom_site_label_1
_geom_bond_atom_site_label_2
_ccdc_geom_bond_type
O17   V3    S    
C48   C56   S    
O18   V4    S    
C66   H37   S    
O12   V1    S    
O19   V1    S    
C19   C43   S    
H14   C37   S    
C61   C62   S    
C18   C42   S    
C70   H49   S    
C19   H3    S    
C38   C46   S    
C36   C44   S    
C39   C47   S    
C57   C58   S    
C11   C61   S    
O15   V4    S    
C26   C50   T    
O16   V3    S    
C25   C49   T    
C60   H23   S    
O11   C3    A    
C24   C39   S    
O8    V1    S    
C15   C48   S    
C7    C26   S    
C23   H7    S    
C30   C54   T    
C70   H48   S    
C29   C53   T    
C59   H25   S    
C32   C56   T    
C31   C55   T    
C12   C43   S    
C67   H46   S    
O1    V3    S    
O3    C2    A    
O2    V4    S    
C33   C41   S    
O10   V2    S    
C63   C64   S    
C62   H27   S    
C46   C54   S    
C17   C34   S    
C45   C53   S    
C65   H40   S    
C72   H52   S    
O11   V2    S    
C67   C68   S    
C18   C33   S    
C10   C18   S    
C68   H44   S    
C24   C48   S    
C61   H30   S    
C10   C41   S    
C11   C19   S    
C9    C42   S    
O5    V1    S    
C57   H20   S    
O9    V1    S    
C41   C49   S    
C20   H4    S    
O15   C7    A    
C21   H5    S    
O16   C8    A    
O7    V2    S    
O12   C4    A    
C23   C40   S    
C34   C42   S    
C17   H1    S    
C59   C60   S    
C13   C65   S    
H15   C40   S    
C64   H33   S    
O17   V1    S    
C60   H24   S    
C15   C69   S    
C27   C51   T    
C14   C45   S    
O19   V3    S    
C13   C46   S    
O20   V4    S    
C72   H54   S    
C70   H47   S    
C15   C39   S    
C14   C38   S    
C66   H39   S    
C67   H45   S    
C13   C37   S    
C10   C59   S    
C47   C55   S    
C14   C67   S    
H9    C34   S    
C20   C35   S    
C21   C45   S    
C11   C44   S    
C57   H21   S    
C69   H50   S    
C65   H41   S    
H13   C38   S    
C64   H32   S    
C17   C41   S    
C22   H6    S    
C16   C40   S    
O8    C5    A    
O13   C5    A    
C63   H36   S    
C21   C38   S    
C8    C25   S    
C18   H2    S    
C71   H56   S    
O4    C1    A    
C9    C33   S    
O6    V2    S    
C10   C34   S    
O18   V2    S    
C58   H18   S    
C5    C28   S    
C65   C66   S    
H16   C39   S    
C4    C29   S    
C12   C20   S    
C13   C21   S    
O7    C6    A    
C12   C63   S    
C16   C47   S    
C15   C23   S    
C71   C72   S    
C64   H34   S    
O9    C1    A    
C2    C31   S    
C24   H8    S    
C16   C24   S    
C69   H51   S    
O1    C4    A    
C66   H38   S    
C72   H53   S    
O2    C3    A    
O13   V3    S    
C11   C35   S    
O14   V4    S    
C20   C44   S    
C22   C37   S    
C69   C70   S    
C58   H19   S    
C43   C51   S    
C60   H22   S    
H12   C35   S    
C42   C50   S    
C16   C71   S    
C61   H31   S    
C9    C17   S    
O14   C6    A    
O20   V2    S    
C40   C48   S    
C59   H26   S    
C35   C43   S    
C68   H42   S    
O5    C8    A    
O10   C2    A    
O6    C7    A    
C28   C52   T    
C9    C57   S    
C63   H35   S    
O3    V4    S    
C6    C27   S    
C14   C22   S    
O4    V3    S    
C37   C45   S    
C71   H55   S    
C62   H28   S    
C12   C36   S    
C1    C32   S    
C58   H17   S    
C68   H43   S    
C19   C36   S    
C3    C30   S    
C44   C52   S    
H11   C36   S    
C62   H29   S    
H10   C33   S    
C23   C47   S    
C22   C46   S    
