data_mof_unit_13534.cif
_audit_creation_date              2012-12-10T16:59:15-0500
_audit_creation_method            fapswitch 2.2
_symmetry_space_group_name_H-M    P1
_symmetry_Int_Tables_number       1
_space_group_crystal_system       triclinic
_cell_length_a                    7.946359
_cell_length_b                    8.584471
_cell_length_c                    27.639663
_cell_angle_alpha                 95.672702
_cell_angle_beta                  86.656238
_cell_angle_gamma                 92.112838
_cell_volume                      1872.10175789

loop_
_atom_site_label
_atom_site_type_symbol
_atom_type_description
_atom_site_fract_x
_atom_site_fract_y
_atom_site_fract_z
_atom_type_partial_charge
C1    C     C_R   0.543734 0.793704 0.499811 0.957052
C2    C     C_R   0.616807 0.693141 0.131013 -0.060618
C3    C     C_R   0.520373 0.527998 0.646210 -0.130703
C4    C     C_R   0.500648 0.521882 0.353789 -0.134700
C5    C     C_R   0.638350 0.696149 0.028299 -0.001573
C6    C     C_R   0.487329 0.437135 0.969889 0.000226
C7    C     C_R   0.468944 0.447117 0.021467 0.059061
C8    C     C_R   0.660579 0.683510 0.976586 0.055989
C9    C     C_R   0.551614 0.570688 0.050156 0.042519
C10   C     C_R   0.574189 0.562337 0.948081 0.044732
C11   C     C_R   0.689115 0.831622 0.059668 0.087231
C12   C     C_R   0.456407 0.206623 0.501540 0.957363
C13   C     C_R   0.429487 0.304960 0.938437 0.085895
C14   C     C_R   0.687651 0.822458 0.109933 -0.163762
C15   C     C_R   0.416088 0.321131 0.889148 -0.159746
C16   C     C_R   0.504165 0.506087 0.593634 0.881840
C17   C     C_R   0.498329 0.502232 0.406185 0.890037
C18   C     C_R   0.776049 0.781042 0.951999 -0.253631
C19   C     C_R   0.358198 0.344905 0.045678 -0.259996
C20   C     C_2   0.567102 0.956798 0.501252 -0.400793
C21   C     C_2   0.433072 0.044215 0.502749 -0.401617
C22   C     C_R   0.670562 0.684262 0.823430 0.516155
C23   C     C_R   0.578633 0.564775 0.896869 -0.066739
C24   C     C_R   0.454554 0.445052 0.173987 0.505340
C25   C     C_R   0.484506 0.459570 0.818339 0.531540
C26   C     C_R   0.606165 0.690222 0.181765 0.527572
C27   C     C_R   0.671061 0.470772 0.715662 -0.119433
C28   C     C_R   0.664724 0.577032 0.280067 -0.120460
C29   C     C_R   0.645725 0.447122 0.666204 -0.322517
C30   C     C_R   0.655244 0.561176 0.329690 -0.314351
C31   C     C_R   0.427978 0.641640 0.675815 0.461155
C32   C     C_R   0.354071 0.503189 0.327134 0.459897
C33   C     C_R   0.450597 0.660785 0.725927 -0.211407
C34   C     C_R   0.541631 0.570699 0.101536 -0.064869
C35   C     C_R   0.362463 0.536906 0.278560 -0.213521
C36   C     C_R   0.571431 0.575352 0.745633 0.265462
C37   C     C_R   0.518202 0.563944 0.254155 0.248277
C38   C     C_3   0.383241 0.890194 0.656363 0.039082
C39   C     C_3   0.266830 0.000846 0.688342 -0.326881
C40   C     C_3   0.315579 0.171635 0.682607 -0.857254
C41   C     C_3   0.169177 0.291606 0.323231 0.033046
C42   C     C_3   0.991607 0.285612 0.304278 -0.367944
C43   C     C_3   0.950507 0.127485 0.276488 -0.844562
C44   C     C_3   0.015840 0.344393 0.448590 -0.134379
C45   C     C_R   0.674877 0.680670 0.874011 -0.011366
C46   C     C_3   0.949554 0.178240 0.456397 -0.387271
C47   C     C_3   0.051756 0.049253 0.427589 -0.941846
C48   C     C_3   0.980583 0.641708 0.554405 -0.161538
C49   C     C_3   0.058970 0.806782 0.556063 -0.339847
C50   C     C_3   0.954795 0.923051 0.589748 -0.963334
C51   C     C_3   0.701209 0.997676 0.044834 -0.437295
C52   C     C_3   0.872251 0.081891 0.053822 -0.365183
C53   C     C_3   0.871722 0.247976 0.038497 -0.874514
C54   C     C_3   0.427039 0.136542 0.951067 -0.437131
C55   C     C_3   0.256780 0.048340 0.944296 -0.368927
C56   C     C_R   0.453031 0.449272 0.123653 0.000131
C57   C     C_3   0.264465 0.883548 0.960190 -0.874409
C58   C     C_R   0.778674 0.784336 0.901803 -0.165081
C59   C     C_R   0.357415 0.339616 0.095518 -0.171764
C60   C     C_R   0.488161 0.450246 0.868336 -0.058659
H1    H     H_    0.372835 0.740012 0.749675 0.149447
H2    H     H_    0.366579 0.223737 0.865696 0.189923
H3    H     H_    0.866633 0.855529 0.971253 0.166691
H4    H     H_    0.269542 0.268058 0.026554 0.170218
H5    H     H_    0.695200 0.004295 0.500891 0.180600
H6    H     H_    0.304879 0.996679 0.503921 0.186245
H7    H     H_    0.389058 0.923374 0.618474 0.157317
H8    H     H_    0.514726 0.907604 0.668778 0.129116
H9    H     H_    0.134527 0.978291 0.678389 0.241308
H10   H     H_    0.274133 0.979667 0.727133 0.230985
H11   H     H_    0.227329 0.249127 0.705448 0.292269
H12   H     H_    0.248564 0.528317 0.258639 0.163097
H13   H     H_    0.445284 0.197352 0.694591 0.288242
H14   H     H_    0.309592 0.196376 0.644044 0.242644
H15   H     H_    0.177143 0.205229 0.349942 0.160960
H16   H     H_    0.260363 0.252373 0.292471 0.180326
H17   H     H_    0.982012 0.378930 0.279558 0.226977
H18   H     H_    0.896966 0.306503 0.335140 0.225684
H19   H     H_    0.039733 0.105842 0.244256 0.276630
H20   H     H_    0.820498 0.127152 0.263742 0.286621
H21   H     H_    0.958127 0.031700 0.300416 0.256351
H22   H     H_    0.017442 0.035878 0.389081 0.261750
H23   H     H_    0.863668 0.867196 0.884902 0.187001
H24   H     H_    0.189370 0.073510 0.429466 0.264863
H25   H     H_    0.019964 0.935782 0.442466 0.268959
H26   H     H_    0.949010 0.161223 0.495780 0.239002
H27   H     H_    0.820902 0.163058 0.443182 0.253921
H28   H     H_    0.974653 0.376430 0.413476 0.186834
H29   H     H_    0.151416 0.342508 0.446155 0.247563
H30   H     H_    0.831822 0.939774 0.574221 0.257556
H31   H     H_    0.930462 0.879251 0.626049 0.277173
H32   H     H_    0.023825 0.038033 0.593969 0.267046
H33   H     H_    0.186686 0.805833 0.569748 0.269417
H34   H     H_    0.276944 0.252520 0.112031 0.188204
H35   H     H_    0.066323 0.845998 0.518955 0.223417
H36   H     H_    0.847346 0.656024 0.552631 0.242740
H37   H     H_    0.003200 0.589525 0.588582 0.183541
H38   H     H_    0.857228 0.245084 0.998676 0.260150
H39   H     H_    0.766837 0.313203 0.058343 0.278434
H40   H     H_    0.990961 0.311697 0.047722 0.251423
H41   H     H_    0.898096 0.090263 0.093034 0.229405
H42   H     H_    0.975875 0.016711 0.033295 0.224275
H43   H     H_    0.671047 0.002404 0.006867 0.208312
H44   H     H_    0.601242 0.065784 0.066431 0.217872
H45   H     H_    0.770519 0.576519 0.348920 0.199064
H46   H     H_    0.368958 0.820372 0.939482 0.278282
H47   H     H_    0.284279 0.888701 0.999787 0.260450
H48   H     H_    0.145874 0.816534 0.952448 0.251553
H49   H     H_    0.153612 0.111860 0.965590 0.225664
H50   H     H_    0.225980 0.037362 0.905433 0.228624
H51   H     H_    0.524789 0.073308 0.927019 0.215034
H52   H     H_    0.466490 0.129225 0.988047 0.209093
H53   H     H_    0.721677 0.362879 0.643668 0.183861
H54   H     H_    0.786434 0.597827 0.261720 0.164255
H55   H     H_    0.762861 0.402791 0.731141 0.155862
H56   H     H_    0.727806 0.923967 0.133368 0.194128
N1    N     N_R   0.574373 0.575431 0.797076 -0.342375
N2    N     N_R   0.527995 0.566087 0.202231 -0.337160
N3    N     N_2   0.950320 0.457960 0.486880 -0.071981
N4    N     N_2   0.049680 0.542040 0.513120 -0.069320
O1    O     O_R   0.389250 0.738570 0.503220 -0.631175
O2    O     O_2   0.384127 0.320108 0.194488 -0.593376
O3    O     O_2   0.670750 0.811661 0.210442 -0.579248
O4    O     O_2   0.392809 0.352818 0.790897 -0.582002
O5    O     O_3   0.316963 0.734193 0.655738 -0.640199
O6    O     O_3   0.205381 0.442477 0.347168 -0.656608
O7    O     O_R   0.610750 0.261430 0.496780 -0.630234
O8    O     O_R   0.678390 0.711630 0.494810 -0.641749
O9    O     O_R   0.321610 0.288370 0.505190 -0.643431
O10   O     O_R   0.355440 0.513440 0.575450 -0.583720
O11   O     O_R   0.644560 0.486560 0.424550 -0.632661
O12   O     O_R   0.644590 0.486500 0.567040 -0.663920
O13   O     O_R   0.355410 0.513500 0.432960 -0.605571
O14   O     O_2   0.761354 0.794452 0.800814 -0.568565
Zn1   Zn    Zn3+2 0.306940 0.517990 0.505620 0.943538
Zn2   Zn    Zn3+2 0.693060 0.482010 0.494380 0.913395

loop_
_geom_bond_atom_site_label_1
_geom_bond_atom_site_label_2
_ccdc_geom_bond_type
C22   N1    A    
C34   C56   A    
C23   C45   A    
C40   H11   S    
C21   H6    S    
C17   O11   A    
C15   C60   A    
C54   C55   S    
O10   Zn1   S    
C1    O8    A    
C48   N4    S    
C12   O7    A    
C53   H39   S    
C48   H37   S    
C52   H42   S    
C22   O14   S    
C47   H25   S    
C35   C37   A    
C13   C54   S    
O8    Zn2   S    
C39   H10   S    
C38   C39   S    
C11   C14   A    
C14   H56   S    
C18   H3    S    
C27   C29   A    
C43   H19   S    
C33   C36   A    
C40   H13   S    
C41   C42   S    
C47   H22   S    
C32   O6    S    
C3    C29   A    
C57   H48   S    
O9    Zn1   S    
C50   H30   S    
C25   C60   A    
C37   N2    S    
C40   H14   S    
C6    C13   A    
C31   C33   A    
C59   H34   S    
C16   O10   A    
C2    C34   A    
C57   H46   S    
C55   H49   S    
C2    C14   A    
C44   C46   S    
C53   H40   S    
C23   C60   A    
C45   C58   A    
C52   H41   S    
C12   O9    A    
C51   C52   S    
C32   C35   A    
C20   H5    S    
O7    Zn2   S    
O11   Zn2   S    
C39   C40   S    
C44   N3    S    
C19   C59   A    
C43   H20   S    
C12   C21   S    
C8    C18   A    
C5    C9    A    
C41   H15   S    
C19   H4    S    
O12   Zn2   S    
C53   H38   S    
C24   O2    S    
C39   H9    S    
C54   H52   S    
C2    C26   A    
C47   H24   S    
C49   H35   S    
C3    C31   A    
C36   N1    S    
C4    C32   A    
C28   H54   S    
C4    C17   S    
C50   H32   S    
C48   C49   S    
C57   H47   S    
C38   H8    S    
C35   H12   S    
C42   H18   S    
C7    C19   A    
C55   C57   S    
C55   H50   S    
C17   O13   A    
C9    C34   A    
C10   C23   A    
C42   C43   S    
C31   O5    S    
C38   H7    S    
C38   O5    S    
C52   C53   S    
C46   H27   S    
C7    C9    A    
C29   H53   S    
C46   C47   S    
C1    C20   S    
C48   H36   S    
C41   O6    S    
C8    C10   A    
C26   N2    A    
C25   N1    A    
C6    C10   A    
C5    C8    A    
N3    N4    D    
C5    C11   A    
C6    C7    A    
C27   C36   A    
C24   C56   A    
C24   N2    A    
N3    Zn2   S    
C56   C59   A    
N4    Zn1   S    
C13   C15   A    
C51   H44   S    
C30   H45   S    
C58   H23   S    
C41   H16   S    
C28   C37   A    
C43   H21   S    
C28   C30   A    
C15   H2    S    
C18   C58   A    
C54   H51   S    
C16   O12   A    
C25   O4    S    
C1    O1    A    
C11   C51   S    
C3    C16   S    
C50   H31   S    
C22   C45   A    
C20   C21   D    
O1    Zn1   S    
C42   H17   S    
C33   H1    S    
C49   C50   S    
C26   O3    S    
O13   Zn1   S    
C49   H33   S    
C44   H28   S    
C51   H43   S    
C4    C30   A    
C44   H29   S    
C46   H26   S    
C27   H55   S    
