data_mof_unit_27360.cif
_audit_creation_date              2012-12-10T17:45:27-0500
_audit_creation_method            fapswitch 2.2
_symmetry_space_group_name_H-M    P1
_symmetry_Int_Tables_number       1
_space_group_crystal_system       triclinic
_cell_length_a                    11.539984
_cell_length_b                    10.740966
_cell_length_c                    9.926413
_cell_angle_alpha                 89.432255
_cell_angle_beta                  89.480647
_cell_angle_gamma                 92.205241
_cell_volume                      1229.35809384

loop_
_atom_site_label
_atom_site_type_symbol
_atom_type_description
_atom_site_fract_x
_atom_site_fract_y
_atom_site_fract_z
_atom_type_partial_charge
C1    C     C_R   0.508379 0.260398 0.501525 0.860374
C2    C     C_R   0.479319 0.872141 0.503086 -0.104607
C3    C     C_R   0.342839 0.340865 0.142653 -0.228605
C4    C     C_R   0.282044 0.499249 0.500509 0.889321
C5    C     C_R   0.258877 0.267979 0.075380 0.208547
C6    C     C_R   0.256524 0.272132 0.934110 0.154345
C7    C     C_R   0.340849 0.344014 0.863507 -0.250150
C8    C     C_R   0.422183 0.422178 0.929532 0.115076
C9    C     C_R   0.422463 0.421693 0.073688 0.089054
C10   C     C_R   0.576090 0.573633 0.067736 0.116108
C11   C     C_R   0.574826 0.573497 0.925416 -0.100180
C12   C     C_R   0.506596 0.049871 0.877111 -0.178460
C13   C     C_R   0.490187 0.739189 0.500319 0.877699
C14   C     C_R   0.717955 0.500326 0.499497 0.910845
C15   C     C_1   0.161535 0.498614 0.501300 -0.186778
C16   C     C_1   0.059326 0.498449 0.500685 0.003121
C17   C     C_1   0.940644 0.498864 0.499344 0.002424
C18   C     C_1   0.838453 0.499544 0.498720 -0.197653
C19   C     C_R   0.539009 0.111504 0.757671 -0.188715
C20   C     C_3   0.188896 0.080011 0.832352 -0.771762
C21   C     C_3   0.214578 0.102134 0.239617 -0.798001
C22   C     C_R   0.445394 0.935283 0.872592 0.146650
C23   C     C_R   0.426927 0.878930 0.748002 -0.174534
C24   C     C_R   0.470526 0.935563 0.627208 0.054683
C25   C     C_R   0.509888 0.060000 0.630695 0.089877
C26   C     C_R   0.516849 0.126987 0.506479 -0.108275
C27   C     C_R   0.512964 0.064543 0.383715 -0.229944
C28   C     C_R   0.498924 0.937555 0.382496 -0.219922
H1    H     H_    0.521133 0.113550 0.287917 0.172595
H2    H     H_    0.261740 0.075742 0.758940 0.249211
H3    H     H_    0.110496 0.034902 0.787185 0.238428
H4    H     H_    0.209464 0.028076 0.925837 0.269409
H5    H     H_    0.419934 0.930350 0.076360 0.166240
H6    H     H_    0.446896 0.793156 0.006152 0.193212
H7    H     H_    0.720605 0.598329 0.180092 0.224449
H8    H     H_    0.622126 0.713083 0.195554 0.217654
H9    H     H_    0.099845 0.169169 0.098574 0.259215
H10   H     H_    0.140134 0.054084 0.292579 0.243924
H11   H     H_    0.272813 0.142699 0.317330 0.245038
H12   H     H_    0.339985 0.336113 0.756751 0.222130
H13   H     H_    0.261262 0.032377 0.180461 0.244862
H14   H     H_    0.635752 0.633466 0.869180 0.164214
H15   H     H_    0.589794 0.197450 0.767193 0.180548
H16   H     H_    0.526759 0.093094 0.972647 0.136984
H17   H     H_    0.376231 0.792120 0.747093 0.175476
H18   H     H_    0.504576 0.890639 0.286884 0.158465
H19   H     H_    0.341459 0.334386 0.249349 0.227336
H20   H     H_    0.140166 0.256201 0.777838 0.230403
N1    N     N_R   0.498930 0.498800 0.142780 -0.119987
N2    N     N_R   0.498900 0.498720 0.857170 -0.129520
N3    N     N_2   0.166667 0.208276 0.862033 -0.322456
N4    N     N_3   0.401643 0.874673 0.992996 -0.470884
N5    N     N_3   0.661797 0.652857 0.129737 -0.475617
N6    N     N_2   0.172473 0.198050 0.151166 -0.299553
O1    O     O_R   0.500000 0.316780 0.614690 -0.646833
O2    O     O_R   0.499990 0.316750 0.385360 -0.638809
O3    O     O_R   0.334450 0.500030 0.614670 -0.636127
O4    O     O_R   0.334440 0.500000 0.385330 -0.620900
O5    O     O_R   0.500010 0.683250 0.614640 -0.624674
O6    O     O_R   0.500000 0.683220 0.385310 -0.632537
O7    O     O_R   0.665560 0.500000 0.614670 -0.609206
O8    O     O_R   0.665550 0.499970 0.385330 -0.623960
Zn1   Zn    Zn3+2 0.500010 0.500020 0.653130 0.925298
Zn2   Zn    Zn3+2 0.499990 0.499980 0.346870 0.925433

loop_
_geom_bond_atom_site_label_1
_geom_bond_atom_site_label_2
_ccdc_geom_bond_type
C4    O3    A    
O8    Zn2   S    
C7    H12   S    
O2    Zn2   S    
C6    C7    A    
C23   H17   S    
C12   C22   A    
C6    N3    S    
C27   H1    S    
C14   C18   S    
O5    Zn1   S    
C21   H11   S    
O6    Zn2   S    
C23   C24   A    
C4    C15   S    
O7    Zn1   S    
C17   C18   T    
C1    O1    A    
C7    C8    A    
C12   H16   S    
N1    Zn2   S    
C20   H2    S    
H5    N4    S    
O4    Zn2   S    
N2    Zn1   S    
C2    C13   S    
C28   H18   S    
C26   C27   A    
C21   N6    S    
O1    Zn1   S    
C21   H13   S    
H9    N6    S    
C12   C19   A    
C3    H19   S    
C3    C9    A    
C1    O2    A    
C19   H15   S    
O3    Zn1   S    
C20   N3    S    
C2    C24   A    
C1    C26   S    
C19   C25   A    
H7    N5    S    
C10   C11   A    
C15   C16   T    
C14   O8    A    
C8    N2    A    
C5    N6    S    
C14   O7    A    
C9    N1    A    
C24   C25   A    
C11   H14   S    
C22   N4    S    
C20   H4    S    
C4    O4    A    
C27   C28   A    
C5    C6    A    
C10   N5    S    
C11   N2    A    
C22   C23   A    
C16   C17   S    
C2    C28   A    
H8    N5    S    
C25   C26   A    
C10   N1    A    
H6    N4    S    
H20   N3    S    
C21   H10   S    
C13   O6    A    
C8    C9    A    
C3    C5    A    
C20   H3    S    
C13   O5    A    
