data_mof_unit_43331.cif
_audit_creation_date              2012-12-11T17:06:28-0500
_audit_creation_method            fapswitch 2.2
_symmetry_space_group_name_H-M    P1
_symmetry_Int_Tables_number       1
_space_group_crystal_system       triclinic
_cell_length_a                    6.965807
_cell_length_b                    14.638299
_cell_length_c                    15.892884
_cell_angle_alpha                 90.384981
_cell_angle_beta                  90.621949
_cell_angle_gamma                 89.57175
_cell_volume                      1620.3822451

loop_
_atom_site_label
_atom_site_type_symbol
_atom_type_description
_atom_site_fract_x
_atom_site_fract_y
_atom_site_fract_z
_atom_type_partial_charge
O1    O     O_R   0.494400 0.415450 0.412630 -0.540703
O2    O     O_R   0.823940 0.405730 0.586760 -0.545125
O3    O     O_R   0.994240 0.584550 0.587370 -0.543898
C1    C     C_R   0.656930 0.385885 0.616986 0.734996
O4    O     O_R   0.824110 0.404430 0.413240 -0.545121
O5    O     O_R   0.994420 0.583240 0.412620 -0.540862
C2    C     C_R   0.654908 0.382069 0.384335 0.692516
O6    O     O_R   0.494230 0.416760 0.587380 -0.526536
O7    O     O_3   0.660800 0.558670 0.500000 -0.370287
V1    V     V_3+5 0.935650 0.489120 0.500000 1.437909
O8    O     O_R   0.324140 0.594270 0.413240 -0.544105
C3    C     C_R   0.154086 0.616258 0.384676 0.713472
O9    O     O_R   0.323960 0.595570 0.586760 -0.529075
C4    C     C_R   0.155789 0.614978 0.617077 0.771565
V2    V     V_3+5 0.435660 0.510880 0.500000 1.454319
O10   O     O_3   0.160640 0.441330 0.500000 -0.376876
C5    C     C_3   0.956075 0.713399 0.729412 -0.143843
C6    C     C_3   0.052838 0.705971 0.817605 -0.063200
H1    H     H_    0.811020 0.688599 0.711349 0.157306
C7    C     C_3   0.120543 0.806044 0.811986 -0.162005
C8    C     C_3   0.027311 0.813089 0.723614 -0.004251
C9    C     C_3   0.216284 0.780909 0.682328 -0.236955
C10   C     C_3   0.308320 0.771882 0.771096 -0.029194
C11   C     C_3   0.240405 0.672253 0.776693 -0.103148
C12   C     C_3   0.146156 0.681375 0.688830 -0.109492
H2    H     H_    0.285182 0.811310 0.626527 0.143586
C13   C     C_R   0.252500 0.740310 0.180988 0.001693
C14   C     C_R   0.117490 0.811806 0.180412 -0.137831
C15   C     C_R   0.976498 0.811787 0.244450 0.337631
C16   C     C_R   0.986680 0.745915 0.310007 -0.255164
H3    H     H_    0.881511 0.747727 0.359720 0.130523
C17   C     C_R   0.139265 0.682342 0.314820 -0.116552
C18   C     C_R   0.265415 0.679450 0.247262 0.073444
C19   C     C_3   0.478417 0.672485 0.242862 -0.434463
C20   C     C_3   0.464598 0.737585 0.167640 -0.201637
H4    H     H_    0.526205 0.601492 0.228968 0.203477
H5    H     H_    0.549553 0.703920 0.298777 0.168128
H6    H     H_    0.533518 0.804741 0.178932 0.150634
C21   C     C_R   0.501267 0.254778 0.686273 0.068687
C22   C     C_R   0.651507 0.316252 0.683573 -0.099719
C23   C     C_R   0.799975 0.305238 0.743633 -0.132502
H7    H     H_    0.921550 0.350710 0.743812 0.133582
C24   C     C_R   0.785254 0.239237 0.807843 -0.127445
H8    H     H_    0.896439 0.236010 0.855837 0.139858
C25   C     C_R   0.623622 0.181457 0.812593 -0.114330
C26   C     C_R   0.490024 0.186700 0.746074 0.103152
C27   C     C_3   0.275055 0.189846 0.742632 -0.213022
C28   C     C_3   0.291033 0.269835 0.681763 -0.436899
H9    H     H_    0.207493 0.207292 0.803639 0.117032
H10   H     H_    0.249251 0.336420 0.710391 0.181991
H11   H     H_    0.233371 0.258141 0.617056 0.195197
C29   C     C_R   0.470254 0.292392 0.275296 0.098259
C30   C     C_R   0.643078 0.310178 0.318166 -0.080751
C31   C     C_R   0.802543 0.254318 0.298036 -0.171094
H12   H     H_    0.937227 0.261989 0.331887 0.132206
C32   C     C_R   0.791687 0.189449 0.232021 -0.137015
H13   H     H_    0.918356 0.149289 0.217483 0.129701
C33   C     C_R   0.621314 0.178788 0.183961 -0.079676
C34   C     C_R   0.459951 0.228995 0.209837 0.025617
C35   C     C_3   0.319369 0.286728 0.161279 -0.189916
C36   C     C_3   0.331614 0.356326 0.233237 -0.437296
H14   H     H_    0.176324 0.253915 0.155855 0.130455
H15   H     H_    0.195609 0.362983 0.268713 0.163639
H16   H     H_    0.398403 0.422595 0.216835 0.191353
O11   O     O_R   0.771650 0.079500 0.908680 -0.543770
O12   O     O_R   0.441690 0.091800 0.082800 -0.550492
O13   O     O_R   0.271460 0.912980 0.083410 -0.546354
C37   C     C_R   0.610875 0.113733 0.112027 0.691960
O14   O     O_R   0.441930 0.090510 0.909280 -0.538277
O15   O     O_R   0.271690 0.911670 0.908660 -0.524165
C38   C     C_R   0.610244 0.113066 0.880846 0.714917
O16   O     O_R   0.771410 0.080810 0.083440 -0.542419
O17   O     O_3   0.605100 0.937580 0.996050 -0.354429
V3    V     V_3+5 0.330220 0.007110 0.996030 1.517670
O18   O     O_R   0.941980 0.900620 0.909250 -0.531346
C39   C     C_R   0.110565 0.877922 0.880845 0.824965
O19   O     O_R   0.941740 0.901920 0.082770 -0.513300
C40   C     C_R   0.111074 0.880356 0.111900 0.775291
V4    V     V_3+5 0.830220 0.985300 0.996000 1.547003
O20   O     O_3   0.105210 0.054870 0.996020 -0.384340
C41   C     C_2   0.970199 0.661655 0.893693 0.888938
O21   O     O_2   0.903108 0.584949 0.887939 -0.545973
O22   O     O_R   0.976663 0.707032 0.971256 -0.658678
H17   H     H_    0.928594 0.668259 0.019026 0.300733
C42   C     C_2   0.513369 0.695117 0.083781 0.858542
O23   O     O_2   0.480339 0.737816 0.019351 -0.513497
O24   O     O_R   0.595948 0.607840 0.079299 -0.656764
H18   H     H_    0.619958 0.586940 0.019442 0.356508
C43   C     C_2   0.194142 0.107606 0.698279 0.846000
O25   O     O_2   0.042621 0.114666 0.659260 -0.556187
O26   O     O_R   0.298066 0.025642 0.696716 -0.641598
H19   H     H_    0.239886 0.979022 0.656868 0.298792
C44   C     C_2   0.394006 0.320480 0.078268 0.826680
O27   O     O_2   0.548462 0.359502 0.074762 -0.539673
O28   O     O_R   0.285433 0.305781 0.005035 -0.661852
H20   H     H_    0.350125 0.330048 0.952955 0.292923
C45   C     C_2   0.905286 0.888049 0.687950 0.774934
O29   O     O_2   0.828602 0.877897 0.619027 -0.550334
O30   O     O_R   0.879646 0.969014 0.733142 -0.664294
H21   H     H_    0.781743 0.011093 0.705491 0.338431
C46   C     C_2   0.497917 0.808542 0.797876 0.801539
O31   O     O_2   0.612526 0.760424 0.835937 -0.547391
O32   O     O_R   0.532357 0.901149 0.787370 -0.641919
H22   H     H_    0.635422 0.923527 0.827371 0.319072
C47   C     C_2   0.356886 0.592392 0.807851 0.814245
O33   O     O_2   0.415901 0.591997 0.880465 -0.519327
O34   O     O_R   0.394808 0.518394 0.754580 -0.678911
H23   H     H_    0.473238 0.468829 0.783402 0.287338
O35   O     O_3   0.837904 0.879748 0.245059 -0.655225
H24   H     H_    0.753868 0.871193 0.294309 0.282092

loop_
_geom_bond_atom_site_label_1
_geom_bond_atom_site_label_2
_ccdc_geom_bond_type
O12   C37   A    
O24   H18   S    
C44   O27   D    
O11   V4    S    
C25   C38   S    
C19   H5    S    
C27   C43   S    
O17   V3    S    
O28   H20   S    
C1    O6    A    
C45   O29   D    
C27   H9    S    
O19   C40   A    
C13   C18   A    
C47   O34   S    
C46   O31   D    
C6    C11   S    
C15   O35   S    
C14   C15   A    
O16   V4    S    
C29   C36   S    
O5    C3    A    
C16   H3    S    
V2    O10   S    
O12   V3    S    
C6    C41   S    
C32   H13   S    
C7    C39   S    
C35   H14   S    
C19   C20   S    
C23   H7    S    
O14   C38   A    
C41   O22   S    
C31   H12   S    
O8    V2    S    
C28   H11   S    
C1    C22   S    
C9    C12   S    
O15   V3    S    
O34   H23   S    
O1    V2    S    
C43   O26   S    
C14   C40   S    
O7    V1    S    
C19   H4    S    
C35   C44   S    
C28   H10   S    
C34   C35   S    
C46   O32   S    
V3    O20   S    
C8    C9    S    
C3    C17   S    
C23   C24   A    
O13   C40   A    
C45   O30   S    
C18   C19   S    
O19   V4    S    
C31   C32   A    
C42   O24   S    
C27   C28   S    
C20   H6    S    
C11   C12   S    
O26   H19   S    
O4    C2    A    
C13   C20   S    
C33   C34   A    
C42   O23   D    
C41   O21   D    
C35   C36   S    
C36   H16   S    
O2    C1    A    
O18   C39   A    
C15   C16   A    
C29   C34   A    
C8    C45   S    
O22   H17   S    
C7    C10   S    
C37   O16   A    
C36   H15   S    
C5    C6    S    
O17   V4    S    
O14   V3    S    
O13   V3    S    
C24   C25   A    
O3    C4    A    
C21   C26   A    
C33   C37   S    
C22   C23   A    
O6    V2    S    
O9    V2    S    
C24   H8    S    
O15   C39   A    
C2    C30   S    
O2    V1    S    
C21   C22   A    
C29   C30   A    
C26   C27   S    
O1    C2    A    
O5    V1    S    
O8    C3    A    
C30   C31   A    
C47   O33   D    
O30   H21   S    
C5    C12   S    
C17   C18   A    
O7    V2    S    
O4    V1    S    
O3    V1    S    
O11   C38   A    
O35   H24   S    
C16   C17   A    
C20   C42   S    
C10   C46   S    
C5    H1    S    
C32   C33   A    
C6    C7    S    
C4    C12   S    
C5    C8    S    
C10   C11   S    
V4    O20   S    
C25   C26   A    
C7    C8    S    
C44   O28   S    
C9    H2    S    
O32   H22   S    
C9    C10   S    
V1    O10   S    
C11   C47   S    
C43   O25   D    
O9    C4    A    
O18   V4    S    
C21   C28   S    
C13   C14   A    
