data_mof_unit_63610.cif
_audit_creation_date              2012-12-10T18:52:37-0500
_audit_creation_method            fapswitch 2.2
_symmetry_space_group_name_H-M    P1
_symmetry_Int_Tables_number       1
_space_group_crystal_system       triclinic
_cell_length_a                    25.515464
_cell_length_b                    25.518065
_cell_length_c                    59.908004
_cell_angle_alpha                 90.039406
_cell_angle_beta                  90.044139
_cell_angle_gamma                 89.907379
_cell_volume                      39006.3453186

loop_
_atom_site_label
_atom_site_type_symbol
_atom_type_description
_atom_site_fract_x
_atom_site_fract_y
_atom_site_fract_z
_atom_type_partial_charge
C1    C     C_R   0.999897 0.500037 0.335145 -0.003070
C2    C     C_1   0.860344 0.639282 0.249969 -0.126112
C3    C     C_R   0.499935 0.999898 0.452698 -0.049848
C4    C     C_R   0.986689 0.545758 0.059330 -0.025267
C5    C     C_R   0.006621 0.453090 0.940869 -0.023631
C6    C     C_R   0.013434 0.454521 0.059292 -0.025180
C7    C     C_R   0.993478 0.547471 0.940860 -0.023404
C8    C     C_R   0.484033 0.044747 0.559348 -0.025529
C9    C     C_R   0.510595 0.953477 0.440774 -0.024314
C10   C     C_R   0.515358 0.954891 0.559317 -0.025420
C11   C     C_R   0.489307 0.046320 0.440798 -0.024100
C12   C     C_R   0.500323 0.999949 0.023659 0.074591
C13   C     C_1   0.860355 0.639278 0.750027 -0.125902
C14   C     C_R   0.500385 0.999828 0.976453 0.074437
C15   C     C_R   0.999687 0.500056 0.523574 0.074441
C16   C     C_R   0.999684 0.499846 0.476363 0.074560
C17   C     C_R   0.973060 0.591009 0.047625 -0.132227
C18   C     C_R   0.012470 0.406127 0.952579 -0.130975
C19   C     C_R   0.027168 0.409337 0.047574 -0.132120
C20   C     C_R   0.987545 0.594438 0.952530 -0.131152
C21   C     C_R   0.467919 0.089245 0.547655 -0.132027
C22   C     C_R   0.521066 0.907272 0.452457 -0.131380
C23   C     C_R   0.531508 0.910419 0.547616 -0.131987
C24   C     C_1   0.139645 0.360722 0.249972 -0.125708
C25   C     C_R   0.478697 0.092503 0.452483 -0.131411
C26   C     C_R   0.999918 0.500041 0.164752 -0.003773
C27   C     C_R   0.000083 0.500017 0.835287 -0.006479
C28   C     C_R   0.499900 0.999952 0.664733 -0.003611
C29   C     C_R   0.500085 0.999937 0.335300 -0.006090
C30   C     C_R   0.487240 0.046653 0.488191 0.044193
C31   C     C_R   0.514477 0.953735 0.511901 0.043804
C32   C     C_R   0.512401 0.953093 0.488176 0.044228
C33   C     C_R   0.485061 0.046006 0.511919 0.043841
C34   C     C_R   0.991522 0.547817 0.988222 0.043837
C35   C     C_1   0.639642 0.139338 0.749982 -0.129957
C36   C     C_R   0.011669 0.453358 0.011919 0.043488
C37   C     C_R   0.008705 0.452726 0.988234 0.043932
C38   C     C_R   0.988602 0.547153 0.011928 0.043427
C39   C     C_R   0.499872 0.999885 0.476455 0.073497
C40   C     C_R   0.499740 0.999853 0.523642 0.074067
C41   C     C_R   0.000129 0.500285 0.976502 0.074454
C42   C     C_R   0.000117 0.500225 0.023653 0.075305
C43   C     C_R   0.477664 0.092775 0.475661 -0.209558
C44   C     C_R   0.531314 0.909825 0.524425 -0.209669
C45   C     C_R   0.521941 0.906963 0.475647 -0.209449
C46   C     C_1   0.360357 0.860663 0.250017 -0.129932
C47   C     C_R   0.468195 0.089909 0.524453 -0.209524
C48   C     C_R   0.986705 0.594677 0.975714 -0.210998
C49   C     C_R   0.026465 0.408730 0.024386 -0.211283
C50   C     C_R   0.013328 0.405868 0.975775 -0.210909
C51   C     C_R   0.973859 0.591753 0.024420 -0.211028
C52   C     C_R   0.547174 0.988157 0.011930 0.043569
C53   C     C_R   0.453111 0.009699 0.988195 0.043678
C54   C     C_R   0.453527 0.011715 0.011930 0.043667
C55   C     C_R   0.547638 0.989964 0.988171 0.043643
C56   C     C_R   0.047108 0.490983 0.511828 0.043629
C57   C     C_1   0.360318 0.860704 0.749967 -0.130010
C58   C     C_R   0.952582 0.510560 0.488097 0.043582
C59   C     C_R   0.952254 0.509066 0.511861 0.043620
C60   C     C_R   0.046761 0.489180 0.488086 0.043656
C61   C     C_R   0.044936 0.488005 0.417216 0.506840
C62   C     C_R   0.953768 0.508501 0.582754 0.505624
C63   C     C_R   0.954529 0.511497 0.417191 0.506973
C64   C     C_R   0.045824 0.492005 0.582725 0.506018
C65   C     C_R   0.546259 0.990817 0.917283 0.505803
C66   C     C_R   0.455322 0.012969 0.082797 0.506428
C67   C     C_R   0.454418 0.008714 0.917307 0.506170
C68   C     C_1   0.639684 0.139294 0.250033 -0.129987
C69   C     C_R   0.545107 0.987138 0.082835 0.506686
C70   C     C_R   0.973775 0.460004 0.370218 -0.103352
C71   C     C_R   0.027349 0.539624 0.629793 -0.100583
C72   C     C_R   0.025773 0.539828 0.370309 -0.103196
C73   C     C_R   0.972579 0.460541 0.629741 -0.100819
C74   C     C_R   0.472219 0.961165 0.870209 -0.100249
C75   C     C_R   0.529666 0.037534 0.129836 -0.100780
C76   C     C_R   0.528096 0.038641 0.870235 -0.100360
C77   C     C_R   0.470683 0.962465 0.129767 -0.100659
C78   C     C_R   0.974323 0.459837 0.346901 -0.210449
C79   C     C_1   0.639655 0.860718 0.250031 -0.126101
C80   C     C_R   0.027055 0.539745 0.653111 -0.211869
C81   C     C_R   0.025340 0.540184 0.346987 -0.210726
C82   C     C_R   0.973015 0.460223 0.653062 -0.211942
C83   C     C_R   0.472427 0.961137 0.846892 -0.212350
C84   C     C_R   0.529224 0.037760 0.153155 -0.211831
C85   C     C_R   0.527671 0.038886 0.846915 -0.212595
C86   C     C_R   0.471057 0.962134 0.153088 -0.211997
C87   C     C_R   0.999755 0.499867 0.382011 0.313908
C88   C     C_R   0.999918 0.500142 0.617989 0.308663
C89   C     C_R   0.500216 0.999845 0.882016 0.306660
C90   C     C_1   0.360345 0.139282 0.749969 -0.126099
C91   C     C_R   0.500186 0.000026 0.118038 0.309663
C92   C     C_R   0.091460 0.476214 0.452345 -0.134407
C93   C     C_R   0.906296 0.515867 0.547650 -0.134526
C94   C     C_R   0.907919 0.523049 0.452327 -0.134677
C95   C     C_R   0.093153 0.484771 0.547559 -0.134521
C96   C     C_R   0.593652 0.982917 0.952392 -0.134123
C97   C     C_R   0.409169 0.025995 0.047653 -0.134290
C98   C     C_R   0.407116 0.016406 0.952469 -0.134132
C99   C     C_R   0.591396 0.974241 0.047698 -0.134587
C100  C     C_R   0.999705 0.499769 0.452584 -0.047946
C101  C     C_1   0.360355 0.139278 0.250028 -0.125700
C102  C     C_R   0.999721 0.500170 0.547356 -0.047900
C103  C     C_R   0.500382 0.999779 0.952675 -0.048280
C104  C     C_R   0.500275 0.000014 0.047436 -0.048079
C105  C     C_R   0.045767 0.488032 0.440671 -0.024712
C106  C     C_R   0.952905 0.508281 0.559296 -0.023941
C107  C     C_R   0.953659 0.511422 0.440652 -0.024791
C108  C     C_R   0.046583 0.492193 0.559262 -0.023957
C109  C     C_R   0.547121 0.991069 0.940740 -0.023730
C110  C     C_R   0.454519 0.012942 0.059340 -0.024299
C111  C     C_R   0.453626 0.008427 0.940768 -0.023788
C112  C     C_R   0.000041 0.499957 0.664874 -0.000508
C113  C     C_1   0.639645 0.860722 0.749973 -0.125712
C114  C     C_R   0.545987 0.987158 0.059372 -0.024347
C115  C     C_R   0.592036 0.974615 0.024502 -0.210493
C116  C     C_R   0.406772 0.016822 0.975664 -0.210826
C117  C     C_R   0.408637 0.025555 0.024475 -0.210573
C118  C     C_R   0.594006 0.982530 0.975577 -0.210484
C119  C     C_R   0.093507 0.484385 0.524365 -0.210635
C120  C     C_R   0.907322 0.522713 0.475520 -0.210196
C121  C     C_R   0.905871 0.516087 0.524466 -0.210311
C122  C     C_R   0.092007 0.476650 0.475522 -0.210317
C123  C     C_R   1.000000 0.500015 0.310611 0.797672
C124  C     C_3   0.211323 0.764030 0.264324 -0.290186
C125  C     C_R   0.000013 0.499984 0.689395 0.797493
C126  C     C_R   0.500001 0.000017 0.810602 0.797168
C127  C     C_R   0.500011 0.999982 0.189404 0.796275
C128  C     C_R   0.999978 0.500002 0.189235 0.805176
C129  C     C_R   0.000022 0.500000 0.810777 0.806498
C130  C     C_R   0.499977 0.999998 0.689229 0.804953
C131  C     C_R   0.500022 0.999994 0.310781 0.806015
C132  C     C_R   0.099838 0.400232 0.249897 0.825742
C133  C     C_R   0.900162 0.599768 0.750103 0.825778
C134  C     C_R   0.900150 0.599777 0.249896 0.826379
C135  C     C_3   0.788707 0.235939 0.735700 -0.290114
C136  C     C_R   0.099850 0.400223 0.750104 0.826409
C137  C     C_R   0.099869 0.599786 0.750108 0.823660
C138  C     C_R   0.900131 0.400214 0.249892 0.823549
C139  C     C_R   0.900146 0.400200 0.750097 0.823580
C140  C     C_R   0.099853 0.599800 0.249902 0.823422
C141  C     C_R   0.599838 0.900232 0.749897 0.825664
C142  C     C_R   0.400162 0.099768 0.250103 0.825687
C143  C     C_R   0.400150 0.099777 0.749896 0.826313
C144  C     C_R   0.599850 0.900223 0.250103 0.826316
C145  C     C_R   0.599869 0.099785 0.250107 0.823460
C146  C     C_3   0.788073 0.236681 0.264752 -0.290556
C147  C     C_R   0.400131 0.900214 0.749892 0.823397
C148  C     C_R   0.400146 0.900200 0.250097 0.823337
C149  C     C_R   0.599853 0.099800 0.749903 0.823309
C150  C     C_3   0.228369 0.796027 0.243399 -0.293141
C151  C     C_3   0.771611 0.203993 0.756629 -0.293036
C152  C     C_3   0.771919 0.203682 0.243950 -0.292758
C153  C     C_3   0.228185 0.796216 0.756252 -0.292656
C154  C     C_3   0.227891 0.203482 0.755479 -0.292957
C155  C     C_3   0.772110 0.796519 0.244524 -0.293134
C156  C     C_3   0.772072 0.796483 0.755603 -0.293049
C157  C     C_3   0.211686 0.763559 0.735401 -0.290446
C158  C     C_3   0.227928 0.203517 0.244396 -0.293219
C159  C     C_3   0.728388 0.296007 0.743371 -0.293135
C160  C     C_3   0.271630 0.703974 0.256600 -0.292919
C161  C     C_3   0.271816 0.703783 0.743747 -0.292752
C162  C     C_3   0.728082 0.296317 0.256049 -0.292534
C163  C     C_3   0.727890 0.703481 0.255476 -0.292970
C164  C     C_3   0.272109 0.296518 0.744521 -0.293120
C165  C     C_3   0.272072 0.296483 0.255604 -0.293059
C166  C     C_3   0.727927 0.703517 0.744397 -0.293209
C167  C     C_3   0.230467 0.744686 0.229883 0.524710
C168  C     C_3   0.212617 0.237394 0.734837 -0.289400
C169  C     C_3   0.769483 0.255363 0.770120 0.524747
C170  C     C_3   0.770374 0.254370 0.230011 0.524678
C171  C     C_3   0.229957 0.745301 0.770035 0.524720
C172  C     C_3   0.228753 0.253541 0.769855 0.524732
C173  C     C_3   0.771253 0.746465 0.230146 0.524747
C174  C     C_3   0.771129 0.746329 0.769886 0.524794
C175  C     C_3   0.228873 0.253673 0.230113 0.524810
C176  C     C_3   0.730517 0.244637 0.729880 0.524746
C177  C     C_3   0.269531 0.755315 0.270116 0.524746
C178  C     C_3   0.270043 0.754698 0.729965 0.524717
C179  C     C_3   0.787379 0.762601 0.265166 -0.289491
C180  C     C_3   0.729627 0.245629 0.269988 0.524717
C181  C     C_3   0.728747 0.753535 0.269854 0.524726
C182  C     C_3   0.271247 0.246459 0.730145 0.524770
C183  C     C_3   0.271127 0.246327 0.269887 0.524789
C184  C     C_3   0.728871 0.753671 0.730114 0.524829
C185  C     C_3   0.787470 0.762705 0.734927 -0.289341
C186  C     C_3   0.212529 0.237293 0.265072 -0.289425
C187  C     C_3   0.711292 0.264061 0.764300 -0.290197
C188  C     C_R   0.500019 0.000049 0.835119 -0.000772
C189  C     C_3   0.288676 0.735971 0.235675 -0.290089
C190  C     C_3   0.288314 0.736440 0.764598 -0.290525
C191  C     C_3   0.711928 0.263317 0.235247 -0.290462
C192  C     C_3   0.712621 0.737399 0.234834 -0.289270
C193  C     C_3   0.287383 0.262606 0.765163 -0.289527
C194  C     C_3   0.287471 0.262706 0.234928 -0.289204
C195  C     C_3   0.712530 0.737295 0.765073 -0.289467
C196  C     C_3   0.213537 0.713153 0.250299 0.091192
C197  C     C_3   0.786463 0.286847 0.749700 0.091214
C198  C     C_3   0.786434 0.286880 0.250303 0.091214
C199  C     C_R   0.500099 0.999937 0.164899 0.000983
C200  C     C_3   0.213561 0.713125 0.749696 0.091204
C201  C     C_3   0.213564 0.286926 0.749714 0.090140
C202  C     C_3   0.786436 0.713074 0.250286 0.090091
C203  C     C_3   0.786442 0.713077 0.749712 0.090078
C204  C     C_3   0.213558 0.286923 0.250288 0.090021
C205  C     C_3   0.713536 0.213153 0.750299 0.091228
C206  C     C_3   0.286462 0.786848 0.249700 0.091174
C207  C     C_3   0.286439 0.786874 0.750304 0.091218
C208  C     C_3   0.713567 0.213119 0.249696 0.091196
C209  C     C_3   0.713564 0.786926 0.249714 0.090085
C210  C     C_1   0.139642 0.639338 0.249982 -0.129942
C211  C     C_3   0.286436 0.213074 0.750286 0.090128
C212  C     C_3   0.286442 0.213077 0.249712 0.090012
C213  C     C_3   0.713558 0.786923 0.750288 0.090066
C214  C     C_1   0.173022 0.672627 0.250115 0.021679
C215  C     C_1   0.826978 0.327373 0.749884 0.021709
C216  C     C_1   0.826940 0.327415 0.250105 0.021858
C217  C     C_1   0.173057 0.672588 0.749894 0.021878
C218  C     C_1   0.173058 0.327434 0.749901 0.023958
C219  C     C_1   0.826942 0.672566 0.250099 0.024088
C220  C     C_1   0.826951 0.672565 0.749900 0.024032
C221  C     C_1   0.860357 0.360662 0.750018 -0.129951
C222  C     C_1   0.173049 0.327435 0.250101 0.024172
C223  C     C_1   0.673022 0.172627 0.750116 0.021668
C224  C     C_1   0.326977 0.827374 0.249884 0.021661
C225  C     C_1   0.326943 0.827412 0.750106 0.021840
C226  C     C_1   0.673061 0.172584 0.249894 0.021837
C227  C     C_1   0.673058 0.827434 0.249901 0.024084
C228  C     C_1   0.326942 0.172566 0.750099 0.024049
C229  C     C_1   0.326951 0.172565 0.249900 0.024169
C230  C     C_1   0.673049 0.827434 0.750100 0.024118
C231  C     C_R   0.986696 0.544851 0.082771 0.508584
C232  C     C_1   0.860317 0.360705 0.249967 -0.129999
C233  C     C_R   0.006840 0.453937 0.917416 0.507775
C234  C     C_R   0.013317 0.455319 0.082730 0.508284
C235  C     C_R   0.993169 0.546568 0.917419 0.507553
C236  C     C_R   0.484417 0.043941 0.582796 0.508660
C237  C     C_R   0.510321 0.954341 0.417314 0.508385
C238  C     C_R   0.514974 0.955661 0.582763 0.508436
C239  C     C_R   0.489671 0.045467 0.417343 0.508378
C240  C     C_R   0.962307 0.470779 0.129661 -0.096545
C241  C     C_R   0.039266 0.527144 0.870382 -0.095568
C242  C     C_R   0.037662 0.529313 0.129696 -0.096646
C243  C     C_1   0.139682 0.639296 0.750033 -0.130000
C244  C     C_R   0.960746 0.473120 0.870377 -0.095189
C245  C     C_R   0.462005 0.970628 0.629662 -0.097611
C246  C     C_R   0.538882 0.027458 0.370426 -0.096366
C247  C     C_R   0.537711 0.029089 0.629630 -0.097816
C248  C     C_R   0.461213 0.972369 0.370382 -0.096215
C249  C     C_R   0.961948 0.471198 0.152967 -0.201469
C250  C     C_R   0.039474 0.526763 0.847069 -0.202404
C251  C     C_R   0.037922 0.528911 0.152998 -0.201151
C252  C     C_R   0.960652 0.473316 0.847065 -0.202211
C253  C     C_R   0.461613 0.971183 0.652972 -0.200331
C254  C     C_1   0.139655 0.360718 0.750031 -0.126292
C255  C     C_R   0.539249 0.027032 0.347107 -0.201419
C256  C     C_R   0.538155 0.028678 0.652939 -0.200136
C257  C     C_R   0.460916 0.972791 0.347063 -0.201265
C258  C     C_R   0.000001 0.500051 0.117930 0.306380
C259  C     C_R   0.999989 0.500170 0.882162 0.300225
C260  C     C_R   0.499832 0.999833 0.617920 0.309578
C261  C     C_R   0.500036 0.999910 0.382146 0.304369
C262  C     C_R   0.000081 0.500168 0.047406 -0.048612
C263  C     C_R   0.000093 0.500289 0.952763 -0.050039
C264  C     C_R   0.499705 0.999829 0.547413 -0.048682
H1    H     H_    0.045528 0.571338 0.338213 0.158942
H2    H     H_    0.016141 0.369080 0.943850 0.192083
H3    H     H_    0.226010 0.764966 0.800857 0.329004
H4    H     H_    0.222998 0.232011 0.800375 0.330818
H5    H     H_    0.777016 0.768003 0.199628 0.330930
H6    H     H_    0.776721 0.767679 0.800452 0.330845
H7    H     H_    0.223284 0.232325 0.199547 0.330947
H8    H     H_    0.727374 0.263396 0.698949 0.328918
H9    H     H_    0.272738 0.736492 0.301041 0.328974
H10   H     H_    0.273991 0.735033 0.699142 0.328927
H11   H     H_    0.725180 0.265790 0.300740 0.328985
H12   H     H_    0.722984 0.731997 0.300372 0.330879
H13   H     H_    0.038758 0.374067 0.056307 0.192615
H14   H     H_    0.277002 0.267989 0.699625 0.330852
H15   H     H_    0.276715 0.267674 0.300453 0.330896
H16   H     H_    0.723279 0.732320 0.699548 0.330877
H17   H     H_    0.983707 0.631478 0.943777 0.192177
H18   H     H_    0.454698 0.123947 0.556419 0.192212
H19   H     H_    0.528582 0.870824 0.443708 0.191916
H20   H     H_    0.544718 0.875689 0.556366 0.192231
H21   H     H_    0.471132 0.128950 0.443744 0.191955
H22   H     H_    0.470242 0.130341 0.483223 0.145103
H23   H     H_    0.545769 0.874463 0.516831 0.145509
H24   H     H_    0.529188 0.869362 0.483214 0.145031
H25   H     H_    0.951588 0.429488 0.661865 0.157560
H26   H     H_    0.453803 0.125319 0.516872 0.145457
H27   H     H_    0.983568 0.632697 0.983340 0.146200
H28   H     H_    0.039208 0.372896 0.016693 0.146751
H29   H     H_    0.016260 0.367838 0.983454 0.145999
H30   H     H_    0.961226 0.627669 0.016755 0.146733
H31   H     H_    0.046006 0.570742 0.379306 0.143915
H32   H     H_    0.951238 0.429883 0.620777 0.147616
H33   H     H_    0.953513 0.428990 0.379128 0.143865
H34   H     H_    0.048614 0.570384 0.620885 0.147588
H35   H     H_    0.549861 0.068746 0.879163 0.148014
H36   H     H_    0.954166 0.428738 0.338053 0.158984
H37   H     H_    0.447738 0.933388 0.120785 0.146222
H38   H     H_    0.450557 0.930944 0.879100 0.147870
H39   H     H_    0.552614 0.066685 0.120923 0.146116
H40   H     H_    0.211081 0.833526 0.237538 0.168201
H41   H     H_    0.788881 0.166511 0.762513 0.168319
H42   H     H_    0.789462 0.165926 0.238539 0.168227
H43   H     H_    0.210734 0.833883 0.761828 0.168325
H44   H     H_    0.210137 0.165535 0.760409 0.169137
H45   H     H_    0.789866 0.834468 0.239598 0.169088
H46   H     H_    0.789795 0.834406 0.760623 0.169170
H47   H     H_    0.048529 0.570424 0.661958 0.157542
H48   H     H_    0.210206 0.165595 0.239375 0.169127
H49   H     H_    0.711118 0.333489 0.737487 0.168258
H50   H     H_    0.288917 0.666475 0.262461 0.168333
H51   H     H_    0.289267 0.666117 0.738171 0.168264
H52   H     H_    0.710538 0.334073 0.261460 0.168359
H53   H     H_    0.710134 0.665532 0.260402 0.169181
H54   H     H_    0.289863 0.334465 0.739591 0.169093
H55   H     H_    0.289794 0.334405 0.260625 0.169219
H56   H     H_    0.710205 0.665594 0.739377 0.169126
H57   H     H_    0.319897 0.725191 0.223610 0.169389
H58   H     H_    0.549545 0.068910 0.838099 0.157400
H59   H     H_    0.680044 0.274868 0.776345 0.169341
H60   H     H_    0.681221 0.273513 0.222839 0.169343
H61   H     H_    0.319224 0.726042 0.776883 0.169295
H62   H     H_    0.317550 0.272231 0.777872 0.170784
H63   H     H_    0.682458 0.727777 0.222123 0.170968
H64   H     H_    0.682290 0.727574 0.777709 0.170830
H65   H     H_    0.317713 0.272429 0.222293 0.171020
H66   H     H_    0.819956 0.225132 0.723654 0.169340
H67   H     H_    0.180101 0.774810 0.276389 0.169303
H68   H     H_    0.180777 0.773958 0.723117 0.169294
H69   H     H_    0.448052 0.932939 0.161896 0.155944
H70   H     H_    0.818780 0.226486 0.277160 0.169260
H71   H     H_    0.817542 0.772223 0.277877 0.170808
H72   H     H_    0.182450 0.227769 0.722128 0.170835
H73   H     H_    0.182287 0.227571 0.277707 0.170863
H74   H     H_    0.817710 0.772426 0.722291 0.170881
H75   H     H_    0.127263 0.466456 0.443591 0.191981
H76   H     H_    0.869640 0.521554 0.556431 0.191985
H77   H     H_    0.872097 0.532533 0.443559 0.191997
H78   H     H_    0.129841 0.479405 0.556303 0.192012
H79   H     H_    0.630293 0.976922 0.943615 0.191960
H80   H     H_    0.450482 0.931167 0.838053 0.157374
H81   H     H_    0.373636 0.036759 0.056395 0.192022
H82   H     H_    0.370474 0.022183 0.943724 0.192010
H83   H     H_    0.626919 0.963691 0.056465 0.192041
H84   H     H_    0.628439 0.963159 0.017008 0.145652
H85   H     H_    0.369041 0.021986 0.983208 0.145503
H86   H     H_    0.372325 0.037276 0.016942 0.145511
H87   H     H_    0.631789 0.977051 0.983051 0.145423
H88   H     H_    0.131275 0.479555 0.516838 0.145376
H89   H     H_    0.870566 0.532990 0.482998 0.145399
H90   H     H_    0.868037 0.521231 0.517014 0.145272
H91   H     H_    0.552211 0.066924 0.162021 0.155923
H92   H     H_    0.128681 0.466075 0.483028 0.145302
H93   H     H_    0.067231 0.551759 0.161838 0.162965
H94   H     H_    0.930195 0.452091 0.838240 0.164880
H95   H     H_    0.932624 0.448362 0.161778 0.162897
H96   H     H_    0.069938 0.547930 0.838251 0.164861
H97   H     H_    0.567739 0.051448 0.661752 0.162770
H98   H     H_    0.430598 0.951348 0.338222 0.164398
H99   H     H_    0.432053 0.948482 0.661806 0.162771
H100  H     H_    0.569569 0.048473 0.338304 0.164335
H101  H     H_    0.066887 0.552066 0.120755 0.148305
H102  H     H_    0.961477 0.626231 0.056380 0.192597
H103  H     H_    0.930155 0.452194 0.879283 0.151721
H104  H     H_    0.933166 0.447990 0.120679 0.148443
H105  H     H_    0.069767 0.548169 0.879311 0.151807
H106  H     H_    0.566952 0.051812 0.620630 0.146636
H107  H     H_    0.431118 0.950960 0.379332 0.149466
H108  H     H_    0.432776 0.947832 0.620675 0.146799
H109  H     H_    0.568904 0.048895 0.379428 0.149523
H110  H     H_    0.227261 0.763509 0.198958 0.328856
H111  H     H_    0.772625 0.236604 0.801050 0.328999
H112  H     H_    0.774821 0.234209 0.199259 0.328863
N1    N     N_R   0.000006 0.500076 0.093975 -0.354828
N2    N     N_R   0.999988 0.500228 0.906169 -0.354243
N3    N     N_R   0.499738 0.999813 0.593984 -0.355383
N4    N     N_R   0.500011 0.999905 0.406117 -0.354756
N5    N     N_R   0.999736 0.499775 0.405988 -0.355008
N6    N     N_R   0.999837 0.500240 0.593981 -0.353938
N7    N     N_R   0.500300 0.999772 0.906038 -0.353961
N8    N     N_R   0.500210 0.000061 0.094044 -0.354333
O1    O     O_3   1.000000 0.500000 0.249900 -0.488219
O2    O     O_R   0.500000 0.957050 0.200150 -0.640521
O3    O     O_R   0.500000 0.957050 0.799850 -0.640776
O4    O     O_R   0.500000 0.042950 0.200150 -0.640310
O5    O     O_R   0.043100 0.500000 0.199950 -0.634857
O6    O     O_R   0.956900 0.500000 0.800050 -0.635567
O7    O     O_R   0.956900 0.500000 0.199950 -0.635169
O8    O     O_R   0.043100 0.500000 0.800050 -0.635883
O9    O     O_R   0.543100 0.000000 0.699950 -0.634783
O10   O     O_R   0.456900 1.000000 0.300050 -0.635310
O11   O     O_R   0.456900 0.000000 0.699950 -0.635129
O12   O     O_3   0.000000 0.500000 0.750100 -0.488079
O13   O     O_R   0.543100 1.000000 0.300050 -0.635617
O14   O     O_R   0.060660 0.396130 0.262970 -0.635494
O15   O     O_R   0.939340 0.603870 0.737030 -0.635426
O16   O     O_R   0.939340 0.603870 0.262970 -0.635543
O17   O     O_R   0.060660 0.396130 0.737030 -0.635480
O18   O     O_R   0.060660 0.603870 0.737030 -0.637666
O19   O     O_R   0.939340 0.396130 0.262970 -0.637633
O20   O     O_R   0.939340 0.396130 0.737030 -0.637950
O21   O     O_R   0.060660 0.603870 0.262970 -0.637962
O22   O     O_R   0.560660 0.896130 0.762970 -0.635466
O23   O     O_3   0.500000 0.000000 0.749900 -0.488314
O24   O     O_R   0.439340 0.103870 0.237030 -0.635238
O25   O     O_R   0.439340 0.103870 0.762970 -0.635508
O26   O     O_R   0.560660 0.896130 0.237030 -0.635289
O27   O     O_R   0.560660 0.103870 0.237030 -0.637512
O28   O     O_R   0.439340 0.896130 0.762970 -0.637632
O29   O     O_R   0.439340 0.896130 0.237030 -0.637843
O30   O     O_R   0.560660 0.103870 0.762970 -0.637934
O31   O     O_R   0.896240 0.560540 0.236830 -0.627799
O32   O     O_R   0.103760 0.439460 0.763170 -0.628014
O33   O     O_R   0.103760 0.439460 0.236830 -0.627647
O34   O     O_3   0.500000 0.000000 0.250100 -0.488306
O35   O     O_R   0.896240 0.560540 0.763170 -0.627876
O36   O     O_R   0.896240 0.439460 0.763170 -0.629872
O37   O     O_R   0.103760 0.560540 0.236830 -0.629825
O38   O     O_R   0.103760 0.560540 0.763170 -0.630255
O39   O     O_R   0.896240 0.439460 0.236830 -0.630264
O40   O     O_R   0.396240 0.060540 0.736830 -0.627782
O41   O     O_R   0.603760 0.939460 0.263170 -0.628028
O42   O     O_R   0.603760 0.939460 0.736830 -0.627652
O43   O     O_R   0.396240 0.060540 0.263170 -0.627869
O44   O     O_R   0.396240 0.939460 0.263170 -0.629914
O45   O     O_R   0.000000 0.542950 0.299850 -0.641446
O46   O     O_R   0.603760 0.060540 0.736830 -0.629828
O47   O     O_R   0.603760 0.060540 0.263170 -0.630350
O48   O     O_R   0.396240 0.939460 0.736830 -0.630225
O49   O     O_2   0.973178 0.588230 0.094298 -0.552360
O50   O     O_2   0.014422 0.408900 0.905976 -0.553817
O51   O     O_2   0.026753 0.411872 0.094231 -0.552320
O52   O     O_2   0.985516 0.591577 0.905976 -0.553842
O53   O     O_2   0.469319 0.086747 0.594355 -0.551480
O54   O     O_2   0.520740 0.910108 0.405792 -0.552987
O55   O     O_2   0.530031 0.912820 0.594304 -0.551503
O56   O     O_R   1.000000 0.457050 0.700150 -0.641273
O57   O     O_2   0.479280 0.089696 0.405842 -0.553098
O58   O     O_2   0.088844 0.476004 0.405734 -0.556543
O59   O     O_2   0.908992 0.517350 0.594237 -0.558254
O60   O     O_2   0.910654 0.523562 0.405685 -0.556525
O61   O     O_2   0.090623 0.483144 0.594176 -0.558421
O62   O     O_2   0.590928 0.981215 0.905830 -0.558180
O63   O     O_2   0.411699 0.026144 0.094264 -0.557626
O64   O     O_2   0.409746 0.018389 0.905879 -0.558285
O65   O     O_2   0.588662 0.973897 0.094337 -0.557638
O66   O     O_3   0.208788 0.738047 0.208636 -0.745727
O67   O     O_R   1.000000 0.457050 0.299850 -0.641282
O68   O     O_3   0.791110 0.262054 0.791372 -0.745432
O69   O     O_3   0.792957 0.260031 0.208906 -0.745849
O70   O     O_3   0.207724 0.739293 0.791189 -0.745536
O71   O     O_3   0.205247 0.258322 0.790824 -0.741640
O72   O     O_3   0.794765 0.741689 0.209178 -0.741385
O73   O     O_3   0.794504 0.741405 0.790889 -0.741553
O74   O     O_3   0.205500 0.258599 0.209110 -0.741292
O75   O     O_3   0.708889 0.237947 0.708628 -0.745750
O76   O     O_3   0.291211 0.761954 0.291363 -0.745505
O77   O     O_3   0.292276 0.760706 0.708810 -0.745854
O78   O     O_R   0.000000 0.542950 0.700150 -0.641058
O79   O     O_3   0.707044 0.239968 0.291093 -0.745622
O80   O     O_3   0.705235 0.758311 0.290822 -0.741511
O81   O     O_3   0.294753 0.241678 0.709176 -0.741397
O82   O     O_3   0.294500 0.241401 0.290890 -0.741419
O83   O     O_3   0.705496 0.758595 0.709111 -0.741322
O84   O     O_R   0.500000 0.042950 0.799850 -0.640992
Zn1   Zn    Zn3+2 0.061590 0.500000 0.231190 0.998884
Zn2   Zn    Zn3+2 1.000000 0.561700 0.731400 0.983353
Zn3   Zn    Zn3+2 0.000000 0.561700 0.268600 0.983252
Zn4   Zn    Zn3+2 1.000000 0.438300 0.731400 0.983300
Zn5   Zn    Zn3+2 0.500000 0.938300 0.768600 0.983349
Zn6   Zn    Zn3+2 0.500000 0.061700 0.231400 0.983734
Zn7   Zn    Zn3+2 0.500000 0.061700 0.768600 0.983300
Zn8   Zn    Zn3+2 0.500000 0.938300 0.231400 0.983651
Zn9   Zn    Zn3+2 0.938410 0.500000 0.768810 0.998531
Zn10  Zn    Zn3+2 0.938410 0.500000 0.231190 0.998691
Zn11  Zn    Zn3+2 0.061590 0.500000 0.768810 0.998365
Zn12  Zn    Zn3+2 0.561590 0.000000 0.731190 0.998820
Zn13  Zn    Zn3+2 0.438410 1.000000 0.268810 0.998529
Zn14  Zn    Zn3+2 0.438410 0.000000 0.731190 0.998651
Zn15  Zn    Zn3+2 0.561590 1.000000 0.268810 0.998330
Zn16  Zn    Zn3+2 0.000000 0.438300 0.268600 0.983317

loop_
_geom_bond_atom_site_label_1
_geom_bond_atom_site_label_2
_ccdc_geom_bond_type
C81   H1    S    
C155  H45   S    
C237  N4    A    
C32   C45   A    
C36   C42   A    
C74   C83   A    
C198  C216  S    
H7    O74   S    
O34   Zn15  S    
C246  H109  S    
C113  C230  T    
C23   H20   S    
C147  O28   A    
C2    C134  S    
O67   Zn16  S    
H10   O77   S    
C242  C251  A    
C90   C228  T    
C93   C121  A    
C160  C189  S    
C12   C104  A    
C68   C226  T    
C193  C211  S    
C246  C255  A    
H14   O81   S    
C189  H57   S    
C46   C224  T    
C184  O83   S    
C256  H97   S    
C84   H91   S    
O36   Zn9   S    
C46   C148  S    
O43   Zn13  S    
C175  O74   S    
O30   Zn7   S    
O24   Zn6   S    
O41   Zn15  S    
O28   Zn5   S    
C8    C264  A    
C61   C105  A    
C90   C143  S    
C160  C196  S    
C85   C188  A    
C3    C39   A    
C240  C249  A    
C126  O84   A    
C66   O63   S    
C242  C258  A    
C215  C221  T    
C141  O42   A    
C99   H83   S    
C115  H84   S    
C75   C91   A    
C151  H41   S    
C134  O16   A    
C165  C183  S    
C234  O51   S    
C155  C209  S    
C166  C184  S    
C85   H58   S    
C169  C187  S    
C18   H2    S    
C5    C18   A    
C95   C119  A    
C156  C185  S    
C130  O9    A    
C245  C253  A    
C205  C223  S    
C170  O69   S    
C29   C257  A    
C129  O6    A    
C260  N3    S    
C142  O43   A    
O10   Zn13  S    
C73   C88   A    
C26   C249  A    
C152  C170  S    
C19   C49   A    
C179  C202  S    
C189  C206  S    
O6    Zn9   S    
C17   H102  S    
C80   C112  A    
C64   O61   S    
C146  C180  S    
C161  H51   S    
C16   C58   A    
C66   C110  A    
C162  H52   S    
C112  C125  S    
C246  C261  A    
O15   Zn2   S    
C171  O70   S    
C57   C147  S    
C33   C47   A    
C30   C43   A    
C143  O25   A    
C34   C48   A    
C20   H17   S    
H12   O80   S    
C75   H39   S    
C125  O78   A    
O34   Zn13  S    
O23   Zn12  S    
C52   C115  A    
C142  O24   A    
O7    Zn10  S    
O33   Zn1   S    
C127  O4    A    
C77   C91   A    
C13   C133  S    
C120  H89   S    
O23   Zn14  S    
C135  C197  S    
O16   Zn3   S    
C62   C106  A    
C25   C43   A    
C238  N3    A    
C96   C109  A    
C162  C198  S    
C159  C176  S    
C146  H70   S    
C122  H92   S    
C93   H76   S    
C138  C232  S    
C163  H53   S    
C48   H27   S    
O40   Zn14  S    
C37   C50   A    
C123  O67   A    
O8    Zn11  S    
C236  O53   S    
C123  O45   A    
H4    O71   S    
C28   C130  S    
C29   C255  A    
C97   C117  A    
H110  O66   S    
C133  O15   A    
C3    C11   A    
C95   C108  A    
C194  C212  S    
C71   C88   A    
C137  C243  S    
C22   C45   A    
C4    C262  A    
C5    C263  A    
C191  H60   S    
C118  H87   S    
C76   C85   A    
C182  O81   S    
C138  O39   A    
C104  C110  A    
H5    O72   S    
C67   N7    A    
C163  C181  S    
C217  C243  T    
C138  O19   A    
C159  H49   S    
C99   C114  A    
O21   Zn3   S    
C53   C54   A    
C6    C19   A    
C45   H24   S    
C3    C9    A    
C36   C37   A    
C165  C204  S    
C175  C204  S    
C64   N6    A    
C75   C84   A    
C239  O57   S    
C11   C25   A    
H6    O73   S    
C177  C206  S    
H111  O68   S    
C16   C60   A    
C159  C187  S    
C245  C260  A    
C137  O38   A    
C235  N2    A    
C208  C226  S    
C94   C120  A    
C206  C224  S    
C240  H104  S    
C7    C263  A    
H8    O75   S    
C162  C180  S    
C259  N2    S    
O12   Zn2   S    
C76   C89   A    
C57   C225  T    
C247  C256  A    
C139  C221  S    
C78   H36   S    
C14   C55   A    
C6    C234  A    
C127  O2    A    
C157  H68   S    
C128  O5    A    
H11   O79   S    
C187  C205  S    
C126  O3    A    
C70   C87   A    
C61   O58   S    
C148  O44   A    
C64   C108  A    
C84   C199  A    
C167  C189  S    
C247  H106  S    
C94   C107  A    
C33   C40   A    
O25   Zn7   S    
C186  C204  S    
C193  H62   S    
O46   Zn12  S    
C28   C253  A    
C150  C206  S    
C195  H64   S    
C91   N8    S    
C183  C186  S    
C16   C100  A    
C61   N5    A    
C38   C51   A    
C187  H59   S    
C183  C212  S    
C170  C191  S    
C171  C190  S    
C62   O59   S    
C146  C198  S    
H9    O76   S    
C171  C200  S    
C253  H99   S    
C82   H25   S    
C92   C122  A    
C93   C106  A    
C196  C214  S    
C101  C142  S    
C137  O18   A    
C31   C32   A    
C124  C196  S    
C218  C254  T    
C6    C262  A    
C151  C205  S    
C244  H103  S    
C124  C177  S    
O18   Zn2   S    
O42   Zn12  S    
C139  O36   A    
C211  C228  S    
C9    C237  A    
C56   C119  A    
O23   Zn7   S    
C83   C188  A    
C178  O77   S    
C72   C87   A    
C172  O71   S    
C169  C197  S    
O37   Zn1   S    
C44   H23   S    
C132  O33   A    
C88   N6    S    
C161  C200  S    
C152  C208  S    
C121  H90   S    
C190  H61   S    
C161  C190  S    
C127  C199  S    
O38   Zn11  S    
C76   H35   S    
O19   Zn16  S    
O12   Zn11  S    
C235  O52   S    
O48   Zn14  S    
C241  H105  S    
C136  O17   A    
C151  C169  S    
O3    Zn5   S    
C157  C200  S    
O5    Zn1   S    
C135  C176  S    
C126  C188  S    
C134  O31   A    
C173  O72   S    
C152  H42   S    
C212  C229  S    
C14   C103  A    
C29   C131  S    
C133  O35   A    
O1    Zn16  S    
C70   H33   S    
C113  C141  S    
C30   C39   A    
C169  O68   S    
C166  C203  S    
C13   C220  T    
C25   H21   S    
C97   H81   S    
C164  C201  S    
O12   Zn4   S    
C190  C207  S    
C14   C53   A    
C128  O7    A    
C116  H85   S    
C147  O48   A    
C49   H28   S    
C240  C258  A    
C63   C107  A    
C174  O73   S    
C21   C47   A    
O13   Zn15  S    
C249  H95   S    
C129  O8    A    
C170  C198  S    
C165  C194  S    
C17   C51   A    
C69   O65   S    
C247  C260  A    
C140  C210  S    
C96   H79   S    
O9    Zn12  S    
C156  C174  S    
C203  C220  S    
C73   H32   S    
C86   H69   S    
C201  C218  S    
C99   C115  A    
C167  O66   S    
C179  H71   S    
C1    C81   A    
C87   N5    S    
C31   C40   A    
C103  C111  A    
C32   C39   A    
C140  O37   A    
C185  H74   S    
C92   H75   S    
C153  C207  S    
C255  H100  S    
C150  H40   S    
O23   Zn5   S    
C241  C259  A    
C72   C81   A    
C52   C55   A    
C160  H50   S    
C86   C199  A    
C43   H22   S    
O78   Zn2   S    
C98   H82   S    
C174  C195  S    
C131  O10   A    
C34   C38   A    
C1    C78   A    
C154  C168  S    
C172  C193  S    
C34   C41   A    
C158  C186  S    
C162  C191  S    
C12   C52   A    
C155  C179  S    
C238  O55   S    
C7    C235  A    
O35   Zn9   S    
C158  C212  S    
O34   Zn8   S    
C143  O40   A    
O32   Zn11  S    
C145  O27   A    
C4    C231  A    
C63   O60   S    
C192  H63   S    
C58   C59   A    
C23   C44   A    
C56   C60   A    
C173  C202  S    
C136  O32   A    
C176  C205  S    
C237  O54   S    
C21   H18   S    
C36   C49   A    
O39   Zn10  S    
C154  C211  S    
O17   Zn4   S    
O44   Zn13  S    
C24   C132  S    
C178  C207  S    
C58   C120  A    
H112  O69   S    
O2    Zn8   S    
C65   C109  A    
C20   C48   A    
C4    C17   A    
C8    C236  A    
C67   C111  A    
C19   H13   S    
C71   H34   S    
C135  H66   S    
C168  C182  S    
C2    C219  T    
O31   Zn10  S    
C73   C82   A    
C18   C50   A    
C248  C261  A    
C258  N1    S    
C96   C118  A    
C95   H78   S    
C124  C150  S    
C204  C222  S    
C15   C59   A    
C241  C250  A    
C145  O47   A    
C69   N8    A    
O1    Zn10  S    
C233  N2    A    
O14   Zn16  S    
H15   O82   S    
C24   C222  T    
C250  H96   S    
C149  O30   A    
C173  C192  S    
C131  O13   A    
C103  C109  A    
C185  C203  S    
C50   H29   S    
C83   H80   S    
C65   O62   S    
C125  O56   A    
C176  O75   S    
C135  C151  S    
C150  C167  S    
C182  C211  S    
O22   Zn5   S    
C141  O22   A    
C74   H38   S    
O4    Zn6   S    
C213  C230  S    
C153  C157  S    
O12   Zn9   S    
C72   H31   S    
C139  O20   A    
C195  C213  S    
C164  C182  S    
C236  N3    A    
C92   C105  A    
C159  C197  S    
C192  C209  S    
C7    C20   A    
C62   N6    A    
C67   O64   S    
C101  C229  T    
C209  C227  S    
C161  C178  S    
C47   H26   S    
C144  O41   A    
C12   C54   A    
C68   C145  S    
C163  C192  S    
C82   C112  A    
C55   C118  A    
C59   C121  A    
C234  N1    A    
O34   Zn6   S    
C163  C202  S    
C70   C78   A    
C40   C264  A    
C167  C196  S    
C251  H93   S    
C27   C252  A    
C1    C123  S    
C177  O76   S    
C184  C185  S    
C261  N4    S    
C100  C105  A    
C63   N5    A    
O11   Zn14  S    
C74   C89   A    
C136  C254  S    
O45   Zn3   S    
C27   C250  A    
C38   C42   A    
C22   H19   S    
C9    C22   A    
O56   Zn4   S    
C124  H67   S    
C11   C239  A    
C51   H30   S    
O47   Zn15  S    
C168  C201  S    
O27   Zn6   S    
C181  C209  S    
C89   N7    S    
C207  C225  S    
C102  C108  A    
C175  C194  S    
C197  C215  S    
C53   C116  A    
C157  C178  S    
C155  C173  S    
C132  O14   A    
C5    C233  A    
C37   C41   A    
C244  C259  A    
O20   Zn4   S    
C79   C227  T    
C71   C80   A    
H16   O83   S    
C66   N8    A    
C148  O29   A    
C144  O26   A    
C69   C114  A    
C31   C44   A    
C41   C263  A    
C166  C195  S    
C80   H47   S    
C164  C193  S    
C94   H77   S    
C77   H37   S    
C231  O49   S    
C210  C214  T    
C140  O21   A    
O29   Zn8   S    
C252  H94   S    
C202  C219  S    
O1    Zn3   S    
C60   C122  A    
C168  H72   S    
O1    Zn1   S    
C35   C223  T    
C158  C175  S    
C98   C116  A    
C79   C144  S    
C160  C177  S    
C153  C171  S    
C8    C21   A    
C154  C172  S    
C26   C128  S    
C183  O82   S    
C117  H86   S    
C104  C114  A    
C242  H101  S    
C146  C152  S    
C35   C149  S    
C119  H88   S    
C165  H55   S    
C77   C86   A    
C10   C238  A    
C166  H56   S    
C27   C129  S    
C54   C117  A    
O26   Zn8   S    
C65   N7    A    
C156  C213  S    
C149  O46   A    
C42   C262  A    
C156  H46   S    
C100  C107  A    
C98   C111  A    
C244  C252  A    
C30   C33   A    
C164  H54   S    
C194  H65   S    
C158  H48   S    
C28   C256  A    
C153  H43   S    
O84   Zn7   S    
C154  H44   S    
C10   C23   A    
C180  O79   S    
C257  H98   S    
C233  O50   S    
C15   C56   A    
H3    O70   S    
C97   C110  A    
C186  H73   S    
C184  C213  S    
C130  O11   A    
C174  C203  S    
C216  C232  T    
C10   C264  A    
C102  C106  A    
C191  C208  S    
C15   C102  A    
C172  C201  S    
C26   C251  A    
C200  C217  S    
C248  C257  A    
C231  N1    A    
C245  H108  S    
C181  O80   S    
C239  N4    A    
C180  C208  S    
C179  C181  S    
C248  H107  S    
