data_mof_unit_18718.cif
_audit_creation_date              2012-10-26T18:34:00-0400
_audit_creation_method            fapswitch 2.2
_symmetry_space_group_name_H-M    P1
_symmetry_Int_Tables_number       1
_space_group_crystal_system       triclinic
_cell_length_a                    11.037893
_cell_length_b                    10.750281
_cell_length_c                    9.62961
_cell_angle_alpha                 88.447072
_cell_angle_beta                  102.173006
_cell_angle_gamma                 92.472612
_cell_volume                      1115.73212639

loop_
_atom_site_label
_atom_site_type_symbol
_atom_type_description
_atom_site_fract_x
_atom_site_fract_y
_atom_site_fract_z
_atom_type_partial_charge
C1    C     C_R   0.497912 0.262713 0.500783 0.582488
C2    C     C_2   0.871446 0.499909 0.589736 -0.100574
C3    C     C_2   0.067234 0.500606 0.515629 -0.137587
C4    C     C_2   0.932773 0.499254 0.484356 -0.134998
C5    C     C_R   0.396277 0.061691 0.417413 0.108699
C6    C     C_R   0.598295 0.937172 0.583042 0.072706
C7    C     C_R   0.397564 0.932584 0.415093 0.124331
C8    C     C_R   0.596747 0.067324 0.585975 0.095567
C9    C     C_R   0.499302 0.871107 0.496654 0.044188
C10   C     C_R   0.496228 0.128530 0.502517 0.047837
C11   C     C_R   0.499579 0.737138 0.498574 0.577876
C12   C     C_R   0.263254 0.500233 0.442381 0.543538
C13   C     C_R   0.736746 0.499670 0.557620 0.587058
C14   C     C_R   0.438554 0.409067 0.065160 0.007146
C15   C     C_R   0.561270 0.591229 0.934752 0.006193
C16   C     C_R   0.437316 0.406536 0.917833 0.346452
C17   C     C_R   0.562885 0.593441 0.082303 0.344040
C18   C     C_2   0.128563 0.499947 0.410256 -0.112965
Cu1   Cu    Cu3+1 0.500000 0.500020 0.640660 1.071420
Cu2   Cu    Cu3+1 0.500000 0.499980 0.359340 1.037553
H1    H     H_    0.883759 0.497876 0.373806 0.190880
H2    H     H_    0.255324 0.180244 0.401289 0.225515
H3    H     H_    0.781752 0.901682 0.634461 0.231660
H4    H     H_    0.707977 0.890723 0.772719 0.271807
H5    H     H_    0.322072 0.815241 0.255313 0.278377
H6    H     H_    0.257114 0.802194 0.400201 0.216678
H7    H     H_    0.706959 0.110445 0.776655 0.272459
H8    H     H_    0.779186 0.120620 0.637141 0.229227
H9    H     H_    0.116246 0.502007 0.626178 0.190026
H10   H     H_    0.391364 0.336858 0.115569 0.167855
H11   H     H_    0.608173 0.663904 0.884181 0.186980
H12   H     H_    0.920840 0.501016 0.700089 0.119267
H13   H     H_    0.079179 0.498827 0.299901 0.123128
H14   H     H_    0.231829 0.207229 0.648459 0.353173
H15   H     H_    0.750975 0.796049 0.362553 0.359268
H16   H     H_    0.320466 0.178506 0.256750 0.261509
N1    N     N_R   0.500030 0.500030 0.852080 -0.289400
N2    N     N_R   0.499970 0.499970 0.147920 -0.287774
N3    N     N_3   0.291186 0.123065 0.334939 -0.545278
N4    N     N_3   0.700157 0.870932 0.665467 -0.611726
N5    N     N_3   0.292723 0.865196 0.332931 -0.543921
N6    N     N_3   0.697509 0.138607 0.670313 -0.595863
O1    O     O_R   0.499990 0.319660 0.618740 -0.394501
O2    O     O_2   0.276794 0.211817 0.926975 -0.311538
O3    O     O_3   0.274121 0.289179 0.673580 -0.521171
O4    O     O_2   0.725750 0.786460 0.074786 -0.313802
O5    O     O_2   0.542910 0.825048 0.167298 -0.279635
O6    O     O_3   0.725340 0.710991 0.327992 -0.498360
O7    O     O_R   0.500010 0.680340 0.381260 -0.436196
O8    O     O_R   0.499990 0.319630 0.381170 -0.541860
O9    O     O_R   0.500010 0.680370 0.618830 -0.507535
O10   O     O_R   0.320690 0.500020 0.575130 -0.453429
O11   O     O_R   0.679310 0.499980 0.424870 -0.446086
O12   O     O_R   0.320680 0.499990 0.337560 -0.523347
O13   O     O_R   0.679320 0.500010 0.662440 -0.498307
O14   O     O_2   0.458479 0.175485 0.831290 -0.260594
S1    S     S_3+6 0.361495 0.268138 0.836588 0.036496
S2    S     S_3+6 0.639495 0.731450 0.163992 0.035049

loop_
_geom_bond_atom_site_label_1
_geom_bond_atom_site_label_2
_ccdc_geom_bond_type
C16   N1    A    
C2    C4    D    
C5    C7    A    
Cu2   O12   S    
O6    S2    S    
Cu2   O7    S    
C11   O7    A    
Cu1   O13   S    
C14   N2    A    
Cu2   N2    S    
C1    O8    A    
O2    S1    D    
Cu1   Cu2   S    
C17   S2    S    
C16   S1    S    
C6    C9    A    
C7    N5    S    
C5    C10   A    
H14   O3    S    
O4    S2    D    
O5    S2    D    
C15   H11   S    
C4    H1    S    
C9    C11   S    
H7    N6    S    
O3    S1    S    
C14   H10   S    
Cu2   O8    S    
H15   O6    S    
C8    C10   A    
C12   O10   A    
Cu1   O1    S    
C13   O11   A    
C17   N2    A    
C5    N3    S    
C18   H13   S    
C14   C16   A    
C11   O9    A    
H2    N3    S    
C12   C18   S    
C3    C4    S    
Cu1   O9    S    
C6    N4    S    
O14   S1    D    
C3    C18   D    
C2    H12   S    
H5    N5    S    
C7    C9    A    
C2    C13   S    
Cu1   N1    S    
C15   N1    A    
C3    H9    S    
C6    C8    A    
H8    N6    S    
H4    N4    S    
C15   C17   A    
Cu1   O10   S    
C1    O1    A    
H16   N3    S    
C12   O12   A    
C1    C10   S    
H3    N4    S    
H6    N5    S    
C8    N6    S    
Cu2   O11   S    
C13   O13   A    
