data_mof_unit_51212.cif
_audit_creation_date              2013-03-05T16:04:07-0500
_audit_creation_method            fapswitch 2.2
_symmetry_space_group_name_H-M    P1
_symmetry_Int_Tables_number       1
_space_group_crystal_system       triclinic
_cell_length_a                    10.829814
_cell_length_b                    9.543327
_cell_length_c                    10.800922
_cell_angle_alpha                 90.005949
_cell_angle_beta                  88.560622
_cell_angle_gamma                 90.006136
_cell_volume                      1115.94957184

loop_
_atom_site_label
_atom_site_type_symbol
_atom_site_description
_atom_site_fract_x
_atom_site_fract_y
_atom_site_fract_z
_atom_type_partial_charge
O1    O     O_R   0.319640 0.618740 0.499990 -0.544461
O2    O     O_R   0.680360 0.618740 0.500010 -0.544307
O3    O     O_R   0.319620 0.381170 0.499990 -0.598233
O4    O     O_R   0.680380 0.381170 0.500010 -0.598404
C1    C     C_R   0.262138 0.499923 0.499957 0.839146
C2    C     C_R   0.737863 0.499936 0.500177 0.838948
O5    O     O_R   0.500000 0.618810 0.319650 -0.551484
O6    O     O_R   0.500000 0.618810 0.680350 -0.551455
O7    O     O_R   0.499970 0.381240 0.319640 -0.597787
O8    O     O_R   0.500030 0.381240 0.680360 -0.597941
C3    C     C_R   0.489573 0.500486 0.262506 0.844813
C4    C     C_R   0.510424 0.500502 0.737495 0.844465
Cu1   Cu    Cu3+1 0.500000 0.640660 0.500000 1.076220
Cu2   Cu    Cu3+1 0.500000 0.359340 0.500000 0.979376
H1    H     H_    0.492370 0.275846 0.111783 0.164266
H2    H     H_    0.507896 0.275862 0.888173 0.164254
C5    C     C_R   0.424651 0.758060 0.108235 0.383714
C6    C     C_R   0.575038 0.758201 0.891833 0.383438
C7    C     C_R   0.459710 0.884575 0.051418 -0.245898
C8    C     C_R   0.539802 0.884651 0.948669 -0.246008
H3    H     H_    0.426251 0.983730 0.087592 0.191181
H4    H     H_    0.573136 0.983869 0.912519 0.191076
C9    C     C_R   0.525705 0.630226 0.939585 -0.046383
C10   C     C_R   0.474135 0.630177 0.060447 -0.046357
C11   C     C_R   0.478216 0.502303 0.127683 -0.043553
C12   C     C_R   0.521777 0.502345 0.872320 -0.043588
C13   C     C_R   0.492973 0.375487 0.063699 -0.179629
C14   C     C_R   0.507170 0.375501 0.936278 -0.179647
C15   C     C_R   0.063828 0.372475 0.501633 -0.158444
C16   C     C_R   0.936073 0.372482 0.501714 -0.157979
H5    H     H_    0.111820 0.272890 0.502923 0.170699
H6    H     H_    0.888000 0.272896 0.502778 0.171034
C17   C     C_R   0.871739 0.499864 0.500614 -0.025712
C18   C     C_R   0.128265 0.499842 0.499808 -0.026201
C19   C     C_R   0.936215 0.627147 0.499617 -0.092750
C20   C     C_R   0.063897 0.627126 0.498209 -0.091634
H7    H     H_    0.888384 0.726765 0.499771 0.192890
H8    H     H_    0.111829 0.726711 0.495911 0.193695
C21   C     C_R   0.422854 0.075680 0.577690 -0.029787
C22   C     C_R   0.577127 0.075684 0.422294 -0.029734
H9    H     H_    0.361295 0.133099 0.639682 0.145042
H10   H     H_    0.638658 0.133106 0.360275 0.145343
C23   C     C_R   0.421999 0.927761 0.578292 0.266003
C24   C     C_R   0.577964 0.927767 0.421674 0.265826
N1    N     N_R   0.500000 0.852070 0.500000 -0.168854
N2    N     N_R   0.500000 0.147940 0.500000 -0.190549
N3    N     N_R   0.328691 0.759829 0.203042 0.140916
O9    O     O_R   0.308440 0.872120 0.268879 -0.371483
O10   O     O_R   0.251863 0.655406 0.213949 -0.372663
N4    N     N_R   0.671031 0.760150 0.797060 0.141157
O11   O     O_R   0.691200 0.872501 0.731294 -0.371189
O12   O     O_R   0.747959 0.655842 0.786116 -0.371963
I1    I     I_    0.293255 0.838261 0.706793 -0.329298
I2    I     I_    0.706477 0.838307 0.292927 -0.330129

loop_
_geom_bond_atom_site_label_1
_geom_bond_atom_site_label_2
_geom_bond_distance
_ccdc_geom_bond_type
H2    C14   1.083473 S    
N4    O12   1.301607 A    
O7    Cu2   1.959263 S    
C15   C16   1.383539 A    
C11   C13   1.400775 A    
O7    C3    1.300846 A    
C12   C14   1.400793 A    
C19   C20   1.382466 A    
C2    C17   1.449974 S    
O5    Cu1   1.959055 S    
O6    C4    1.293111 A    
C1    C18   1.449868 S    
O3    C1    1.293085 A    
C7    C8    1.391266 A    
C20   H8    1.082838 S    
N4    O11   1.301614 A    
C15   H5    1.083520 S    
Cu1   Cu2   2.684729 S    
C10   C11   1.421397 A    
Cu1   N1    2.017555 S    
C23   N1    1.383670 A    
O2    C2    1.293638 A    
O3    Cu2   1.964584 S    
O8    C4    1.300850 A    
C21   N2    1.357374 A    
O1    C1    1.293598 A    
O4    C2    1.293097 A    
C7    H3    1.082710 S    
C4    C12   1.464596 S    
N3    O10   1.301609 A    
O5    C3    1.293107 A    
C18   C20   1.400916 A    
O4    Cu2   1.964539 S    
C5    C10   1.424490 A    
O1    Cu1   1.964416 S    
C22   N2    1.357339 A    
C9    C10   1.406912 A    
C6    C9    1.424498 A    
C16   H6    1.083515 S    
O6    Cu1   1.959097 S    
C24   I2    2.121891 S    
C22   C24   1.411664 A    
C24   N1    1.383688 A    
C6    N4    1.440641 S    
C6    C8    1.402457 A    
C21   H9    1.081955 S    
O8    Cu2   1.959219 S    
C9    C12   1.421405 A    
C19   H7    1.082680 S    
C13   C14   1.380975 A    
O2    Cu1   1.964460 S    
C3    C11   1.464584 S    
C5    C7    1.402450 A    
C21   C23   1.411689 A    
C16   C17   1.401420 A    
C17   C19   1.400941 A    
H1    C13   1.083475 S    
C15   C18   1.401405 A    
C23   I1    2.121953 S    
N3    O9    1.301616 A    
C5    N3    1.440624 S    
C8    H4    1.082710 S    
C22   H10   1.081955 S    
Cu2   N2    2.017459 S    
