data_mof_unit_13538.cif
_audit_creation_date              2012-10-26T20:32:57-0400
_audit_creation_method            fapswitch 2.2
_symmetry_space_group_name_H-M    P1
_symmetry_Int_Tables_number       1
_space_group_crystal_system       triclinic
_cell_length_a                    27.767582
_cell_length_b                    10.818282
_cell_length_c                    9.641689
_cell_angle_alpha                 89.602964
_cell_angle_beta                  89.055819
_cell_angle_gamma                 90.489349
_cell_volume                      2895.7683031

loop_
_atom_site_label
_atom_site_type_symbol
_atom_type_description
_atom_site_fract_x
_atom_site_fract_y
_atom_site_fract_z
_atom_type_partial_charge
C1    C     C_R   0.500516 0.262746 0.500282 0.540360
C2    C     C_R   0.974126 0.395718 0.509254 0.017707
C3    C     C_R   0.975366 0.622215 0.527537 0.016057
C4    C     C_R   0.407770 0.497858 0.500571 0.542167
C5    C     C_R   0.949477 0.509399 0.516901 0.032684
C6    C     C_R   0.947056 0.284684 0.515781 -0.144095
C7    C     C_R   0.896959 0.286486 0.522210 -0.112039
C8    C     C_R   0.872321 0.398781 0.516184 0.027695
C9    C     C_R   0.898584 0.510409 0.510617 -0.027209
C10   C     C_R   0.874058 0.622900 0.497075 0.027877
C11   C     C_R   0.823664 0.621386 0.486387 0.397648
C12   C     C_R   0.277028 0.413367 0.568800 -0.051603
C13   C     C_R   0.821852 0.402109 0.515887 0.394709
C14   C     C_R   0.722213 0.431792 0.403263 -0.036805
C15   C     C_R   0.671793 0.423674 0.404938 -0.032122
C16   C     C_R   0.499777 0.737336 0.499670 0.543317
C17   C     C_R   0.669396 0.588311 0.575846 -0.178713
C18   C     C_R   0.719480 0.590615 0.578818 -0.068130
C19   C     C_R   0.746399 0.512453 0.492543 0.216106
C20   C     C_R   0.024847 0.397446 0.492743 0.018001
C21   C     C_R   0.050632 0.508614 0.518416 0.021771
C22   C     C_R   0.025801 0.619264 0.550894 0.029772
C23   C     C_R   0.253805 0.506745 0.494319 0.238384
C24   C     C_R   0.050590 0.292519 0.448425 -0.143751
C25   C     C_R   0.103211 0.717220 0.601453 -0.098830
C26   C     C_R   0.950346 0.733296 0.504852 -0.151664
C27   C     C_R   0.900509 0.733702 0.490247 -0.116850
C28   C     C_R   0.592268 0.499926 0.498386 0.545376
C29   C     C_R   0.052771 0.720507 0.605240 -0.017086
C30   C     C_R   0.505558 0.062975 0.624117 0.010770
C31   C     C_R   0.504029 0.129614 0.499911 0.003715
C32   C     C_R   0.507256 0.065550 0.373774 -0.161883
C33   C     C_R   0.506131 0.936957 0.373401 -0.170053
C34   C     C_R   0.101583 0.508663 0.512048 -0.032676
C35   C     C_R   0.502240 0.870840 0.499074 0.007134
C36   C     C_R   0.503954 0.935773 0.623749 0.034580
C37   C     C_3   0.472318 0.930673 0.751714 -0.131040
C38   C     C_3   0.474684 0.071537 0.752020 -0.246791
C39   C     C_R   0.541734 0.506940 0.070858 0.151706
C40   C     C_R   0.176722 0.407451 0.453493 0.390823
C41   C     C_R   0.459391 0.475700 0.078533 0.002794
C42   C     C_R   0.459281 0.470599 0.931291 0.082601
C43   C     C_R   0.542336 0.498330 0.925741 0.158361
C44   C     C_3   0.586635 0.578658 0.915288 -0.132988
C45   C     C_R   0.126346 0.403380 0.465546 0.029762
C46   C     C_3   0.581906 0.599884 0.072147 -0.129205
C47   C     C_R   0.178421 0.610130 0.549231 0.390278
C48   C     C_R   0.281684 0.593439 0.416473 0.043637
C49   C     C_R   0.331954 0.590162 0.424346 -0.146807
C50   C     C_R   0.327164 0.403473 0.566070 -0.034890
C51   C     C_3   0.348522 0.286563 0.623101 -0.410282
C52   C     C_3   0.259666 0.687371 0.321047 -0.348099
C53   C     C_3   0.030474 0.824426 0.687515 -0.407109
C54   C     C_3   0.421377 0.879735 0.728345 -0.399667
C55   C     C_3   0.415396 0.411779 0.872009 -0.353187
C56   C     C_R   0.100421 0.296402 0.432503 -0.113218
C57   C     C_3   0.632149 0.502668 0.883459 -0.417473
C58   C     C_3   0.566485 0.731479 0.107213 -0.395230
C59   C     C_3   0.647623 0.326433 0.318067 -0.381880
C60   C     C_R   0.127825 0.613569 0.552520 0.008715
C61   C     C_R   0.354968 0.497314 0.500007 0.011342
C62   C     C_R   0.645132 0.502997 0.492938 0.012967
Cu1   Cu    Cu3+1 0.500000 0.499980 0.640670 0.916646
Cu2   Cu    Cu3+1 0.500000 0.500020 0.359330 0.918976
H1    H     H_    0.123260 0.795617 0.640715 0.165724
H2    H     H_    0.330791 0.205423 0.575005 0.145902
H3    H     H_    0.387518 0.278857 0.599154 0.133091
H4    H     H_    0.342085 0.281228 0.736837 0.125200
H5    H     H_    0.277030 0.681656 0.216709 0.115671
H6    H     H_    0.220546 0.671906 0.307137 0.160029
H7    H     H_    0.265588 0.781646 0.362576 0.157612
H8    H     H_    0.649391 0.652097 0.640401 0.118345
H9    H     H_    0.882816 0.821378 0.474204 0.164793
H10   H     H_    0.052364 0.844408 0.780321 0.138311
H11   H     H_    0.029346 0.909795 0.623128 0.123405
H12   H     H_    0.969121 0.820500 0.492327 0.121125
H13   H     H_    0.994048 0.799771 0.728274 0.148607
H14   H     H_    0.508375 0.114146 0.275159 0.138267
H15   H     H_    0.422129 0.777551 0.720260 0.170377
H16   H     H_    0.397776 0.903994 0.817968 0.132418
H17   H     H_    0.405768 0.918798 0.632230 0.142421
H18   H     H_    0.255581 0.344458 0.624510 0.143808
H19   H     H_    0.490603 0.887808 0.841641 0.139560
H20   H     H_    0.439832 0.118014 0.732533 0.129025
H21   H     H_    0.426620 0.343616 0.793360 0.171552
H22   H     H_    0.394704 0.357205 0.951243 0.071239
H23   H     H_    0.737309 0.652966 0.649176 0.151891
H24   H     H_    0.390495 0.483451 0.833613 0.159438
H25   H     H_    0.629504 0.452635 0.784657 0.181544
H26   H     H_    0.664115 0.564968 0.879736 0.136583
H27   H     H_    0.638116 0.430718 0.964169 0.122634
H28   H     H_    0.582133 0.661599 0.847959 0.157820
H29   H     H_    0.613207 0.569293 0.133686 0.150575
H30   H     H_    0.529955 0.751834 0.067934 0.135152
H31   H     H_    0.567217 0.743555 0.221030 0.173108
H32   H     H_    0.592582 0.798689 0.060430 0.120568
H33   H     H_    0.118611 0.214322 0.395989 0.163749
H34   H     H_    0.506101 0.890323 0.274637 0.128525
H35   H     H_    0.674303 0.264946 0.267095 0.127676
H36   H     H_    0.623515 0.267897 0.384607 0.145897
H37   H     H_    0.626315 0.370309 0.235329 0.140764
H38   H     H_    0.742969 0.373044 0.334623 0.146164
H39   H     H_    0.353405 0.658999 0.368358 0.115991
H40   H     H_    0.494977 0.109205 0.840956 0.127433
H41   H     H_    0.426733 0.455059 0.136874 0.137040
H42   H     H_    0.877620 0.199170 0.528264 0.165905
H43   H     H_    0.963926 0.195227 0.520416 0.105922
H44   H     H_    0.032748 0.207707 0.419518 0.108511
N1    N     N_R   0.201892 0.509344 0.496588 -0.396937
N2    N     N_R   0.798328 0.512142 0.498313 -0.395653
N3    N     N_R   0.500300 0.500930 0.147930 -0.246614
N4    N     N_R   0.500310 0.500890 0.852020 -0.228722
O1    O     O_R   0.500000 0.319640 0.618810 -0.506052
O2    O     O_R   0.569730 0.499960 0.618810 -0.506995
O3    O     O_R   0.569740 0.500000 0.381220 -0.503477
O4    O     O_2   0.200408 0.310114 0.399326 -0.510052
O5    O     O_2   0.796542 0.296033 0.534376 -0.505821
O6    O     O_2   0.203950 0.706383 0.598864 -0.509563
O7    O     O_2   0.800318 0.728189 0.462813 -0.503832
O8    O     O_R   0.500010 0.319680 0.381230 -0.505305
O9    O     O_R   0.430260 0.500000 0.618780 -0.515857
O10   O     O_R   0.430270 0.500040 0.381190 -0.509363
O11   O     O_R   0.499990 0.680320 0.618770 -0.499408
O12   O     O_R   0.500000 0.680360 0.381190 -0.508787

loop_
_geom_bond_atom_site_label_1
_geom_bond_atom_site_label_2
_ccdc_geom_bond_type
C10   C27   A    
C8    C13   A    
C22   C29   A    
C59   H35   S    
C41   C42   A    
C53   H10   S    
C43   C44   S    
C11   O7    S    
C7    C8    A    
C2    C6    A    
C12   C23   A    
C26   C27   A    
C13   N2    A    
C57   H25   S    
C36   C37   S    
C16   O11   A    
C33   H34   S    
C16   C35   S    
C30   C31   A    
C17   C62   A    
C14   H38   S    
C1    C31   S    
C30   C38   S    
C18   C19   A    
Cu1   N4    S    
C58   H32   S    
C38   H40   S    
C52   H5    S    
C47   C60   A    
Cu1   O2    S    
C47   O6    S    
C20   C24   A    
C45   C56   A    
C8    C9    A    
C26   H12   S    
C6    H43   S    
C24   H44   S    
C25   C60   A    
C9    C10   A    
C44   H28   S    
C39   N3    A    
Cu2   O3    S    
C21   C22   A    
C46   C58   S    
C11   N2    A    
C34   C60   A    
C59   H36   S    
C53   H11   S    
C1    O1    A    
C56   H33   S    
Cu1   O9    S    
C44   C46   S    
C50   C51   S    
C54   H16   S    
C25   C29   A    
C40   C45   A    
C23   N1    S    
C49   C61   A    
C57   H26   S    
C4    O10   A    
C59   H37   S    
C25   H1    S    
Cu2   N3    S    
C42   N4    A    
C21   C34   A    
Cu2   O12   S    
C2    C20   A    
C4    C61   S    
C1    O8    A    
C55   H21   S    
C53   H13   S    
C58   H31   S    
C5    C9    A    
C37   C38   S    
C28   O3    A    
C42   C55   S    
C13   O5    S    
C31   C32   A    
C44   C57   S    
C17   C18   A    
C7    H42   S    
C12   H18   S    
C34   C45   A    
C51   H3    S    
C40   N1    A    
C41   H41   S    
C39   C46   S    
C37   C54   S    
C48   C49   A    
C2    C5    A    
C43   N4    A    
C51   H2    S    
C54   H15   S    
C19   N2    S    
C23   C48   A    
C57   H27   S    
C38   H20   S    
C15   C59   S    
C14   C19   A    
C3    C26   A    
C3    C5    A    
C49   H39   S    
Cu1   O11   S    
C6    C7    A    
C24   C56   A    
C18   H23   S    
Cu2   O8    S    
C30   C36   A    
C32   C33   A    
C55   H22   S    
C16   O12   A    
C52   H7    S    
C47   N1    A    
C40   O4    S    
C46   H29   S    
C29   C53   S    
Cu2   O10   S    
C28   O2    A    
C33   C35   A    
C15   C62   A    
C4    O9    A    
C55   H24   S    
C51   H4    S    
C58   H30   S    
C52   H6    S    
C10   C11   A    
C32   H14   S    
Cu1   Cu2   S    
Cu1   O1    S    
C48   C52   S    
C20   C21   A    
C39   C43   A    
C17   H8    S    
C41   N3    A    
C50   C61   A    
C14   C15   A    
C37   H19   S    
C3    C22   A    
C35   C36   A    
C27   H9    S    
C12   C50   A    
C54   H17   S    
C28   C62   S    
