data_mof_unit_37552.cif
_audit_creation_date              2012-10-26T20:21:32-0400
_audit_creation_method            fapswitch 2.2
_symmetry_space_group_name_H-M    P1
_symmetry_Int_Tables_number       1
_space_group_crystal_system       triclinic
_cell_length_a                    10.76601
_cell_length_b                    9.700107
_cell_length_c                    11.705298
_cell_angle_alpha                 89.993866
_cell_angle_beta                  94.961001
_cell_angle_gamma                 89.888195
_cell_volume                      1217.81949469

loop_
_atom_site_label
_atom_site_type_symbol
_atom_type_description
_atom_site_fract_x
_atom_site_fract_y
_atom_site_fract_z
_atom_type_partial_charge
C1    C     C_R   0.262989 0.500051 0.499703 0.572484
C2    C     C_R   0.925998 0.540072 0.400179 0.058428
C3    C     C_R   0.944199 0.460237 0.599441 0.096346
C4    C     C_R   0.055799 0.539765 0.400560 0.096341
C5    C     C_R   0.871039 0.499975 0.499836 0.026066
C6    C     C_R   0.128960 0.500023 0.500166 0.026074
C7    C     C_R   0.418505 0.074321 0.425380 0.128353
C8    C     C_R   0.581493 0.925678 0.574622 0.128355
C9    C     C_R   0.581444 0.073819 0.574618 0.125860
C10   C     C_R   0.418561 0.926181 0.425376 0.125858
C11   C     C_3   0.325226 0.146006 0.340081 -0.333518
C12   C     C_R   0.737011 0.499948 0.500300 0.572484
C13   C     C_3   0.674759 0.853993 0.659933 -0.333516
C14   C     C_3   0.674567 0.145004 0.659860 -0.333579
C15   C     C_3   0.325481 0.854992 0.340096 -0.333583
C16   C     C_R   0.499339 0.500012 0.284359 0.537384
C17   C     C_R   0.500661 0.499987 0.715641 0.537384
C18   C     C_1   0.499500 0.500034 0.162519 -0.023038
C19   C     C_1   0.500500 0.499966 0.837481 -0.023034
C20   C     C_1   0.499796 0.500020 0.059966 -0.037682
C21   C     C_1   0.500203 0.499980 0.940034 -0.037681
C22   C     C_R   0.074000 0.459912 0.599813 0.058419
Cu1   Cu    Cu3+1 0.500000 0.640660 0.500000 0.917682
Cu2   Cu    Cu3+1 0.500000 0.359340 0.500000 0.917676
H1    H     H_    0.208354 0.502817 0.726922 0.234490
H2    H     H_    0.342556 0.116423 0.251310 0.097854
H3    H     H_    0.228848 0.117253 0.357059 0.098347
H4    H     H_    0.674343 0.742436 0.660220 0.206085
H5    H     H_    0.771143 0.882769 0.642993 0.098323
H6    H     H_    0.657390 0.883547 0.748703 0.097871
H7    H     H_    0.673647 0.256427 0.659785 0.220973
H8    H     H_    0.657290 0.115631 0.748671 0.097005
H9    H     H_    0.770961 0.116003 0.642841 0.099644
H10   H     H_    0.326345 0.743575 0.340225 0.220977
H11   H     H_    0.229080 0.884046 0.357010 0.099572
H12   H     H_    0.202268 0.335347 0.684861 0.254052
H13   H     H_    0.342866 0.884299 0.251306 0.097060
H14   H     H_    0.791653 0.497086 0.273072 0.234485
H15   H     H_    0.797707 0.664598 0.315079 0.254039
H16   H     H_    0.914385 0.323334 0.724597 0.246590
H17   H     H_    0.917326 0.490405 0.766597 0.250682
H18   H     H_    0.085610 0.676687 0.275422 0.246579
H19   H     H_    0.082676 0.509623 0.233404 0.250694
H20   H     H_    0.325662 0.257562 0.339774 0.206083
N1    N     N_R   0.500000 0.852070 0.500000 -0.224687
N2    N     N_R   0.500000 0.147930 0.500000 -0.224686
N3    N     N_3   0.148462 0.421278 0.702533 -0.637182
N4    N     N_3   0.851532 0.578659 0.297435 -0.637155
N5    N     N_3   0.885798 0.423066 0.700671 -0.642497
N6    N     N_3   0.114201 0.576952 0.299338 -0.642495
O1    O     O_R   0.319640 0.618740 0.499990 -0.498809
O2    O     O_R   0.680360 0.381260 0.500010 -0.498816
O3    O     O_R   0.680360 0.618740 0.500010 -0.520288
O4    O     O_R   0.319640 0.381260 0.499990 -0.520293
O5    O     O_R   0.500010 0.618790 0.337200 -0.509280
O6    O     O_R   0.499990 0.381210 0.662800 -0.509281
O7    O     O_R   0.499990 0.618790 0.662800 -0.507750
O8    O     O_R   0.500010 0.381210 0.337200 -0.507750

loop_
_geom_bond_atom_site_label_1
_geom_bond_atom_site_label_2
_ccdc_geom_bond_type
Cu2   O2    S    
C7    C10   A    
C2    C4    A    
C1    O4    A    
H19   N6    S    
Cu1   O5    S    
C8    C13   S    
Cu1   N1    S    
C12   O2    A    
Cu2   O6    S    
H1    N3    S    
C15   H10   S    
Cu1   O1    S    
C12   O3    A    
C11   H3    S    
C14   H7    S    
C9    C14   S    
Cu2   N2    S    
C14   H9    S    
C22   N3    S    
C3    N5    S    
C16   O5    A    
C11   H20   S    
C13   H4    S    
C16   O8    A    
C7    C11   S    
C1    O1    A    
C17   O6    A    
H18   N6    S    
Cu1   O7    S    
C16   C18   S    
C19   C21   T    
Cu1   O3    S    
C18   C20   T    
C10   C15   S    
H12   N3    S    
C2    C5    A    
C13   H5    S    
Cu1   Cu2   S    
Cu2   O4    S    
C1    C6    S    
C6    C22   A    
C7    N2    A    
C13   H6    S    
C9    N2    A    
C14   H8    S    
C20   C21   S    
C5    C12   S    
Cu2   O8    S    
C4    C6    A    
C10   N1    A    
C17   O7    A    
C15   H11   S    
C8    N1    A    
C17   C19   S    
C3    C22   A    
C8    C9    A    
C11   H2    S    
C2    N4    S    
H14   N4    S    
H17   N5    S    
C15   H13   S    
H16   N5    S    
C4    N6    S    
H15   N4    S    
C3    C5    A    
