data_mof_unit_36473.cif
_audit_creation_date              2012-12-10T17:20:58-0500
_audit_creation_method            fapswitch 2.2
_symmetry_space_group_name_H-M    P1
_symmetry_Int_Tables_number       1
_space_group_crystal_system       triclinic
_cell_length_a                    18.310904
_cell_length_b                    25.784111
_cell_length_c                    18.262524
_cell_angle_alpha                 89.794244
_cell_angle_beta                  90.032849
_cell_angle_gamma                 90.183912
_cell_volume                      8622.19104232

loop_
_atom_site_label
_atom_site_type_symbol
_atom_type_description
_atom_site_fract_x
_atom_site_fract_y
_atom_site_fract_z
_atom_type_partial_charge
C1    C     C_R   0.389347 0.249732 0.140098 0.787727
C2    C     C_R   0.417800 0.117732 0.725145 -0.237009
C3    C     C_R   0.898822 0.320178 0.099556 0.421659
C4    C     C_R   0.405496 0.667341 0.392192 0.380311
C5    C     C_R   0.582134 0.382063 0.782150 0.516817
C6    C     C_R   0.433913 0.136783 0.365111 0.417253
C7    C     C_R   0.397758 0.813758 0.595327 0.513039
C8    C     C_R   0.010492 0.339374 0.844915 0.428387
C9    C     C_R   0.952587 0.782022 0.104960 0.466757
C10   C     C_R   0.985666 0.678798 0.871355 0.423061
C11   C     C_R   0.969950 0.301017 0.113498 0.415521
C12   C     C_R   0.454667 0.709738 0.390251 0.476538
C13   C     C_R   0.559359 0.359916 0.129137 -0.193943
C14   C     C_R   0.597355 0.337243 0.741857 0.421498
C15   C     C_R   0.493567 0.171905 0.363224 0.405636
C16   C     C_R   0.469540 0.799784 0.612811 0.417084
C17   C     C_R   0.384079 0.047502 0.042734 -0.111938
C18   C     C_R   0.387199 0.953603 0.968945 -0.115710
C19   C     C_R   0.753305 0.554250 0.629220 -0.140711
C20   C     C_R   0.755980 0.446548 0.629895 -0.087207
C21   C     C_R   0.450710 0.023657 0.028462 -0.138705
C22   C     C_R   0.452379 0.977747 0.988969 -0.148904
C23   C     C_R   0.756504 0.527454 0.695366 -0.154880
C24   C     C_R   0.602109 0.693666 0.909489 -0.247121
C25   C     C_R   0.758009 0.473706 0.695654 -0.069343
C26   C     C_R   0.318836 0.975018 0.988794 0.076230
C27   C     C_R   0.317692 0.025510 0.017559 0.071895
C28   C     C_R   0.753199 0.473112 0.561710 0.038819
C29   C     C_R   0.751783 0.527414 0.561324 0.064137
C30   C     C_R   0.251908 0.947913 0.979815 -0.211828
C31   C     C_R   0.250430 0.052248 0.021275 -0.208578
C32   C     C_R   0.754419 0.446491 0.494410 -0.130325
C33   C     C_R   0.747713 0.553909 0.493686 -0.117369
C34   C     C_R   0.185284 0.975705 0.980564 0.025381
C35   C     C_R   0.031087 0.120817 0.663420 -0.255590
C36   C     C_R   0.184067 0.024084 0.016017 0.036070
C37   C     C_R   0.759360 0.473112 0.425947 0.017747
C38   C     C_R   0.746061 0.527461 0.425072 0.012077
C39   C     C_R   0.119324 0.957189 0.948330 0.224800
C40   C     C_R   0.116187 0.042060 0.044124 0.262536
C41   C     C_R   0.777343 0.447981 0.358121 0.189370
C42   C     C_R   0.733211 0.552553 0.355383 0.200366
C43   C     C_R   0.052773 0.979375 0.968797 -0.190032
C44   C     C_R   0.051123 0.019524 0.019347 -0.196731
C45   C     C_R   0.765218 0.473732 0.291977 -0.182695
C46   C     C_R   0.093734 0.667594 0.385991 -0.239143
C47   C     C_R   0.741394 0.524317 0.290706 -0.163757
C48   C     C_R   0.249997 0.108993 0.008389 0.830394
C49   C     C_R   0.250390 0.891080 0.991992 0.827409
C50   C     C_R   0.749582 0.609443 0.496492 0.815863
C51   C     C_R   0.750700 0.390719 0.496942 0.830695
C52   C     C_R   0.249833 0.391380 0.999814 0.758453
C53   C     C_R   0.249841 0.608606 0.999990 0.754623
C54   C     C_R   0.749840 0.891385 0.499812 0.752143
C55   C     C_R   0.749843 0.108611 0.499982 0.773803
C56   C     C_3   0.180900 0.469729 0.039208 -0.380914
C57   C     C_R   0.068090 0.853527 0.622648 -0.196912
C58   C     C_3   0.249493 0.529949 0.919917 -0.372329
C59   C     C_3   0.180944 0.529695 0.039418 -0.376721
C60   C     C_3   0.249498 0.470423 0.919780 -0.377231
C61   C     C_3   0.680884 0.969750 0.539137 -0.400911
C62   C     C_3   0.749600 0.029965 0.419884 -0.385115
C63   C     C_3   0.680883 0.029716 0.539278 -0.367378
C64   C     C_3   0.749583 0.970435 0.419751 -0.373733
C65   C     C_3   0.318720 0.470046 0.038966 -0.396530
C66   C     C_3   0.318694 0.529987 0.039149 -0.401163
C67   C     C_3   0.818691 0.970071 0.539023 -0.394081
C68   C     C_R   0.099559 0.189090 0.408093 -0.241414
C69   C     C_3   0.818665 0.030011 0.539203 -0.406554
C70   C     C_3   0.249730 0.449092 0.999429 0.174031
C71   C     C_3   0.249735 0.550867 0.999680 0.176618
C72   C     C_3   0.749743 0.949107 0.499414 0.188130
C73   C     C_3   0.749742 0.050882 0.499651 0.175831
C74   C     C_R   0.101823 0.166126 0.754839 0.436890
C75   C     C_R   0.096692 0.662017 0.254014 0.508262
C76   C     C_R   0.121264 0.819933 0.734897 0.442715
C77   C     C_R   0.137866 0.202006 0.282805 0.437964
C78   C     C_R   0.592422 0.840555 0.251347 0.508817
C79   C     C_R   0.538455 0.799703 0.120732 -0.125492
C80   C     C_R   0.508367 0.162898 0.652854 0.436088
C81   C     C_R   0.616284 0.323779 0.237921 0.452799
C82   C     C_R   0.637722 0.702071 0.782682 0.439710
C83   C     C_R   0.089340 0.122430 0.711695 -0.116965
C84   C     C_R   0.119467 0.644292 0.322621 -0.131100
C85   C     C_R   0.123307 0.853823 0.674363 -0.231320
C86   C     C_R   0.152318 0.185415 0.354148 -0.121268
C87   C     C_R   0.613916 0.861607 0.184165 -0.137711
C88   C     C_R   0.466449 0.118747 0.667183 -0.119873
C89   C     C_R   0.615340 0.359924 0.179919 -0.222827
C90   C     C_R   0.410181 0.160998 0.769427 -0.152370
C91   C     C_R   0.653604 0.687736 0.854678 -0.118483
C92   C     C_3   0.118074 0.919377 0.885547 -0.808276
C93   C     C_3   0.111018 0.079297 0.107372 -0.888422
C94   C     C_3   0.819791 0.397923 0.352708 -0.855505
C95   C     C_3   0.706275 0.607586 0.345346 -0.868449
C96   C     C_R   0.503510 0.323810 0.134678 -0.158784
C97   C     C_R   0.389935 0.749968 0.860155 0.773266
C98   C     C_R   0.533685 0.713556 0.892891 -0.182099
C99   C     C_R   0.984530 0.162978 0.657523 -0.168595
C100  C     C_R   0.040277 0.705765 0.381403 -0.124964
C101  C     C_R   0.009867 0.819448 0.629887 -0.168682
C102  C     C_R   0.031535 0.209555 0.391478 -0.162245
C103  C     C_R   0.512790 0.779350 0.188072 0.037426
C104  C     C_R   0.454355 0.205699 0.759059 0.027169
C105  C     C_R   0.501958 0.286806 0.192218 0.017530
C106  C     C_R   0.516500 0.730837 0.821167 0.039070
C107  C     C_R   0.993082 0.207081 0.702933 0.044586
C108  C     C_R   0.393401 0.746901 0.137533 0.794492
C109  C     C_R   0.013535 0.722687 0.312666 0.036073
C110  C     C_R   0.005225 0.784692 0.689922 0.021441
C111  C     C_R   0.015628 0.229038 0.320564 0.036841
C112  C     C_R   0.050742 0.208440 0.754419 -0.064436
C113  C     C_R   0.050784 0.706650 0.249145 -0.072349
C114  C     C_R   0.060829 0.784715 0.743786 0.007725
C115  C     C_R   0.069659 0.226754 0.265293 -0.061079
C116  C     C_R   0.548979 0.794376 0.252853 -0.070870
C117  C     C_R   0.506386 0.206442 0.701819 -0.041307
C118  C     C_R   0.558051 0.286719 0.245500 0.006515
C119  C     C_R   0.389549 0.249865 0.859866 0.773690
C120  C     C_R   0.569971 0.727403 0.765500 -0.034678
C121  C     C_R   0.453624 0.743726 0.192287 -0.146508
C122  C     C_R   0.445638 0.249958 0.803539 -0.076807
C123  C     C_R   0.445356 0.249830 0.196394 -0.074835
C124  C     C_R   0.446278 0.749921 0.803926 -0.081104
C125  C     C_R   0.945608 0.249868 0.696636 -0.074305
C126  C     C_R   0.952165 0.755864 0.305864 -0.142216
C127  C     C_R   0.945891 0.749978 0.696265 -0.077622
C128  C     C_R   0.946258 0.249789 0.304141 -0.078089
C129  C     C_R   0.443859 0.713940 0.257259 0.005124
C130  C     C_R   0.889728 0.750003 0.639868 0.787913
C131  C     C_R   0.490421 0.294234 0.794906 0.042576
C132  C     C_R   0.442306 0.212513 0.252989 0.006399
C133  C     C_R   0.429676 0.769133 0.733286 0.036320
C134  C     C_R   0.951416 0.293171 0.743455 0.011116
C135  C     C_R   0.940148 0.782432 0.238249 0.008809
C136  C     C_R   0.939806 0.715083 0.755691 0.006623
C137  C     C_R   0.930290 0.271101 0.234657 0.014583
C138  C     C_R   0.006378 0.294631 0.797901 -0.049639
C139  C     C_R   0.978772 0.766933 0.175250 -0.036686
C140  C     C_R   0.993853 0.714560 0.811085 -0.075438
C141  C     C_R   0.890058 0.249788 0.360397 0.776244
C142  C     C_R   0.985326 0.273709 0.180543 -0.050345
C143  C     C_R   0.480687 0.728656 0.321709 -0.038456
C144  C     C_R   0.548352 0.293531 0.743785 -0.126192
C145  C     C_R   0.497394 0.211346 0.307302 -0.070585
C146  C     C_R   0.485551 0.773238 0.680269 -0.138646
C147  C     C_R   0.054996 0.251378 0.803330 -0.158297
C148  C     C_R   0.041855 0.736088 0.184089 -0.162366
C149  C     C_R   0.054139 0.749679 0.804221 -0.160932
C150  C     C_R   0.054152 0.249951 0.195901 -0.153299
C151  C     C_R   0.541507 0.762527 0.315832 -0.150725
C152  C     C_R   0.889972 0.249725 0.639780 0.772822
C153  C     C_R   0.554481 0.249936 0.696199 -0.143924
C154  C     C_R   0.554448 0.249350 0.303483 -0.156412
C155  C     C_R   0.554450 0.750128 0.695935 -0.146597
C156  C     C_R   0.399638 0.668986 0.259788 -0.183615
C157  C     C_R   0.479363 0.338964 0.838216 -0.219349
C158  C     C_R   0.384312 0.176315 0.255978 -0.190689
C159  C     C_R   0.358332 0.785781 0.715265 -0.217142
C160  C     C_R   0.901513 0.334676 0.737527 -0.207142
C161  C     C_R   0.892381 0.825136 0.231380 -0.185608
C162  C     C_R   0.879899 0.680606 0.760366 -0.176328
C163  C     C_R   0.892958 0.752908 0.361851 0.787987
C164  C     C_R   0.860340 0.291448 0.219342 -0.229472
C165  C     C_R   0.381394 0.645778 0.326142 -0.314829
C166  C     C_R   0.522964 0.382576 0.830184 -0.368134
C167  C     C_R   0.379962 0.139583 0.311199 -0.307982
C168  C     C_R   0.342275 0.806166 0.646740 -0.369562
C169  C     C_R   0.905660 0.377130 0.783365 -0.293982
C170  C     C_R   0.873105 0.844691 0.163001 -0.323739
C171  C     C_R   0.872443 0.646433 0.818452 -0.308642
C172  C     C_R   0.844692 0.314703 0.152814 -0.321698
C173  C     C_R   0.109780 0.250642 0.860466 1.004590
C174  C     C_R   0.589443 0.839872 0.119096 -0.247901
C175  C     C_R   0.105852 0.745225 0.135470 0.870351
C176  C     C_R   0.110173 0.749925 0.860196 1.080960
C177  C     C_R   0.110157 0.249986 0.139894 0.991816
C178  C     C_R   0.605733 0.754462 0.364481 0.875288
C179  C     C_R   0.610384 0.250092 0.640114 0.902504
C180  C     C_R   0.610286 0.250001 0.359934 1.070183
C181  C     C_R   0.610220 0.749981 0.639854 0.915927
C182  C     C_R   0.959417 0.380136 0.837260 0.435032
C183  C     C_R   0.900005 0.821827 0.099054 0.390315
C184  C     C_R   0.924495 0.645013 0.874328 0.420218
H1    H     H_    0.179496 0.455212 0.096657 0.190848
H2    H     H_    0.436596 0.341249 0.878815 0.163729
H3    H     H_    0.831763 0.355031 0.032576 0.336798
H4    H     H_    0.348374 0.618224 0.449952 0.340849
H5    H     H_    0.610315 0.452614 0.807387 0.317622
H6    H     H_    0.384477 0.079135 0.414003 0.335179
H7    H     H_    0.331180 0.844267 0.524293 0.319492
H8    H     H_    0.193058 0.198143 0.777071 0.309714
H9    H     H_    0.080930 0.640271 0.153653 0.329751
H10   H     H_    0.214529 0.847609 0.769959 0.309748
H11   H     H_    0.167978 0.169716 0.194469 0.298606
H12   H     H_    0.576215 0.857918 0.353306 0.340203
H13   H     H_    0.340999 0.176058 0.215663 0.184573
H14   H     H_    0.530726 0.193227 0.560411 0.336891
H15   H     H_    0.710283 0.350621 0.269959 0.318075
H16   H     H_    0.662103 0.667011 0.694369 0.309509
H17   H     H_    0.313700 0.782981 0.753662 0.199877
H18   H     H_    0.857693 0.334764 0.697767 0.163639
H19   H     H_    0.871851 0.845730 0.278369 0.192973
H20   H     H_    0.837713 0.679515 0.718902 0.189874
H21   H     H_    0.816488 0.289942 0.258831 0.191644
H22   H     H_    0.866278 0.407908 0.776982 0.148150
H23   H     H_    0.835590 0.877028 0.160014 0.156772
H24   H     H_    0.825491 0.620798 0.819770 0.150150
H25   H     H_    0.298465 0.544358 0.889882 0.180246
H26   H     H_    0.790118 0.329398 0.143362 0.157534
H27   H     H_    0.346466 0.611797 0.325977 0.160915
H28   H     H_    0.511685 0.416424 0.863222 0.151151
H29   H     H_    0.334064 0.112971 0.311708 0.158576
H30   H     H_    0.286689 0.817629 0.634672 0.165128
H31   H     H_    0.998889 0.033512 0.038747 0.157963
H32   H     H_    0.001889 0.964960 0.946263 0.165625
H33   H     H_    0.731904 0.542162 0.237745 0.147917
H34   H     H_    0.775795 0.454832 0.240143 0.142476
H35   H     H_    0.384993 0.082546 0.075111 0.157453
H36   H     H_    0.179671 0.543753 0.096956 0.210724
H37   H     H_    0.391119 0.918954 0.936051 0.160118
H38   H     H_    0.751946 0.596140 0.632193 0.130922
H39   H     H_    0.757938 0.404682 0.633228 0.157209
H40   H     H_    0.501135 0.041386 0.046808 0.143514
H41   H     H_    0.504187 0.960347 0.974809 0.139145
H42   H     H_    0.757707 0.548485 0.746547 0.135289
H43   H     H_    0.760658 0.453015 0.747136 0.171130
H44   H     H_    0.130716 0.455270 0.011437 0.179208
H45   H     H_    0.200336 0.544143 0.890136 0.192060
H46   H     H_    0.130751 0.544203 0.011816 0.177892
H47   H     H_    0.298483 0.456416 0.889736 0.178966
H48   H     H_    0.200337 0.456173 0.889978 0.192878
H49   H     H_    0.630725 0.955263 0.511362 0.178634
H50   H     H_    0.700487 0.044168 0.390036 0.191742
H51   H     H_    0.630732 0.044200 0.511560 0.182846
H52   H     H_    0.700454 0.956197 0.389893 0.213494
H53   H     H_    0.320375 0.455551 0.096421 0.186229
H54   H     H_    0.368753 0.544687 0.011331 0.151813
H55   H     H_    0.320271 0.544061 0.096679 0.181895
H56   H     H_    0.368783 0.455807 0.011044 0.149086
H57   H     H_    0.820289 0.955579 0.596481 0.185625
H58   H     H_    0.679460 0.955262 0.596602 0.182998
H59   H     H_    0.868763 0.044723 0.511463 0.150414
H60   H     H_    0.820187 0.044086 0.596731 0.184332
H61   H     H_    0.868782 0.955840 0.511159 0.149178
H62   H     H_    0.127122 0.090213 0.713548 0.155538
H63   H     H_    0.156505 0.611750 0.326759 0.156381
H64   H     H_    0.168336 0.880679 0.667025 0.126791
H65   H     H_    0.204411 0.167839 0.367190 0.158053
H66   H     H_    0.649067 0.895448 0.182505 0.151339
H67   H     H_    0.469530 0.085638 0.630984 0.169892
H68   H     H_    0.658694 0.388297 0.173795 0.124767
H69   H     H_    0.798615 0.044366 0.389916 0.177547
H70   H     H_    0.705537 0.669919 0.867634 0.155774
H71   H     H_    0.607948 0.855422 0.067159 0.162786
H72   H     H_    0.384140 0.083756 0.734536 0.165493
H73   H     H_    0.559499 0.387873 0.084751 0.149407
H74   H     H_    0.614464 0.681283 0.964825 0.157780
H75   H     H_    0.023035 0.087227 0.628895 0.152404
H76   H     H_    0.113103 0.654652 0.438987 0.171323
H77   H     H_    0.070544 0.879808 0.576334 0.148305
H78   H     H_    0.110885 0.174996 0.462845 0.162292
H79   H     H_    0.521588 0.783645 0.068784 0.166689
H80   H     H_    0.679470 0.043810 0.596792 0.191434
H81   H     H_    0.369069 0.158712 0.811780 0.164089
H82   H     H_    0.461573 0.325320 0.092958 0.123553
H83   H     H_    0.494709 0.715200 0.937253 0.138411
H84   H     H_    0.941557 0.160217 0.617081 0.137361
H85   H     H_    0.022062 0.722981 0.432071 0.168387
H86   H     H_    0.968473 0.820767 0.587608 0.119281
H87   H     H_    0.991819 0.210041 0.435274 0.140029
H88   H     H_    0.066527 0.378194 0.918768 0.364180
H89   H     H_    0.951674 0.768268 0.999389 0.383940
H90   H     H_    0.024713 0.651129 0.964216 0.380393
H91   H     H_    0.798574 0.956414 0.389734 0.171076
H92   H     H_    0.009027 0.335346 0.025984 0.396576
H93   H     H_    0.450930 0.719239 0.496588 0.381984
H94   H     H_    0.689722 0.306418 0.721703 0.303727
H95   H     H_    0.543580 0.135188 0.443276 0.388860
H96   H     H_    0.558693 0.835548 0.592531 0.302764
H97   H     H_    0.173797 0.909013 0.867195 0.226033
H98   H     H_    0.087701 0.883803 0.901517 0.276160
H99   H     H_    0.089941 0.937248 0.837876 0.217696
H100  H     H_    0.165532 0.089535 0.129559 0.215423
H101  H     H_    0.081868 0.114968 0.090100 0.266723
H102  H     H_    0.380760 0.650026 0.210596 0.187269
H103  H     H_    0.079804 0.060919 0.152737 0.225097
H104  H     H_    0.869172 0.400144 0.387807 0.269773
H105  H     H_    0.785565 0.363992 0.367171 0.237288
H106  H     H_    0.840047 0.390907 0.296286 0.218801
H107  H     H_    0.654108 0.612877 0.375104 0.260990
H108  H     H_    0.748410 0.636057 0.362409 0.223684
H109  H     H_    0.694061 0.616867 0.287158 0.214669
H110  H     H_    0.923102 0.446967 0.871269 0.339797
H111  H     H_    0.840227 0.866122 0.036775 0.335525
H112  H     H_    0.871514 0.590179 0.925912 0.333253
O1    O     O_3   0.249990 0.250010 0.000000 -0.493561
O2    O     O_R   0.835430 0.219350 0.353840 -0.642023
O3    O     O_R   0.835430 0.219350 0.646160 -0.647752
O4    O     O_R   0.835430 0.780650 0.353840 -0.648774
O5    O     O_R   0.164550 0.280640 0.853840 -0.619099
O6    O     O_R   0.164550 0.719360 0.146160 -0.618999
O7    O     O_R   0.164550 0.719360 0.853840 -0.611900
O8    O     O_R   0.164550 0.280640 0.146160 -0.593599
O9    O     O_R   0.664550 0.780640 0.353840 -0.619133
O10   O     O_R   0.664550 0.219360 0.646160 -0.617401
O11   O     O_R   0.664550 0.219360 0.353840 -0.605931
O12   O     O_3   0.249990 0.749990 0.000000 -0.491739
O13   O     O_R   0.664550 0.780640 0.646160 -0.622322
O14   O     O_R   0.396160 0.219380 0.914560 -0.637917
O15   O     O_R   0.396160 0.780620 0.085440 -0.645820
O16   O     O_R   0.396160 0.780620 0.914560 -0.659317
O17   O     O_R   0.396160 0.219380 0.085440 -0.651805
O18   O     O_R   0.896160 0.719380 0.414560 -0.643958
O19   O     O_R   0.896160 0.280620 0.585440 -0.638555
O20   O     O_R   0.896160 0.280620 0.414560 -0.640530
O21   O     O_R   0.896160 0.719380 0.585440 -0.647163
O22   O     O_R   0.103840 0.219370 0.085450 -0.649477
O23   O     O_3   0.749990 0.750010 0.500000 -0.492013
O24   O     O_R   0.103840 0.780630 0.914550 -0.619196
O25   O     O_R   0.103840 0.780630 0.085450 -0.599084
O26   O     O_R   0.103840 0.219370 0.914550 -0.594997
O27   O     O_R   0.603840 0.719370 0.585450 -0.609918
O28   O     O_R   0.603840 0.280630 0.414550 -0.623665
O29   O     O_R   0.603840 0.280630 0.585450 -0.613975
O30   O     O_R   0.603840 0.719370 0.414550 -0.601761
O31   O     O_R   0.310730 0.133160 0.000000 -0.653446
O32   O     O_R   0.310730 0.866840 0.000000 -0.649794
O33   O     O_R   0.810730 0.633160 0.500000 -0.634365
O34   O     O_3   0.749990 0.249990 0.500000 -0.495308
O35   O     O_R   0.810730 0.366840 0.500000 -0.655551
O36   O     O_R   0.249970 0.366860 0.060720 -0.643824
O37   O     O_R   0.249970 0.633140 0.939280 -0.644123
O38   O     O_R   0.249970 0.633140 0.060720 -0.633456
O39   O     O_R   0.249970 0.366860 0.939280 -0.637695
O40   O     O_R   0.749970 0.866860 0.560720 -0.654098
O41   O     O_R   0.749970 0.133140 0.439280 -0.642619
O42   O     O_R   0.749970 0.133140 0.560720 -0.634153
O43   O     O_R   0.749970 0.866860 0.439280 -0.632105
O44   O     O_R   0.189290 0.133150 0.000000 -0.619145
O45   O     O_R   0.335430 0.280650 0.146160 -0.625392
O46   O     O_R   0.189290 0.866850 0.000000 -0.627370
O47   O     O_R   0.689290 0.633150 0.500000 -0.648934
O48   O     O_R   0.689290 0.366850 0.500000 -0.608127
O49   O     O_3   0.064052 0.342803 0.898098 -0.781764
O50   O     O_3   0.975300 0.754502 0.044141 -0.738031
O51   O     O_3   0.037570 0.677235 0.926516 -0.788359
O52   O     O_3   0.025113 0.310022 0.063316 -0.776421
O53   O     O_3   0.473360 0.736189 0.453374 -0.687503
O54   O     O_3   0.662233 0.337063 0.703967 -0.764418
O55   O     O_3   0.548212 0.167958 0.415281 -0.799670
O56   O     O_R   0.335430 0.719350 0.853840 -0.634930
O57   O     O_3   0.522730 0.815051 0.564052 -0.711813
O58   O     O_3   0.962608 0.422250 0.883863 -0.775540
O59   O     O_3   0.876979 0.838283 0.030781 -0.788299
O60   O     O_3   0.916866 0.610814 0.932343 -0.782426
O61   O     O_3   0.883612 0.344016 0.033349 -0.764486
O62   O     O_3   0.382729 0.647372 0.458706 -0.779927
O63   O     O_3   0.628086 0.424288 0.775468 -0.758666
O64   O     O_3   0.429291 0.100319 0.420642 -0.786632
O65   O     O_3   0.384098 0.836630 0.528231 -0.705921
O66   O     O_3   0.166239 0.166730 0.793487 -0.793471
O67   O     O_R   0.335430 0.719350 0.146160 -0.641637
O68   O     O_3   0.115168 0.632230 0.194175 -0.759725
O69   O     O_3   0.178160 0.820956 0.784647 -0.839579
O70   O     O_3   0.191171 0.191944 0.232015 -0.809762
O71   O     O_3   0.609870 0.868431 0.313394 -0.761255
O72   O     O_3   0.547459 0.162612 0.588723 -0.774834
O73   O     O_3   0.674329 0.324209 0.286093 -0.832087
O74   O     O_3   0.688438 0.688486 0.730817 -0.812319
O75   O     O_R   0.335430 0.280650 0.853840 -0.648556
O76   O     O_R   0.835430 0.780650 0.646160 -0.621747
Zn1   Zn    Zn3+2 0.249990 0.293780 0.913250 1.003248
Zn2   Zn    Zn3+2 0.336760 0.793760 0.000000 0.954034
Zn3   Zn    Zn3+2 0.836760 0.706240 0.500000 0.963393
Zn4   Zn    Zn3+2 0.836760 0.293760 0.500000 0.959736
Zn5   Zn    Zn3+2 0.163250 0.206230 0.000000 1.037926
Zn6   Zn    Zn3+2 0.163250 0.793770 0.000000 1.034007
Zn7   Zn    Zn3+2 0.663250 0.706230 0.500000 1.020004
Zn8   Zn    Zn3+2 0.663250 0.293770 0.500000 1.053714
Zn9   Zn    Zn3+2 0.249990 0.706220 0.086750 0.996482
Zn10  Zn    Zn3+2 0.249990 0.706220 0.913250 1.008401
Zn11  Zn    Zn3+2 0.249990 0.293780 0.086750 1.019259
Zn12  Zn    Zn3+2 0.749990 0.793780 0.413250 0.987180
Zn13  Zn    Zn3+2 0.749990 0.206220 0.586750 0.998140
Zn14  Zn    Zn3+2 0.749990 0.206220 0.413250 1.007453
Zn15  Zn    Zn3+2 0.749990 0.793780 0.586750 0.995733
Zn16  Zn    Zn3+2 0.336760 0.206240 0.000000 0.963191

loop_
_geom_bond_atom_site_label_1
_geom_bond_atom_site_label_2
_ccdc_geom_bond_type
C87   H66   S    
C53   O37   A    
C7    C168  A    
C62   H50   S    
C10   C184  A    
C107  C112  A    
C94   H106  S    
C82   C120  A    
C40   C93   S    
C136  C140  A    
C22   H41   S    
C136  C162  A    
C135  C139  A    
C47   H33   S    
C124  C133  A    
C84   H63   S    
C24   C98   A    
C92   H99   S    
C181  O13   A    
C74   C112  A    
C159  H17   S    
C58   C60   S    
C24   H74   S    
C105  C123  A    
C8    C138  A    
O1    Zn5   S    
C2    C90   A    
C62   C64   S    
C166  H28   S    
C49   O46   A    
C175  O25   A    
C162  C171  A    
O46   Zn6   S    
C85   H64   S    
O13   Zn15  S    
C4    C12   A    
O25   Zn6   S    
C74   C83   A    
C17   H35   S    
O48   Zn8   S    
C143  C151  A    
C180  O11   A    
C100  C109  A    
C21   C22   A    
C102  C111  A    
C10   C140  A    
C163  O18   A    
C158  C167  A    
C100  H85   S    
C45   C47   A    
C96   H82   S    
C139  C148  A    
C14   C144  A    
C175  O6    A    
C102  H87   S    
C56   H44   S    
C27   C31   A    
C42   C95   S    
C28   C32   A    
C127  C136  A    
C20   C28   A    
C108  O15   A    
C101  C110  A    
C120  C155  A    
C17   C21   A    
C82   C91   A    
C162  H20   S    
C19   C23   A    
C43   C44   A    
C37   C38   A    
C138  C147  A    
H9    O68   S    
C41   C94   S    
C36   C40   A    
C147  C173  S    
C90   C104  A    
H4    O62   S    
C30   C49   S    
C51   O35   A    
H6    O64   S    
C31   C48   S    
O34   Zn14  S    
C117  C153  A    
C105  C118  A    
C53   C71   S    
C104  C117  A    
C87   C174  A    
C80   C117  A    
C119  O75   A    
C11   O52   S    
H89   O50   S    
C129  C156  A    
C7    O65   S    
C69   H60   S    
C97   C124  S    
C33   C38   A    
C98   C106  A    
C56   C59   S    
C103  C116  A    
C80   C88   A    
C142  C150  A    
O76   Zn15  S    
O24   Zn6   S    
C25   H43   S    
O20   Zn4   S    
C54   O40   A    
C1    O45   A    
C58   C71   S    
C169  C182  A    
C3    C11   A    
C56   H1    S    
C50   O33   A    
C106  C124  A    
C41   C45   A    
C31   C36   A    
C177  O22   A    
C77   C115  A    
C76   C85   A    
O22   Zn5   S    
O37   Zn10  S    
O12   Zn2   S    
C78   C87   A    
C134  C160  A    
C137  C142  A    
H8    O66   S    
O33   Zn3   S    
C89   H68   S    
C29   C33   A    
C123  C132  A    
O21   Zn3   S    
C60   H47   S    
C61   H49   S    
O43   Zn12  S    
C63   H80   S    
O28   Zn8   S    
C68   H78   S    
C178  O30   A    
H92   O52   S    
C132  C145  A    
C113  C148  A    
O10   Zn13  S    
C181  O27   A    
C75   C84   A    
C104  C122  A    
C65   C70   S    
C61   C63   S    
C67   C72   S    
C168  H30   S    
C152  O3    A    
C13   H73   S    
O18   Zn3   S    
C92   H98   S    
C179  O29   A    
O31   Zn16  S    
O30   Zn7   S    
C57   C85   A    
C119  O14   A    
C62   C73   S    
C75   C113  A    
C95   H107  S    
C179  O10   A    
C110  C114  A    
C86   H65   S    
C66   H54   S    
C45   H34   S    
C135  C161  A    
C79   C103  A    
C19   H38   S    
C43   H32   S    
H5    O63   S    
O11   Zn14  S    
C64   H91   S    
C77   O70   S    
C99   H84   S    
C30   C34   A    
C13   C96   A    
C34   C39   A    
C17   C27   A    
H16   O74   S    
C90   H81   S    
C107  C125  A    
C81   O73   S    
C5    C166  A    
C14   O54   S    
C94   H105  S    
C130  O21   A    
O2    Zn14  S    
C32   C37   A    
C150  C177  S    
C145  C154  A    
C26   C30   A    
C164  C172  A    
C167  H29   S    
C126  C163  S    
C122  C131  A    
O7    Zn10  S    
C58   H25   S    
O4    Zn12  S    
C18   C22   A    
C78   C116  A    
C49   O32   A    
H112  O60   S    
O12   Zn9   S    
C155  C181  S    
C57   C101  A    
H11   O70   S    
C12   C143  A    
O8    Zn11  S    
C93   H101  S    
C67   H61   S    
H93   O53   S    
H95   O55   S    
C118  C154  A    
C34   C36   A    
C37   C41   A    
O45   Zn11  S    
C55   C73   S    
C109  C126  A    
C40   C44   A    
C82   O74   S    
C97   O16   A    
O32   Zn2   S    
C111  C128  A    
C140  C149  A    
C93   H100  S    
C48   O44   A    
C125  C134  A    
C62   H69   S    
C96   C105  A    
C153  C179  S    
C154  C180  S    
C74   O66   S    
C79   H79   S    
O1    Zn11  S    
C18   C26   A    
C97   O56   A    
C108  C121  S    
H110  O58   S    
C108  O67   A    
C55   O42   A    
C57   H77   S    
C26   C27   A    
C152  O19   A    
H90   O51   S    
C28   C29   A    
C68   C102  A    
C10   O51   S    
C64   H52   S    
C173  O5    A    
C59   H36   S    
C160  H18   S    
C66   H55   S    
C3    C172  A    
C20   C25   A    
C48   O31   A    
C4    C165  A    
C131  C157  A    
O17   Zn16  S    
O12   Zn6   S    
C146  C155  A    
C9    O50   S    
C160  C169  A    
C65   H56   S    
C69   C73   S    
C128  C141  S    
C81   C89   A    
C53   O38   A    
H88   O49   S    
C46   H76   S    
H94   O54   S    
C79   C174  A    
C176  O24   A    
C171  C184  A    
O67   Zn9   S    
C169  H22   S    
C93   H103  S    
C35   C83   A    
C69   H59   S    
C94   H104  S    
C63   C73   S    
C81   C118  A    
C177  O8    A    
C132  C158  A    
H96   O57   S    
C133  C159  A    
C1    C123  S    
C32   C51   S    
C9    C183  A    
C137  C164  A    
O23   Zn3   S    
H111  O59   S    
C66   C71   S    
C180  O28   A    
O56   Zn10  S    
O42   Zn13  S    
C5    C14   A    
C88   H67   S    
C61   C72   S    
C7    C16   A    
C126  C135  A    
H3    O61   S    
C39   C92   S    
C23   H42   S    
O34   Zn4   S    
C8    C182  A    
C61   H58   S    
O9    Zn12  S    
C60   H48   S    
C121  C129  A    
C76   O69   S    
C4    O62   S    
C112  C147  A    
C78   O71   S    
C129  C143  A    
C6    O64   S    
C52   O39   A    
C99   C107  A    
O29   Zn8   S    
C149  C176  S    
C3    O61   S    
C33   C50   S    
O47   Zn7   S    
C163  O4    A    
C9    C139  A    
C156  C165  A    
C54   O43   A    
C20   H39   S    
C103  C121  A    
C63   H51   S    
C170  H23   S    
C23   C25   A    
O34   Zn13  S    
O36   Zn11  S    
C133  C146  A    
C114  C149  A    
O1    Zn1   S    
O38   Zn9   S    
C131  C144  A    
O34   Zn8   S    
O19   Zn4   S    
C21   H40   S    
C1    O17   A    
C170  C183  A    
C44   H31   S    
C68   C86   A    
O6    Zn9   S    
C80   O72   S    
C156  H102  S    
C67   H57   S    
C50   O47   A    
C95   H109  S    
C38   C42   A    
C172  H26   S    
C164  H21   S    
H10   O69   S    
C12   O53   S    
C183  O59   S    
C173  O26   A    
C158  H13   S    
C159  C168  A    
C115  C150  A    
C16   C146  A    
C144  C153  A    
C18   H37   S    
C182  O58   S    
C6    C15   A    
C52   O36   A    
C51   O48   A    
C76   C114  A    
C2    C88   A    
O23   Zn15  S    
O23   Zn12  S    
C109  C113  A    
C110  C127  A    
C64   C72   S    
O40   Zn15  S    
C65   H53   S    
C35   C99   A    
C13   C89   A    
C148  C175  S    
C35   H75   S    
O3    Zn13  S    
C178  O9    A    
C157  H2    S    
H15   O73   S    
C15   C145  A    
O12   Zn10  S    
C165  H27   S    
C151  C178  S    
C39   C43   A    
C8    O49   S    
O75   Zn1   S    
O44   Zn5   S    
C130  O76   A    
C67   C69   S    
C128  C137  A    
C5    O63   S    
C92   H97   S    
C125  C152  S    
H7    O65   S    
O27   Zn7   S    
C60   C70   S    
C98   H83   S    
O26   Zn5   S    
C54   C72   S    
C95   H108  S    
C161  C170  A    
C141  O2    A    
C77   C86   A    
C56   C70   S    
C46   C84   A    
C24   C91   A    
C119  C122  S    
O5    Zn1   S    
C46   C100  A    
C6    C167  A    
C106  C120  A    
O16   Zn2   S    
C161  H19   S    
O35   Zn4   S    
H12   O71   S    
C2    H72   S    
C157  C166  A    
C134  C138  A    
O1    Zn16  S    
O23   Zn7   S    
C91   H70   S    
C55   O41   A    
C101  H86   S    
C176  O7    A    
C127  C130  S    
C75   O68   S    
C58   H45   S    
C15   O55   S    
O41   Zn14  S    
H14   O72   S    
O39   Zn1   S    
C83   H62   S    
C42   C47   A    
C116  C151  A    
C16   O57   S    
C11   C142  A    
C52   C70   S    
C184  O60   S    
C174  H71   S    
O14   Zn16  S    
C65   C66   S    
C141  O20   A    
C111  C115  A    
C171  H24   S    
C59   H46   S    
C59   C71   S    
O15   Zn2   S    
C19   C29   A    
