data_mof_unit_58292.cif
_audit_creation_date              2012-12-10T16:59:18-0500
_audit_creation_method            fapswitch 2.2
_symmetry_space_group_name_H-M    P1
_symmetry_Int_Tables_number       1
_space_group_crystal_system       triclinic
_cell_length_a                    7.929793
_cell_length_b                    8.617468
_cell_length_c                    27.091776
_cell_angle_alpha                 92.649148
_cell_angle_beta                  83.712737
_cell_angle_gamma                 92.646315
_cell_volume                      1836.6316431

loop_
_atom_site_label
_atom_site_type_symbol
_atom_type_description
_atom_site_fract_x
_atom_site_fract_y
_atom_site_fract_z
_atom_type_partial_charge
C1    C     C_R   0.543701 0.792069 0.492214 0.935235
C2    C     C_R   0.455763 0.205807 0.495466 0.880978
C3    C     C_R   0.597045 0.428763 0.898362 -0.096825
C4    C     C_R   0.718237 0.375885 0.096667 -0.092169
C5    C     C_R   0.714315 0.508472 0.864481 -0.091165
C6    C     C_R   0.624631 0.265275 0.125479 -0.081306
C7    C     C_R   0.844370 0.606801 0.883339 0.148915
C8    C     C_R   0.562392 0.128701 0.101860 0.187752
C9    C     C_R   0.444859 0.361410 0.882904 -0.004095
C10   C     C_R   0.824815 0.485911 0.119344 -0.013527
C11   C     C_R   0.491100 0.481899 0.647623 -0.185987
C12   C     C_R   0.513350 0.477883 0.351145 -0.135494
C13   C     C_R   0.797347 0.491187 0.016399 0.077454
C14   C     C_R   0.530167 0.310862 0.978739 0.078544
C15   C     C_R   0.581376 0.274584 0.025174 -0.058743
C16   C     C_R   0.764760 0.508246 0.966324 -0.068130
C17   C     C_R   0.701285 0.378772 0.045609 0.047075
C18   C     C_R   0.633188 0.413892 0.947695 0.051791
C19   C     C_R   0.927852 0.577646 0.038108 -0.227447
C20   C     C_R   0.369973 0.262268 0.964506 -0.238107
C21   C     C_R   0.937256 0.580175 0.089252 -0.171386
C22   C     C_R   0.327893 0.286217 0.917145 -0.163043
C23   C     C_R   0.498219 0.498578 0.594068 0.884183
C24   C     C_R   0.502359 0.501758 0.405582 0.840374
C25   C     C_R   0.842529 0.628211 0.935730 0.106014
C26   C     C_R   0.526664 0.136388 0.051616 0.124807
C27   C     C_2   0.564311 0.949123 0.474523 -0.085274
C28   C     C_2   0.429525 0.042642 0.481618 -0.106539
C29   C     C_R   0.687591 0.492753 0.813727 0.529402
C30   C     C_R   0.599103 0.294724 0.176878 0.535299
C31   C     C_R   0.411785 0.374905 0.833771 0.492629
C32   C     C_R   0.813355 0.498340 0.171525 0.581345
C33   C     C_R   0.487824 0.313465 0.717746 0.493664
C34   C     C_R   0.582781 0.584971 0.268906 0.495068
C35   C     C_R   0.469116 0.331664 0.667318 0.059772
C36   C     C_R   0.508524 0.602287 0.319113 -0.034859
C37   C     C_R   0.507862 0.614485 0.679581 0.095659
C38   C     C_R   0.570260 0.333412 0.331503 0.127704
C39   C     C_R   0.504033 0.594843 0.730456 -0.169838
C40   C     C_R   0.649824 0.320302 0.283390 -0.232892
C41   C     C_R   0.503496 0.446898 0.749352 0.126497
C42   C     C_R   0.652968 0.442980 0.251538 0.199826
H1    H     H_    0.514537 0.695611 0.755569 0.165960
H2    H     H_    0.693581 0.208249 0.268703 0.174856
H3    H     H_    0.030154 0.657964 0.105102 0.186344
H4    H     H_    0.205337 0.242366 0.907188 0.185555
H5    H     H_    0.020786 0.646850 0.016089 0.174433
H6    H     H_    0.274209 0.208700 0.990219 0.174263
N1    N     N_R   0.534836 0.435663 0.800116 -0.348145
N2    N     N_R   0.692242 0.410688 0.199069 -0.320312
N3    N     N_2   0.950320 0.457960 0.486880 -0.056900
N4    N     N_2   0.049680 0.542040 0.513120 -0.029250
O1    O     O_R   0.389250 0.738570 0.503220 -0.631230
O2    O     O_R   0.610750 0.261430 0.496780 -0.642563
O3    O     O_R   0.678390 0.711630 0.494810 -0.629904
O4    O     O_R   0.321610 0.288370 0.505190 -0.610201
O5    O     O_R   0.355440 0.513440 0.575450 -0.596749
O6    O     O_R   0.644560 0.486560 0.424550 -0.623722
O7    O     O_R   0.644590 0.486500 0.567040 -0.649764
O8    O     O_R   0.355410 0.513500 0.432960 -0.625776
O9    O     O_2   0.811319 0.531798 0.777787 -0.569059
O10   O     O_2   0.473752 0.215428 0.204007 -0.585401
O11   O     O_2   0.917043 0.599854 0.194363 -0.563399
O12   O     O_2   0.260220 0.324956 0.819354 -0.559137
Zn1   Zn    Zn3+2 0.306940 0.517990 0.505620 0.918496
Zn2   Zn    Zn3+2 0.693060 0.482010 0.494380 0.898006
C43   C     C_3   0.536520 0.777816 0.661081 -0.410003
C44   C     C_3   0.706301 0.849722 0.674794 -0.799624
H7    H     H_    0.692929 0.896417 0.713850 0.275191
H8    H     H_    0.804467 0.761057 0.671008 0.273028
H9    H     H_    0.750098 0.946261 0.650177 0.233710
H10   H     H_    0.535583 0.781219 0.620227 0.185326
H11   H     H_    0.431668 0.850065 0.678329 0.240300
C45   C     C_3   0.511258 0.186324 0.356872 -0.403310
C46   C     C_3   0.338824 0.132460 0.340786 -0.860074
H12   H     H_    0.247269 0.226466 0.347343 0.257490
H13   H     H_    0.351523 0.096092 0.300734 0.302286
H14   H     H_    0.286487 0.033515 0.362811 0.236140
H15   H     H_    0.604833 0.094738 0.347512 0.201402
H16   H     H_    0.496859 0.205596 0.397477 0.193434
C47   C     C_3   0.019315 0.390351 0.439606 -0.122746
C48   C     C_3   0.041316 0.509962 0.399115 -0.802244
H17   H     H_    0.920797 0.529066 0.383857 0.255897
H18   H     H_    0.091873 0.623242 0.413502 0.254689
H19   H     H_    0.130388 0.466254 0.367804 0.234602
H20   H     H_    0.136005 0.329573 0.442964 0.199389
H21   H     H_    0.928635 0.298434 0.427946 0.147871
C49   C     C_3   0.968499 0.597024 0.561160 -0.100066
C50   C     C_3   0.080187 0.699902 0.592968 -0.919856
H22   H     H_    0.110085 0.637311 0.625688 0.267575
H23   H     H_    0.198122 0.741479 0.572404 0.312051
H24   H     H_    0.012457 0.805014 0.607428 0.214493
H25   H     H_    0.862619 0.669903 0.555158 0.217871
H26   H     H_    0.925666 0.494574 0.583400 0.193189
C51   C     C_3   0.977425 0.696293 0.849603 -0.290834
C52   C     C_3   0.907115 0.838040 0.827743 -0.803659
H27   H     H_    0.798332 0.805579 0.806461 0.271135
H28   H     H_    0.863181 0.924331 0.857356 0.241551
H29   H     H_    0.008663 0.894786 0.802392 0.258912
H30   H     H_    0.087390 0.734148 0.869556 0.192553
H31   H     H_    0.037540 0.618181 0.819824 0.257801
C53   C     C_3   0.565647 0.974301 0.127898 -0.377205
C54   C     C_3   0.744850 0.943682 0.139979 -0.817908
H32   H     H_    0.746407 0.826320 0.154901 0.304885
H33   H     H_    0.835932 0.948580 0.105793 0.245696
H34   H     H_    0.786720 0.029651 0.168369 0.258048
H35   H     H_    0.475786 0.971659 0.162132 0.263202
H36   H     H_    0.527108 0.871358 0.105521 0.212440
C55   C     C_3   0.406250 0.742189 0.336282 -0.470809
C56   C     C_3   0.248530 0.747512 0.308254 -0.753258
H37   H     H_    0.280381 0.803829 0.272232 0.279133
H38   H     H_    0.193756 0.628961 0.300828 0.274977
H39   H     H_    0.149090 0.814875 0.330567 0.227019
H40   H     H_    0.363234 0.741309 0.376505 0.211405
H41   H     H_    0.487388 0.848956 0.331018 0.206376
C57   C     C_3   0.429170 0.187959 0.635502 -0.355115
C58   C     C_3   0.247988 0.124649 0.649879 -0.809839
H42   H     H_    0.155429 0.202397 0.636925 0.258118
H43   H     H_    0.220548 0.114260 0.690674 0.301127
H44   H     H_    0.231173 0.006930 0.632513 0.219385
H45   H     H_    0.442981 0.209740 0.595405 0.192221
H46   H     H_    0.520730 0.098211 0.640118 0.228199
O13   O     O_3   0.579827 0.699356 0.234992 -0.768347
H47   H     H_    0.577676 0.802266 0.252645 0.340482
O14   O     O_3   0.493986 0.164434 0.734264 -0.781311
H48   H     H_    0.539319 0.168003 0.766883 0.339522
C59   C     C_3   0.846108 0.795684 0.957423 -0.381071
C60   C     C_3   0.019661 0.882437 0.953285 -0.911576
H49   H     H_    0.124873 0.802384 0.953942 0.257753
H50   H     H_    0.041357 0.948829 0.918980 0.266405
H51   H     H_    0.021840 0.970119 0.984418 0.254534
H52   H     H_    0.756555 0.863577 0.939132 0.203004
H53   H     H_    0.793399 0.799630 0.997050 0.203076
C61   C     C_3   0.449391 0.992233 0.026395 -0.414656
C62   C     C_3   0.270262 0.950075 0.050867 -0.887325
H54   H     H_    0.267680 0.928389 0.090870 0.263139
H55   H     H_    0.182354 0.044590 0.048098 0.254455
H56   H     H_    0.222283 0.841987 0.032691 0.248709
H57   H     H_    0.447025 0.001629 0.985963 0.213512
H58   H     H_    0.531598 0.892679 0.027856 0.192000
C63   C     C_3   0.736752 0.003704 0.448897 -0.397330
C64   C     C_3   0.812003 0.889696 0.408382 -0.901409
H59   H     H_    0.872016 0.794399 0.424936 0.291712
H60   H     H_    0.713058 0.841030 0.385456 0.254089
H61   H     H_    0.912636 0.950799 0.383826 0.235777
H62   H     H_    0.724509 0.111353 0.429315 0.222262
H63   H     H_    0.826492 0.027956 0.476960 0.224373
C65   C     C_3   0.249518 0.989930 0.471075 -0.349660
C66   C     C_3   0.123299 0.996447 0.517827 -0.814226
H64   H     H_    0.189240 0.987357 0.551301 0.258647
H65   H     H_    0.058489 0.108547 0.521450 0.247836
H66   H     H_    0.025785 0.900614 0.515962 0.252460
H67   H     H_    0.206176 0.068914 0.444404 0.180636
H68   H     H_    0.243239 0.874096 0.451688 0.219396

loop_
_geom_bond_atom_site_label_1
_geom_bond_atom_site_label_2
_ccdc_geom_bond_type
C62   H56   S    
C34   O13   S    
C8    C26   A    
C14   C18   A    
C51   C52   S    
C34   C42   A    
C60   H49   S    
C47   C48   S    
O13   H47   S    
C39   C41   A    
C29   N1    A    
C23   O7    A    
C57   H46   S    
C26   C61   S    
C19   C21   A    
C66   H65   S    
O7    Zn2   S    
C61   H58   S    
C19   H5    S    
C9    C22   A    
C49   H26   S    
O4    Zn1   S    
C52   H29   S    
C57   C58   S    
C3    C18   A    
C15   C17   A    
C43   H10   S    
C11   C23   S    
C11   C37   A    
C1    O1    A    
C56   H37   S    
C27   C63   S    
C59   H52   S    
O6    Zn2   S    
C44   H7    S    
C52   H28   S    
C53   H36   S    
C43   H11   S    
C12   C36   A    
C62   H54   S    
N3    C47   S    
C21   H3    S    
C47   H20   S    
C40   C42   A    
C30   N2    A    
C45   H16   S    
C64   H61   S    
C65   H68   S    
C31   N1    A    
C41   N1    S    
C9    C31   A    
C5    C29   A    
C10   C21   A    
C29   O9    S    
C28   C65   S    
C45   C46   S    
C13   C19   A    
C43   C44   S    
C14   C20   A    
N4    C49   S    
C65   C66   S    
C4    C6    A    
C2    O2    A    
C58   H44   S    
C61   H57   S    
C5    C7    A    
C63   H63   S    
C51   H30   S    
C15   C26   A    
C6    C8    A    
N3    N4    D    
N3    Zn2   S    
C46   H12   S    
C3    C9    A    
C24   O8    A    
C52   H27   S    
C33   O14   S    
C35   C57   S    
C54   H33   S    
C20   H6    S    
C50   H24   S    
C46   H13   S    
C56   H39   S    
C32   N2    A    
C47   H21   S    
C55   H40   S    
C42   N2    S    
C23   O5    A    
C4    C17   A    
C63   H62   S    
C24   O6    A    
C6    C30   A    
C20   C22   A    
O8    Zn1   S    
C48   H18   S    
C45   H15   S    
C30   O10   S    
O14   H48   S    
C64   H60   S    
C66   H66   S    
C50   H23   S    
C65   H67   S    
C4    C10   A    
C59   C60   S    
C60   H51   S    
C53   H35   S    
C54   H32   S    
O3    Zn2   S    
O1    Zn1   S    
C38   C45   S    
C16   C25   A    
C62   H55   S    
C49   H25   S    
C22   H4    S    
C64   H59   S    
C31   O12   S    
C59   H53   S    
C32   O11   S    
O5    Zn1   S    
C3    C5    A    
C60   H50   S    
C39   H1    S    
C61   C62   S    
O2    Zn2   S    
C48   H19   S    
C7    C51   S    
C12   C24   S    
C58   H42   S    
C7    C25   A    
C13   C17   A    
C33   C41   A    
C58   H43   S    
C25   C59   S    
C37   C39   A    
C2    O4    A    
C66   H64   S    
C38   C40   A    
C44   H9    S    
C37   C43   S    
C11   C35   A    
C33   C35   A    
C1    O3    A    
C54   H34   S    
C34   C36   A    
C12   C38   A    
C53   C54   S    
C46   H14   S    
C56   H38   S    
C55   H41   S    
C10   C32   A    
C40   H2    S    
C49   C50   S    
C16   C18   A    
C48   H17   S    
C13   C16   A    
C55   C56   S    
C36   C55   S    
C1    C27   S    
C44   H8    S    
C14   C15   A    
C2    C28   S    
C57   H45   S    
C50   H22   S    
C63   C64   S    
C8    C53   S    
N4    Zn1   S    
C51   H31   S    
C27   C28   D    
