data_mof_unit_43543.cif
_audit_creation_date              2012-12-10T17:56:46-0500
_audit_creation_method            fapswitch 2.2
_symmetry_space_group_name_H-M    P1
_symmetry_Int_Tables_number       1
_space_group_crystal_system       triclinic
_cell_length_a                    10.830492
_cell_length_b                    9.527466
_cell_length_c                    10.807823
_cell_angle_alpha                 90.056534
_cell_angle_beta                  90.281448
_cell_angle_gamma                 89.94604
_cell_volume                      1115.213904

loop_
_atom_site_label
_atom_site_type_symbol
_atom_type_description
_atom_site_fract_x
_atom_site_fract_y
_atom_site_fract_z
_atom_type_partial_charge
C1    C     C_R   0.262078 0.499903 0.499978 0.960399
C2    C     C_R   0.737914 0.499921 0.500123 0.774697
C3    C     C_R   0.936077 0.627472 0.500181 -0.203162
C4    C     C_R   0.063793 0.627472 0.500051 -0.090314
C5    C     C_R   0.422388 0.074188 0.423640 0.604410
C6    C     C_R   0.577573 0.074190 0.576401 0.611190
C7    C     C_R   0.422451 0.925485 0.423781 -0.121521
C8    C     C_R   0.577492 0.925473 0.576277 -0.129760
C9    C     C_R   0.494248 0.499997 0.262510 0.879113
C10   C     C_R   0.494061 0.500177 0.737436 0.872729
C11   C     C_R   0.283769 0.631175 0.128405 0.579378
C12   C     C_R   0.284631 0.633891 0.870411 0.583558
C13   C     C_R   0.189159 0.697207 0.063258 -0.273960
C14   C     C_R   0.189668 0.698705 0.935232 -0.274799
C15   C     C_R   0.384877 0.569017 0.933842 -0.089028
C16   C     C_R   0.384629 0.568164 0.065457 -0.077680
C17   C     C_R   0.482946 0.499622 0.128840 -0.043399
C18   C     C_R   0.483016 0.500253 0.871048 -0.065584
C19   C     C_R   0.574229 0.427704 0.063990 -0.196765
C20   C     C_R   0.574171 0.427858 0.936496 -0.176574
C21   C     C_R   0.063973 0.372368 0.500014 -0.176743
C22   C     C_R   0.936255 0.372360 0.500141 -0.157116
C23   C     C_R   0.871787 0.499908 0.500180 -0.025355
C24   C     C_R   0.128233 0.499917 0.499992 0.010108
Cu1   Cu    Cu3+1 0.500000 0.640660 0.500000 1.018233
Cu2   Cu    Cu3+1 0.500000 0.359340 0.500000 1.067247
H1    H     H_    0.648004 0.373679 0.112670 0.146448
H2    H     H_    0.647836 0.373781 0.888305 0.176122
H3    H     H_    0.113068 0.744794 0.112632 0.192293
H4    H     H_    0.114027 0.747625 0.885496 0.191971
H5    H     H_    0.112086 0.272639 0.499938 0.181309
H6    H     H_    0.888300 0.272633 0.500184 0.181258
H7    H     H_    0.887980 0.727213 0.500260 0.159698
H8    H     H_    0.111783 0.727180 0.500004 0.171685
H9    H     H_    0.360332 0.869342 0.362731 0.204296
H10   H     H_    0.639566 0.869253 0.637358 0.167297
N1    N     N_R   0.500000 0.852070 0.500000 -0.220902
N2    N     N_R   0.500000 0.147940 0.500000 -0.264333
O1    O     O_R   0.319640 0.618740 0.499990 -0.516282
O2    O     O_R   0.680360 0.618740 0.500010 -0.604797
O3    O     O_R   0.319620 0.381170 0.499990 -0.568595
O4    O     O_R   0.680380 0.381170 0.500010 -0.553357
O5    O     O_R   0.500000 0.618810 0.319650 -0.558472
O6    O     O_R   0.500000 0.618810 0.680350 -0.547599
O7    O     O_R   0.499970 0.381240 0.319640 -0.547160
O8    O     O_R   0.500030 0.381240 0.680360 -0.547129
F1    F     F_    0.271157 0.624681 0.252499 -0.703070
F2    F     F_    0.273205 0.631278 0.745987 -0.695210
F3    F     F_    0.344342 0.143545 0.346682 -0.644875
F4    F     F_    0.655606 0.143559 0.653368 -0.659899

loop_
_geom_bond_atom_site_label_1
_geom_bond_atom_site_label_2
_ccdc_geom_bond_type
C10   O8    A    
C15   C18   A    
C6    N2    A    
C9    O7    A    
C13   C14   A    
C19   H1    S    
C11   C16   A    
C11   F1    S    
C19   C20   A    
C12   C15   A    
C12   F2    S    
Cu1   O5    S    
C7    N1    A    
Cu2   O3    S    
C21   C22   A    
C6    F4    S    
C11   C13   A    
C5    F3    S    
C21   H5    S    
C22   H6    S    
C10   C18   S    
Cu1   O6    S    
C1    O3    A    
C17   C19   A    
C2    O4    A    
C18   C20   A    
Cu1   O2    S    
C4    C24   A    
C4    H8    S    
C9    O5    A    
C8    N1    A    
C1    O1    A    
C10   O6    A    
C3    C4    A    
C2    O2    A    
C7    H9    S    
C5    N2    A    
Cu2   O4    S    
C1    C24   S    
C8    H10   S    
C21   C24   A    
C9    C17   S    
C2    C23   S    
C5    C7    A    
C3    H7    S    
C22   C23   A    
Cu2   N2    S    
C6    C8    A    
C20   H2    S    
Cu2   O7    S    
Cu1   N1    S    
Cu1   Cu2   S    
C14   H4    S    
Cu2   O8    S    
C3    C23   A    
Cu1   O1    S    
C15   C16   A    
C13   H3    S    
C12   C14   A    
C16   C17   A    
