data_mof_unit_55860.cif
_audit_creation_date              2012-12-10T18:11:06-0500
_audit_creation_method            fapswitch 2.2
_symmetry_space_group_name_H-M    P1
_symmetry_Int_Tables_number       1
_space_group_crystal_system       triclinic
_cell_length_a                    10.726543
_cell_length_b                    9.421826
_cell_length_c                    10.623095
_cell_angle_alpha                 90.213543
_cell_angle_beta                  89.883708
_cell_angle_gamma                 90.008142
_cell_volume                      1073.59877694

loop_
_atom_site_label
_atom_site_type_symbol
_atom_type_description
_atom_site_fract_x
_atom_site_fract_y
_atom_site_fract_z
_atom_type_partial_charge
C1    C     C_R   0.259679 0.500200 0.500212 0.756175
C2    C     C_3   0.499802 0.498885 0.122409 0.030941
C3    C     C_3   0.071242 0.655578 0.501556 -0.377835
C4    C     C_3   0.071555 0.423390 0.618549 -0.384996
C5    C     C_3   0.928548 0.655576 0.501205 -0.380287
C6    C     C_3   0.927625 0.423542 0.618537 -0.384952
C7    C     C_3   0.072112 0.424714 0.380850 -0.383893
C8    C     C_3   0.121717 0.500929 0.500298 0.177914
C9    C     C_3   0.878045 0.500942 0.500180 0.178025
C10   C     C_3   0.928200 0.424562 0.380871 -0.384003
C11   C     C_3   0.621351 0.083897 0.545907 -0.187404
C12   C     C_3   0.621359 0.916516 0.545848 -0.189441
C13   C     C_3   0.402652 0.084126 0.587589 -0.190149
C14   C     C_3   0.402689 0.916522 0.587613 -0.189945
C15   C     C_3   0.476486 0.083099 0.375493 -0.188201
C16   C     C_3   0.476451 0.915978 0.375491 -0.183539
C17   C     C_R   0.499829 0.499661 0.259298 0.784990
C18   C     C_R   0.740085 0.500212 0.500053 0.757475
C19   C     C_R   0.499859 0.500333 0.740788 0.782720
C20   C     C_3   0.397125 0.566459 0.042575 -0.176083
C21   C     C_3   0.500266 0.364841 0.040045 -0.141655
C22   C     C_3   0.397592 0.432560 0.957912 -0.175306
C23   C     C_3   0.499811 0.501086 0.877675 0.031070
C24   C     C_3   0.499336 0.635126 0.960039 -0.143342
C25   C     C_3   0.602482 0.433506 0.957511 -0.173886
C26   C     C_3   0.602012 0.567407 0.042164 -0.175806
Cu1   Cu    Cu3+1 0.499860 0.642410 0.500060 0.885946
Cu2   Cu    Cu3+1 0.499860 0.357590 0.500060 0.886893
H1    H     H_    0.314039 0.377567 0.920109 0.110292
H2    H     H_    0.893455 0.478715 0.294844 0.141732
H3    H     H_    0.893950 0.313082 0.377692 0.157669
H4    H     H_    0.643165 0.124182 0.641960 0.134123
H5    H     H_    0.643306 0.876916 0.641825 0.133689
H6    H     H_    0.416928 0.123395 0.685323 0.139824
H7    H     H_    0.417015 0.878015 0.685325 0.135774
H8    H     H_    0.385603 0.122531 0.339349 0.134266
H9    H     H_    0.385527 0.876306 0.339364 0.134183
H10   H     H_    0.549238 0.120487 0.308611 0.135882
H11   H     H_    0.549187 0.878177 0.308532 0.139915
H12   H     H_    0.309028 0.122049 0.558299 0.134647
H13   H     H_    0.309085 0.878351 0.558318 0.135029
H14   H     H_    0.313185 0.620669 0.080698 0.109875
H15   H     H_    0.500610 0.254114 0.075441 0.115064
H16   H     H_    0.498951 0.745844 0.924611 0.116878
H17   H     H_    0.686435 0.379315 0.919385 0.110739
H18   H     H_    0.685571 0.622402 0.079940 0.110337
H19   H     H_    0.105753 0.714268 0.417589 0.156182
H20   H     H_    0.105789 0.311864 0.620178 0.155700
H21   H     H_    0.104975 0.712906 0.586812 0.154223
H22   H     H_    0.106308 0.476709 0.705355 0.141266
H23   H     H_    0.894020 0.713359 0.586028 0.155350
H24   H     H_    0.892606 0.477099 0.705237 0.141538
H25   H     H_    0.894855 0.713789 0.416802 0.154378
H26   H     H_    0.893200 0.312107 0.620317 0.156089
H27   H     H_    0.107104 0.479166 0.294909 0.141365
H28   H     H_    0.106544 0.313292 0.377449 0.158982
N1    N     N_3   0.500250 0.143650 0.502780 -0.108161
N2    N     N_3   0.500250 0.856350 0.502780 -0.108786
O1    O     O_R   0.317570 0.620260 0.500070 -0.597220
O2    O     O_R   0.317570 0.379740 0.500070 -0.595960
O3    O     O_R   0.499850 0.620240 0.316900 -0.593488
O4    O     O_R   0.499850 0.379760 0.316900 -0.595846
O5    O     O_R   0.682190 0.620260 0.500030 -0.597858
O6    O     O_R   0.682190 0.379740 0.500030 -0.596961
O7    O     O_R   0.499910 0.620280 0.683200 -0.593244
O8    O     O_R   0.499910 0.379720 0.683200 -0.589866
H29   H     H_    0.697915 0.120679 0.483313 0.135646
H30   H     H_    0.697807 0.879402 0.483080 0.135331

loop_
_geom_bond_atom_site_label_1
_geom_bond_atom_site_label_2
_ccdc_geom_bond_type
C7    C10   S    
C20   H14   S    
C11   C12   S    
C15   H10   S    
C5    C9    S    
Cu1   O7    S    
C22   H1    S    
C17   O4    A    
C21   H15   S    
C1    C8    S    
C15   N1    S    
C9    C10   S    
C10   H2    S    
Cu2   O8    S    
C7    H27   S    
C16   H9    S    
C4    C8    S    
C12   N2    S    
C3    C5    S    
C2    C21   S    
C1    O1    A    
C3    H21   S    
C13   H6    S    
C2    C26   S    
Cu1   O1    S    
C13   C14   S    
C2    C17   S    
C12   H30   S    
C18   O6    A    
Cu1   O5    S    
C7    H28   S    
C6    C9    S    
C14   H13   S    
C24   H16   S    
Cu2   O6    S    
C21   C22   S    
C24   C26   S    
C11   H4    S    
C19   O7    A    
C16   N2    S    
C22   C23   S    
Cu2   O2    S    
C12   H5    S    
C20   C22   S    
C14   N2    S    
C17   O3    A    
C18   O5    A    
C13   N1    S    
Cu2   O4    S    
C26   H18   S    
C23   C24   S    
C2    C20   S    
C15   C16   S    
C25   H17   S    
C9    C18   S    
C7    C8    S    
C23   C25   S    
C11   H29   S    
C19   O8    A    
C4    C6    S    
C3    C8    S    
C4    H20   S    
C1    O2    A    
C3    H19   S    
C14   H7    S    
C21   C25   S    
C19   C23   S    
C15   H8    S    
C13   H12   S    
C5    H25   S    
C16   H11   S    
C6    H24   S    
C25   C26   S    
C11   N1    S    
C10   H3    S    
C6    H26   S    
C5    H23   S    
Cu2   N1    S    
C20   C24   S    
C4    H22   S    
Cu1   Cu2   S    
Cu1   N2    S    
Cu1   O3    S    
