data_mof_unit_56833.cif
_audit_creation_date              2012-12-11T14:06:45-0500
_audit_creation_method            fapswitch 2.2
_symmetry_space_group_name_H-M    P1
_symmetry_Int_Tables_number       1
_space_group_crystal_system       triclinic
_cell_length_a                    6.922657
_cell_length_b                    17.327086
_cell_length_c                    24.090121
_cell_angle_alpha                 104.509953
_cell_angle_beta                  90.443256
_cell_angle_gamma                 89.887147
_cell_volume                      2797.3473929

loop_
_atom_site_label
_atom_site_type_symbol
_atom_type_description
_atom_site_fract_x
_atom_site_fract_y
_atom_site_fract_z
_atom_type_partial_charge
O1    O     O_R   0.494290 0.391990 0.999150 -0.499446
O2    O     O_R   0.827170 0.534410 0.082350 -0.548022
O3    O     O_R   0.994360 0.608010 0.000850 -0.542316
C1    C     C_R   0.658636 0.549777 0.106154 0.709879
O4    O     O_R   0.824210 0.388010 0.004470 -0.525228
O5    O     O_R   0.991370 0.460560 0.922410 -0.540388
C2    C     C_R   0.653779 0.354687 0.000808 0.835622
O6    O     O_R   0.497270 0.539440 0.077590 -0.543969
O7    O     O_3   0.659770 0.523970 0.973170 -0.385227
V1    V     V_3+5 0.935840 0.495550 0.004980 1.496657
O8    O     O_R   0.320910 0.465590 0.917650 -0.541183
C3    C     C_R   0.151416 0.450453 0.893894 0.770599
O9    O     O_R   0.323870 0.611990 0.995530 -0.553158
C4    C     C_R   0.154292 0.645107 0.998524 0.750728
V2    V     V_3+5 0.435470 0.504450 0.995020 1.482565
O10   O     O_3   0.161670 0.476030 0.026830 -0.347703
C5    C     C_2   0.142702 0.730178 0.998098 -0.331371
C6    C     C_2   0.972852 0.769858 0.002021 -0.335519
H1    H     H_    0.838352 0.739192 0.005392 0.148681
C7    C     C_R   0.187529 0.262520 0.623033 0.631697
N1    N     N_R   0.101378 0.333952 0.648199 -0.554100
C8    C     C_R   0.999753 0.375519 0.616056 0.710671
C9    C     C_R   0.980278 0.345160 0.556259 -0.051198
C10   C     C_R   0.067982 0.271838 0.529846 -0.021128
C11   C     C_R   0.173255 0.230181 0.563367 -0.030135
C12   C     C_R   0.875318 0.386116 0.522340 -0.079937
C13   C     C_R   0.857522 0.354644 0.463091 -0.122232
C14   C     C_R   0.944495 0.281474 0.436247 -0.037062
C15   C     C_R   0.050233 0.240028 0.469789 -0.010026
C16   C     C_R   0.138256 0.166805 0.443416 -0.024086
C17   C     C_R   0.243413 0.125889 0.477316 -0.146006
C18   C     C_R   0.260646 0.157172 0.536546 -0.133674
C19   C     C_R   0.929481 0.248797 0.376554 0.596388
N2    N     N_R   0.016131 0.177351 0.351333 -0.560821
C20   C     C_R   0.118689 0.136239 0.383681 0.574115
O11   O     O_2   0.285917 0.222693 0.655678 -0.503491
O12   O     O_2   0.918466 0.446099 0.641797 -0.446429
H2    H     H_    0.806309 0.442586 0.541451 0.204711
H3    H     H_    0.775451 0.387914 0.438423 0.187514
O13   O     O_2   0.831024 0.288687 0.343973 -0.500462
O14   O     O_2   0.200395 0.065596 0.358240 -0.517889
H4    H     H_    0.312763 0.069491 0.458220 0.169396
H5    H     H_    0.342571 0.123874 0.561224 0.176774
C21   C     C_R   0.822110 0.124219 0.263123 -0.074216
H6    H     H_    0.691901 0.131509 0.288536 0.130947
C22   C     C_R   0.809283 0.093078 0.203589 -0.191917
H7    H     H_    0.668337 0.077393 0.184311 0.130026
C23   C     C_R   0.976519 0.082379 0.169524 -0.059027
C24   C     C_R   0.156552 0.103757 0.196667 -0.190973
C25   C     C_R   0.168966 0.134991 0.256073 -0.072645
H8    H     H_    0.308881 0.151415 0.275881 0.128820
C26   C     C_R   0.002086 0.145483 0.289866 0.371620
C27   C     C_R   0.284904 0.401712 0.735744 0.450209
C28   C     C_R   0.297272 0.428899 0.795659 -0.240500
C29   C     C_R   0.139307 0.421181 0.830374 -0.122790
C30   C     C_R   0.968771 0.385383 0.803755 -0.166650
H9    H     H_    0.844614 0.378227 0.829091 0.147517
C31   C     C_R   0.957437 0.357051 0.744093 -0.110059
C32   C     C_R   0.114743 0.364898 0.709625 0.291778
C33   C     C_R   0.550393 0.870396 0.614702 0.572881
N3    N     N_R   0.504217 0.820732 0.648755 -0.575382
C34   C     C_R   0.475490 0.740662 0.625794 0.651610
C35   C     C_R   0.494512 0.706846 0.565811 -0.126395
C36   C     C_R   0.543198 0.758148 0.530544 -0.063992
C37   C     C_R   0.570593 0.840334 0.555150 -0.003477
C38   C     C_R   0.468387 0.624219 0.539471 0.418349
C39   C     C_R   0.490748 0.595061 0.480131 -0.177070
C40   C     C_R   0.538564 0.645787 0.445189 -0.105760
C41   C     C_R   0.564895 0.727532 0.470409 -0.013706
C42   C     C_R   0.612826 0.778855 0.435459 -0.012701
C43   C     C_R   0.638896 0.860484 0.460741 -0.134734
C44   C     C_R   0.618091 0.890805 0.519774 -0.143119
C45   C     C_R   0.559939 0.616680 0.385315 0.716497
N4    N     N_R   0.606485 0.667391 0.351943 -0.544623
C46   C     C_R   0.632952 0.747220 0.375879 0.611981
O15   O     O_2   0.576220 0.948954 0.638448 -0.510913
O16   O     O_2   0.430883 0.694404 0.661223 -0.446907
O17   O     O_2   0.533488 0.538439 0.360673 -0.478844
O18   O     O_2   0.678584 0.795910 0.342151 -0.510827
H10   H     H_    0.675514 0.901336 0.434992 0.173534
H11   H     H_    0.639529 0.954114 0.537598 0.167181
C47   C     C_R   0.465203 0.644320 0.255099 -0.108436
H12   H     H_    0.333377 0.672620 0.273865 0.181539
C48   C     C_R   0.477067 0.615570 0.195531 -0.185167
C49   C     C_R   0.647972 0.579916 0.169738 -0.113277
C50   C     C_R   0.806428 0.573342 0.205337 -0.234369
C51   C     C_R   0.793498 0.600982 0.265285 0.429733
C52   C     C_R   0.622106 0.636955 0.290507 0.304706
C53   C     C_R   0.311053 0.861479 0.737600 -0.072320
H13   H     H_    0.180456 0.843218 0.712820 0.121529
C54   C     C_R   0.298987 0.893567 0.797085 -0.183967
C55   C     C_R   0.466900 0.917548 0.830341 -0.057103
C56   C     C_R   0.646630 0.908999 0.802341 -0.185814
C57   C     C_R   0.658166 0.877447 0.742965 -0.073995
H14   H     H_    0.797880 0.871481 0.722431 0.117999
C58   C     C_R   0.490808 0.853202 0.710116 0.372309
C59   C     C_2   0.637610 0.269887 0.001799 -0.395798
H15   H     H_    0.769765 0.240961 0.010529 0.156841
C60   C     C_2   0.468583 0.228035 0.993648 0.195455
O19   O     O_R   0.618210 0.960470 0.922400 -0.542148
O20   O     O_R   0.291310 0.111960 0.995450 -0.511076
O21   O     O_R   0.124210 0.039530 0.077580 -0.541303
C61   C     C_R   0.460626 0.144572 0.997484 0.724843
O22   O     O_R   0.288310 0.965490 0.917650 -0.541927
O23   O     O_R   0.121180 0.892010 0.999220 -0.539097
C62   C     C_R   0.456758 0.949565 0.893850 0.707462
O24   O     O_R   0.621230 0.107990 0.000760 -0.552947
O25   O     O_3   0.455770 0.976060 0.026840 -0.376950
V3    V     V_3+5 0.179680 0.004440 0.995020 1.470090
O26   O     O_R   0.791670 0.888040 0.004570 -0.547760
C63   C     C_R   0.961252 0.854923 0.001575 0.766195
O27   O     O_R   0.794680 0.034510 0.082370 -0.545512
C64   C     C_R   0.964151 0.050444 0.106102 0.709029
V4    V     V_3+5 0.680070 0.995560 0.005010 1.423049
O28   O     O_3   0.953840 0.023940 0.973160 -0.362326
H16   H     H_    0.277202 0.760844 0.994726 0.149054
Cl1   Cl    Cl    0.482670 0.415720 0.693987 -0.544298
H17   H     H_    0.429667 0.456929 0.814919 0.162240
H18   H     H_    0.826308 0.328295 0.724555 0.182112
Cl2   Cl    Cl    0.407447 0.552622 0.577239 -0.500954
H19   H     H_    0.470113 0.531896 0.461357 0.194488
H20   H     H_    0.352555 0.622145 0.169602 0.142795
H21   H     H_    0.939601 0.545997 0.186746 0.165459
Cl3   Cl    Cl    0.993581 0.590238 0.308130 -0.617066
H22   H     H_    0.158394 0.898890 0.817057 0.126857
H23   H     H_    0.779054 0.926749 0.826298 0.132218
Cl4   Cl    Cl    0.245859 0.267323 0.975771 -0.631875
H24   H     H_    0.288373 0.096801 0.171999 0.129972

loop_
_geom_bond_atom_site_label_1
_geom_bond_atom_site_label_2
_ccdc_geom_bond_type
C60   C61   S    
C51   C52   A    
C56   C57   A    
C17   H4    S    
C45   N4    A    
C28   C29   A    
C34   O16   S    
C1    O6    A    
O22   C62   A    
V4    O28   S    
C27   C32   A    
N3    C58   S    
C27   C28   A    
O25   V3    S    
C12   C13   A    
C34   C35   A    
C16   C20   A    
C14   C15   A    
N1    C32   S    
O5    C3    A    
C16   C17   A    
C27   Cl1   S    
C7    C11   A    
O20   V3    S    
V2    O10   S    
C31   H18   S    
C30   H9    S    
C5    C6    D    
N2    C20   A    
C9    C12   A    
O25   V4    S    
C56   H23   S    
C43   H10   S    
O26   C63   A    
O8    V2    S    
C13   H3    S    
C40   C41   A    
C25   C26   A    
C45   O17   S    
C42   C43   A    
O1    V2    S    
C53   C54   A    
C2    C59   S    
O7    V1    S    
O26   V4    S    
C44   H11   S    
C21   C26   A    
C11   C18   A    
C38   C39   A    
O23   C63   A    
C35   C38   A    
O20   C61   A    
C38   Cl2   S    
N1    C8    A    
C4    C5    S    
N3    C34   A    
C51   Cl3   S    
C39   H19   S    
O27   V4    S    
O27   C64   A    
C59   C60   D    
C21   C22   A    
C59   H15   S    
C19   N2    A    
C22   C23   A    
C19   O13   S    
N4    C46   A    
C39   C40   A    
O19   V4    S    
C10   C11   A    
C54   C55   A    
O4    C2    A    
C50   C51   A    
C6    H1    S    
C60   Cl4   S    
C1    C49   S    
C31   C32   A    
C49   C50   A    
C8    O12   S    
C33   O15   S    
C33   N3    A    
O2    C1    A    
O24   V4    S    
C15   C16   A    
C33   C37   A    
C17   C18   A    
C9    C10   A    
C29   C30   A    
C25   H8    S    
C57   H14   S    
C36   C41   A    
C48   C49   A    
C57   C58   A    
O3    C4    A    
C55   C62   S    
C23   C24   A    
C14   C19   A    
C47   H12   S    
O6    V2    S    
C47   C48   A    
O9    V2    S    
C6    C63   S    
O2    V1    S    
C50   H21   S    
C21   H6    S    
C24   H24   S    
O23   V3    S    
C22   H7    S    
C54   H22   S    
O1    C2    A    
O19   C62   A    
C12   H2    S    
O5    V1    S    
O8    C3    A    
C37   C44   A    
N2    C26   S    
C36   C37   A    
C53   C58   A    
C28   H17   S    
C40   C45   A    
O4    V1    S    
O3    V1    S    
V1    O10   S    
O22   V3    S    
C46   O18   S    
C47   C52   A    
C55   C56   A    
C18   H5    S    
C30   C31   A    
O7    V2    S    
C41   C42   A    
C20   O14   S    
C3    C29   S    
V3    O28   S    
C35   C36   A    
C7    O11   S    
C10   C15   A    
C43   C44   A    
C7    N1    A    
C24   C25   A    
C42   C46   A    
O21   C64   A    
C8    C9    A    
O21   V3    S    
C61   O24   A    
N4    C52   S    
C53   H13   S    
O9    C4    A    
C48   H20   S    
C5    H16   S    
C23   C64   S    
C13   C14   A    
