data_mof_unit_56059.cif
_audit_creation_date              2013-03-05T16:07:27-0500
_audit_creation_method            fapswitch 2.2
_symmetry_space_group_name_H-M    P1
_symmetry_Int_Tables_number       1
_space_group_crystal_system       triclinic
_cell_length_a                    19.429544
_cell_length_b                    7.093732
_cell_length_c                    17.588422
_cell_angle_alpha                 89.999355
_cell_angle_beta                  108.710425
_cell_angle_gamma                 90.000788
_cell_volume                      2296.06357486

loop_
_atom_site_label
_atom_site_type_symbol
_atom_site_description
_atom_site_fract_x
_atom_site_fract_y
_atom_site_fract_z
_atom_type_partial_charge
O1    O     O_R   0.413720 0.494330 0.415730 -0.591335
O2    O     O_R   0.586280 0.994330 0.584270 -0.591378
O3    O     O_R   0.560210 0.819300 0.430070 -0.561379
O4    O     O_R   0.439790 0.319300 0.569930 -0.561411
C1    C     C_R   0.583209 0.655888 0.416728 1.016779
C2    C     C_R   0.416788 0.155884 0.583269 1.016834
O5    O     O_R   0.412670 0.823730 0.406310 -0.577956
O6    O     O_R   0.587330 0.323730 0.593690 -0.577935
O7    O     O_R   0.437690 0.998790 0.560340 -0.591816
O8    O     O_R   0.562310 0.498790 0.439660 -0.591767
C3    C     C_R   0.385725 0.655239 0.382929 1.005261
C4    C     C_R   0.614275 0.155239 0.617071 1.005267
O9    O     O_3   0.508380 0.662350 0.550560 -0.255557
O10   O     O_3   0.491620 0.162350 0.449440 -0.255483
V1    V     V_3+5 0.498450 0.935370 0.490620 1.303521
V2    V     V_3+5 0.501550 0.435370 0.509380 1.303523
C5    C     C_R   0.695444 0.001498 0.743750 0.082972
C6    C     C_R   0.304556 0.501500 0.256249 0.082962
C7    C     C_R   0.681336 0.148372 0.687507 -0.220161
C8    C     C_R   0.318664 0.648372 0.312493 -0.220107
C9    C     C_R   0.732539 0.296538 0.703093 -0.046827
C10   C     C_R   0.267461 0.796536 0.296907 -0.046831
C11   C     C_R   0.798595 0.284918 0.767146 -0.089212
C12   C     C_R   0.201405 0.784917 0.232855 -0.089199
C13   C     C_R   0.815737 0.123862 0.816888 -0.188074
C14   C     C_R   0.184263 0.623863 0.183112 -0.188058
C15   C     C_R   0.761109 0.988435 0.805584 0.188120
C16   C     C_R   0.238891 0.488438 0.194415 0.188117
C17   C     C_3   0.762416 0.778574 0.802102 -0.575461
C18   C     C_3   0.237583 0.278577 0.197897 -0.575451
C19   C     C_3   0.689125 0.792019 0.735486 0.164736
C20   C     C_3   0.310874 0.292022 0.264512 0.164728
C21   C     C_R   0.307910 0.286916 0.614830 0.339865
C22   C     C_R   0.692046 0.787021 0.385116 0.339823
C23   C     C_R   0.363641 0.149770 0.627885 -0.304802
C24   C     C_R   0.636346 0.649798 0.372098 -0.304732
C25   C     C_R   0.369789 0.007847 0.684774 -0.162837
C26   C     C_R   0.630218 0.507830 0.315234 -0.162801
C27   C     C_R   0.323575 0.003627 0.731447 0.188446
C28   C     C_R   0.676432 0.503612 0.268562 0.188735
C29   C     C_R   0.267707 0.139050 0.719474 0.063187
C30   C     C_R   0.732267 0.639122 0.280494 0.063445
C31   C     C_R   0.257911 0.279403 0.659130 -0.180828
C32   C     C_R   0.742020 0.779588 0.340786 -0.181006
C33   C     C_R   0.333437 0.866124 0.790960 -0.179973
C34   C     C_R   0.666601 0.366026 0.209089 -0.179829
C35   C     C_R   0.289282 0.862426 0.839537 -0.105626
C36   C     C_R   0.710756 0.362322 0.160512 -0.105670
C37   C     C_R   0.232602 0.993770 0.828743 -0.004612
C38   C     C_R   0.767409 0.493738 0.171272 -0.004594
C39   C     C_R   0.221673 0.132905 0.768141 0.019409
C40   C     C_R   0.778308 0.632956 0.231835 0.019441
C41   C     C_R   0.165015 0.265567 0.756135 -0.059783
C42   C     C_R   0.834942 0.765684 0.243810 -0.059808
C43   C     C_R   0.154048 0.398876 0.694490 -0.185163
C44   C     C_R   0.845848 0.899163 0.305381 -0.185108
C45   C     C_R   0.198521 0.406493 0.645929 0.339657
C46   C     C_R   0.801344 0.906863 0.353903 0.339608
C47   C     C_R   0.187720 0.990701 0.878180 0.316616
C48   C     C_R   0.812289 0.490668 0.121833 0.316602
C49   C     C_R   0.130135 0.121888 0.865170 -0.447765
C50   C     C_R   0.869863 0.621887 0.134827 -0.447779
C51   C     C_R   0.118517 0.258322 0.803701 0.344813
C52   C     C_R   0.881462 0.758377 0.196271 0.344865
O11   O     O_R   0.937800 0.775460 0.060470 -0.570177
O12   O     O_R   0.062200 0.275460 0.939530 -0.570178
O13   O     O_R   0.087350 0.441340 0.093710 -0.608169
O14   O     O_R   0.912650 0.941340 0.906290 -0.608176
C53   C     C_R   0.114632 0.610421 0.116497 1.012605
C54   C     C_R   0.885368 0.110421 0.883503 1.012626
O15   O     O_R   0.939820 0.446010 0.069950 -0.557354
O16   O     O_R   0.060180 0.946010 0.930050 -0.557372
O17   O     O_R   0.913690 0.271230 0.915700 -0.579034
O18   O     O_R   0.086310 0.771230 0.084300 -0.579040
C55   C     C_R   0.918604 0.614266 0.084715 1.071187
C56   C     C_R   0.081397 0.114268 0.915285 1.071212
O19   O     O_3   0.991670 0.603050 0.949510 -0.264017
O20   O     O_3   0.008330 0.103050 0.050490 -0.263990
V3    V     V_3+5 0.001550 0.329940 0.009370 1.315183
V4    V     V_3+5 0.998450 0.829940 0.990630 1.315165
H1    H     H_    0.723324 0.417038 0.663383 0.136283
H2    H     H_    0.276677 0.917034 0.336617 0.136281
H3    H     H_    0.300370 0.755555 0.885712 0.184630
H4    H     H_    0.699692 0.255383 0.114368 0.184616
N1    N     N_R   0.202448 0.860137 0.943985 0.236996
O21   O     O_R   0.194055 0.679915 0.930495 -0.377061
O22   O     O_R   0.219300 0.922381 0.017272 -0.416489
N2    N     N_R   0.797563 0.360094 0.056032 0.237009
O23   O     O_R   0.805966 0.179875 0.069526 -0.377072
O24   O     O_R   0.780692 0.422331 0.982741 -0.416468
N3    N     N_R   0.057154 0.383048 0.787064 0.241006
O25   O     O_R   0.066832 0.563493 0.798979 -0.349596
O26   O     O_R   0.991508 0.314923 0.764183 -0.404867
N4    N     N_R   0.942833 0.883083 0.212918 0.241012
O27   O     O_R   0.008475 0.814936 0.235841 -0.404784
O28   O     O_R   0.933169 0.063514 0.200940 -0.349586
H5    H     H_    0.109061 0.496766 0.681418 0.211515
H6    H     H_    0.890786 0.997198 0.318402 0.211436
N5    N     N_R   0.178807 0.537917 0.580692 0.264940
O29   O     O_R   0.150333 0.475669 0.507724 -0.292001
O30   O     O_R   0.172684 0.715951 0.595167 -0.344206
N6    N     N_R   0.820920 0.038726 0.418976 0.264876
O31   O     O_R   0.826592 0.216819 0.404242 -0.344599
O32   O     O_R   0.849699 0.977065 0.491999 -0.291911
H7    H     H_    0.837760 0.397787 0.775216 0.159772
H8    H     H_    0.162240 0.897783 0.224785 0.159768
H9    H     H_    0.760191 0.712362 0.858548 0.257345
H10   H     H_    0.239808 0.212368 0.141451 0.257353
H11   H     H_    0.806723 0.726389 0.780419 0.191618
H12   H     H_    0.193276 0.226389 0.219580 0.191629
N7    N     N_R   0.629235 0.718497 0.760378 0.255929
O33   O     O_R   0.617526 0.781505 0.824693 -0.361604
O34   O     O_R   0.588044 0.585314 0.719043 -0.376858
N8    N     N_R   0.370764 0.218504 0.239620 0.255928
O35   O     O_R   0.382472 0.281515 0.175305 -0.361599
O36   O     O_R   0.411955 0.085323 0.280956 -0.376848
H13   H     H_    0.689444 0.739040 0.676093 0.109792
H14   H     H_    0.310555 0.239039 0.323905 0.109825
N9    N     N_R   0.303501 0.433821 0.557462 0.251329
O37   O     O_R   0.324575 0.603626 0.582125 -0.380790
O38   O     O_R   0.288395 0.392631 0.481760 -0.392336
N10   N     N_R   0.696480 0.933840 0.442525 0.251306
O39   O     O_R   0.675191 0.103540 0.417903 -0.380647
O40   O     O_R   0.711745 0.892559 0.518238 -0.392319
H15   H     H_    0.412674 0.903680 0.694744 0.174483
H16   H     H_    0.587355 0.403606 0.305291 0.174519
H17   H     H_    0.376250 0.762001 0.800778 0.155415
H18   H     H_    0.623813 0.261838 0.199302 0.155341

loop_
_geom_bond_atom_site_label_1
_geom_bond_atom_site_label_2
_geom_bond_distance
_ccdc_geom_bond_type
O14   V4    2.004374 S    
C26   C28   1.397819 A    
C15   C17   1.490508 S    
N2    O24   1.301136 A    
C41   C43   1.402499 A    
N7    O33   1.302398 A    
O1    C3    1.315397 A    
C44   H6    1.081731 S    
O16   C56   1.315545 A    
O2    C4    1.315397 A    
C2    O7    1.294026 A    
O15   V3    2.017849 S    
N8    O35   1.302399 A    
C48   N2    1.437634 S    
C35   C37   1.408120 A    
N1    O21   1.300959 A    
C28   C34   1.398244 A    
O12   V3    1.993890 S    
C18   H12   1.110947 S    
C10   H2    1.081803 S    
C17   H11   1.110948 S    
C23   C25   1.397263 A    
C12   C14   1.412333 A    
N6    O32   1.301077 A    
O20   V4    2.183827 S    
C45   N5    1.431942 S    
C1    C24   1.484543 S    
C2    C23   1.484548 S    
C48   C50   1.416324 A    
C33   C35   1.391748 A    
C49   C51   1.414183 A    
C19   H13   1.112068 S    
C50   C52   1.414182 A    
C5    C7    1.401884 A    
C22   N10   1.433837 S    
C32   C46   1.423488 A    
C37   C39   1.417786 A    
C38   C40   1.417791 A    
C46   N6    1.431892 S    
C35   H3    1.080950 S    
C18   C20   1.529463 S    
C22   C24   1.418520 A    
C27   C33   1.398246 A    
O14   C54   1.320574 A    
N9    O38   1.301404 A    
O6    V2    2.004565 S    
O11   V4    1.993880 S    
O18   V4    1.999371 S    
C17   C19   1.529463 S    
C29   C31   1.422795 A    
N4    O27   1.301149 A    
C30   C32   1.422808 A    
C26   H16   1.085042 S    
C40   C42   1.411727 A    
C25   H15   1.085043 S    
O19   V3    2.183810 S    
C49   C56   1.487316 S    
C42   C44   1.402497 A    
C3    C8    1.482983 S    
C47   C49   1.416324 A    
N1    O22   1.301132 A    
C21   C31   1.428029 A    
C6    C16   1.388864 A    
C27   C29   1.413819 A    
N3    O25   1.300949 A    
O20   V3    1.752073 S    
O5    V1    2.004559 S    
C36   H4    1.080946 S    
C39   C41   1.411718 A    
C5    C15   1.388865 A    
O4    V2    2.017892 S    
O5    C3    1.316675 A    
C47   N1    1.437630 S    
C20   N8    1.464438 S    
N3    O26   1.301148 A    
N5    O29   1.301005 A    
O6    C4    1.316679 A    
O12   C56   1.315490 A    
C43   H5    1.081731 S    
C54   O17   1.313334 A    
O17   V3    1.999369 S    
C22   C32   1.428017 A    
C53   O18   1.313333 A    
N7    O34   1.299366 A    
O1    V2    1.999204 S    
N4    O28   1.300949 A    
O2    V1    1.999202 S    
O4    C2    1.290670 A    
N5    O30   1.301310 A    
C9    H1    1.081802 S    
C21   N9    1.433855 S    
C9    C11   1.412642 A    
C5    C19   1.494288 S    
C10   C12   1.412642 A    
C50   C55   1.487314 S    
C6    C20   1.494287 S    
C8    C10   1.412302 A    
N10   O40   1.301411 A    
C24   C26   1.397255 A    
O3    V1    2.017915 S    
O19   V4    1.752084 S    
C34   H18   1.084061 S    
C18   H10   1.111594 S    
C20   H14   1.112066 S    
C28   C30   1.413826 A    
O3    C1    1.290656 A    
O11   C55   1.315485 A    
N8    O36   1.299365 A    
N9    O37   1.301079 A    
C13   C15   1.397716 A    
C14   C16   1.397717 A    
C37   C47   1.415444 A    
C38   C48   1.415445 A    
C43   C45   1.397350 A    
O7    V1    2.007135 S    
C52   N4    1.437400 S    
C16   C18   1.490508 S    
C25   C27   1.397823 A    
O8    V2    2.007122 S    
O15   C55   1.315548 A    
C41   C51   1.415513 A    
C42   C52   1.415504 A    
C33   H17   1.084061 S    
C4    C7    1.482984 S    
C36   C38   1.408117 A    
C21   C23   1.418533 A    
C44   C46   1.397312 A    
C6    C8    1.401885 A    
C11   C13   1.412335 A    
N6    O31   1.301402 A    
C31   C45   1.423501 A    
C34   C36   1.391742 A    
C1    O8    1.294035 A    
C12   H8    1.082104 S    
N2    O23   1.300956 A    
O16   V4    2.017825 S    
O9    V2    1.753026 S    
C51   N3    1.437397 S    
C14   C53   1.481623 S    
C19   N7    1.464438 S    
O10   V1    1.753014 S    
C17   H9    1.111593 S    
C13   C54   1.481623 S    
O13   C53   1.320572 A    
N10   O39   1.301103 A    
C29   C39   1.423296 A    
O13   V3    2.004367 S    
C30   C40   1.423298 A    
C7    C9    1.412301 A    
C11   H7    1.082104 S    
