data_mof_unit_31798.cif
_audit_creation_date              2012-12-11T14:14:54-0500
_audit_creation_method            fapswitch 2.2
_symmetry_space_group_name_H-M    P1
_symmetry_Int_Tables_number       1
_space_group_crystal_system       triclinic
_cell_length_a                    24.477326
_cell_length_b                    17.38885
_cell_length_c                    15.757302
_cell_angle_alpha                 89.156546
_cell_angle_beta                  129.435768
_cell_angle_gamma                 90.001002
_cell_volume                      5178.98740824

loop_
_atom_site_label
_atom_site_type_symbol
_atom_type_description
_atom_site_fract_x
_atom_site_fract_y
_atom_site_fract_z
_atom_type_partial_charge
C1    C     C_R   0.333302 0.398041 0.197826 -0.200460
C2    C     C_R   0.676444 0.633226 0.498209 -0.147429
C3    C     C_3   0.184975 0.310627 0.753061 -0.107658
C4    C     C_3   0.855231 0.412249 0.056285 -0.419933
C5    C     C_3   0.299825 0.226801 0.166143 -0.206682
C6    C     C_3   0.243715 0.971360 0.079825 -0.277780
C7    C     C_3   0.642661 0.880154 0.996764 -0.344864
C8    C     C_3   0.612462 0.274335 0.984481 0.265843
C9    C     C_3   0.612613 0.335791 0.053793 -0.328109
C10   C     C_3   0.543122 0.336345 0.034549 -1.021507
C11   C     C_3   0.331854 0.427423 0.930122 0.178378
C12   C     C_3   0.356636 0.510146 0.966028 -0.294527
C13   C     C_R   0.823110 0.131766 0.502494 -0.183165
C14   C     C_3   0.412818 0.531858 0.956166 -0.969334
C15   C     C_3   0.114085 0.734521 0.952622 0.286683
C16   C     C_3   0.118185 0.749034 0.052583 -0.326260
C17   C     C_3   0.105859 0.833223 0.062598 -0.957796
C18   C     C_3   0.836949 0.826044 0.935463 0.141065
C19   C     C_3   0.849164 0.853093 0.855854 -0.226433
C20   C     C_3   0.882186 0.790291 0.834107 -1.013956
C21   C     C_3   0.198245 0.566946 0.315591 0.174853
C22   C     C_3   0.135381 0.536232 0.204097 -0.283643
C23   C     C_3   0.078509 0.505084 0.207229 -1.060584
C24   C     C_R   0.177112 0.131023 0.497706 -0.180434
C25   C     C_3   0.771032 0.517756 0.690537 0.277400
C26   C     C_3   0.851588 0.509573 0.767439 -0.319309
C27   C     C_3   0.884003 0.559944 0.729774 -0.866779
C28   C     C_3   0.695087 0.085631 0.277702 0.256487
C29   C     C_3   0.697342 0.999163 0.262971 -0.355388
C30   C     C_3   0.624157 0.964104 0.199512 -1.042223
C31   C     C_3   0.304521 0.063385 0.684358 0.167258
C32   C     C_3   0.357640 0.005903 0.776205 -0.289163
C33   C     C_3   0.428307 0.007884 0.799082 -1.055724
C34   C     C_3   0.493611 0.730122 0.210687 0.199701
C35   C     C_R   0.369880 0.671833 0.183089 -0.126509
C36   C     C_3   0.463065 0.766858 0.099649 -0.294822
C37   C     C_3   0.461823 0.854502 0.103607 -1.011729
C38   C     C_3   0.526732 0.712247 0.843950 0.161947
C39   C     C_3   0.469789 0.716301 0.856652 -0.280921
C40   C     C_3   0.458774 0.798497 0.875736 -1.060567
C41   C     C_3   0.994808 0.221589 0.197268 0.212213
C42   C     C_3   0.972925 0.245454 0.085931 -0.271111
C43   C     C_3   0.998615 0.326053 0.089003 -1.109914
C44   C     C_3   0.007615 0.224605 0.795717 0.204981
C45   C     C_3   0.039282 0.256788 0.908211 -0.264075
C46   C     C_R   0.624784 0.674282 0.803351 -0.173440
C47   C     C_3   0.037858 0.344647 0.905396 -1.047177
C48   C     C_3   0.763096 0.583016 0.908019 0.334686
C49   C     C_3   0.827643 0.621951 0.010639 -0.339287
C50   C     C_3   0.888013 0.631838 0.006721 -0.925579
C51   C     C_3   0.233698 0.571025 0.117905 0.318893
C52   C     C_3   0.228591 0.557450 0.016892 -0.442763
C53   C     C_3   0.169983 0.500895 0.938713 -0.864755
C54   C     C_3   0.262813 0.067825 0.889330 0.341091
C55   C     C_3   0.339707 0.086352 0.988884 -0.290447
C56   C     C_3   0.371975 0.152069 0.968281 -0.731947
C57   C     C_R   0.874772 0.175400 0.190971 -0.128331
C58   C     C_3   0.736154 0.080018 0.081383 0.259855
C59   C     C_3   0.731922 0.101787 0.982122 -0.384086
C60   C     C_3   0.677315 0.054434 0.881434 -0.926602
C61   C     C_3   0.767060 0.541841 0.370970 -0.229318
C62   C     C_3   0.226116 0.534413 0.597776 -0.347257
C63   C     C_3   0.271260 0.041241 0.382383 -0.261445
C64   C     C_3   0.745586 0.059052 0.659521 -0.257526
C65   C     C_R   0.127621 0.169360 0.811544 -0.153632
C66   C     C_2   0.749105 0.645604 0.442378 0.298252
C67   C     C_2   0.256177 0.649336 0.565903 0.334814
C68   C     C_2   0.247088 0.148416 0.439223 0.308791
C69   C     C_R   0.666790 0.391675 0.800226 -0.152887
C70   C     C_2   0.760304 0.155163 0.571293 0.314066
C71   C     C_2   0.727721 0.674309 0.496432 0.380498
C72   C     C_2   0.276329 0.678886 0.509918 0.349573
C73   C     C_2   0.225656 0.176633 0.493558 0.302155
C74   C     C_2   0.776575 0.179258 0.508001 0.369719
C75   C     C_2   0.285069 0.201640 0.418007 0.558048
C76   C     C_2   0.730128 0.214452 0.597189 0.543225
C77   C     C_2   0.786655 0.699389 0.420245 0.524666
C78   C     C_2   0.221332 0.702484 0.591142 0.557237
C79   C     C_2   0.344230 0.234529 0.505214 -0.327344
C80   C     C_R   0.831776 0.896951 0.203743 -0.122312
C81   C     C_2   0.662682 0.235176 0.513433 -0.341772
C82   C     C_2   0.844907 0.734090 0.506977 -0.316020
C83   C     C_2   0.159053 0.733861 0.504695 -0.345726
C84   C     C_2   0.695374 0.335479 0.975998 0.310503
C85   C     C_2   0.307804 0.355109 0.026155 0.373917
C86   C     C_2   0.191831 0.821906 0.964676 0.298985
C87   C     C_2   0.789339 0.863976 0.015581 0.278894
C88   C     C_2   0.764810 0.354051 0.042308 0.298296
C89   C     C_2   0.274885 0.289706 0.013390 0.255356
C90   C     C_2   0.257657 0.850650 0.041418 0.317566
C91   C     C_R   0.165934 0.888015 0.797437 -0.159116
C92   C     C_2   0.722837 0.844051 0.975393 0.349497
C93   C     C_2   0.330302 0.733090 0.099531 -0.280608
C94   C     C_2   0.666195 0.728366 0.889964 -0.337818
C95   C     C_2   0.839865 0.240751 0.114342 -0.359905
C96   C     C_2   0.171001 0.212090 0.909966 -0.267452
C97   C     C_R   0.586927 0.355655 0.411661 -0.124457
C98   C     C_R   0.414645 0.355847 0.591968 -0.130483
C99   C     C_R   0.086436 0.856203 0.410477 -0.132053
C100  C     C_R   0.914375 0.856130 0.592302 -0.137969
C101  C     C_2   0.317819 0.800068 0.126752 0.629927
C102  C     C_R   0.390408 0.609880 0.592845 -0.157805
C103  C     C_2   0.678643 0.800606 0.874283 0.559613
C104  C     C_2   0.816018 0.300563 0.136141 0.670492
C105  C     C_2   0.203969 0.273088 0.910650 0.582302
C106  C     C_R   0.659361 0.356366 0.594763 -0.125009
C107  C     C_R   0.340334 0.356962 0.408363 -0.120709
C108  C     C_R   0.161092 0.856867 0.593913 -0.098378
C109  C     C_R   0.840257 0.856656 0.409161 -0.147585
C110  C     C_R   0.577137 0.392325 0.801244 -0.159931
C111  C     C_R   0.424647 0.396112 0.199893 -0.161426
C112  C     C_R   0.076136 0.887892 0.798429 -0.169615
C113  C     C_R   0.611367 0.608721 0.408330 -0.202660
C114  C     C_R   0.917312 0.897965 0.193319 -0.138756
C115  C     C_R   0.354721 0.380236 0.137976 0.090090
C116  C     C_R   0.647127 0.369155 0.862308 0.053935
C117  C     C_R   0.845511 0.879992 0.134473 0.054995
C118  C     C_R   0.144897 0.861535 0.855823 0.068431
C119  C     C_R   0.636752 0.312426 0.506265 0.227708
C120  C     C_R   0.365957 0.311928 0.500485 0.201065
C121  C     C_R   0.136916 0.812447 0.504059 0.220664
C122  C     C_R   0.865919 0.811851 0.501382 0.199986
C123  C     C_R   0.313823 0.608441 0.411171 0.564529
C124  C     C_R   0.888785 0.107022 0.591972 -0.182525
C125  C     C_R   0.685189 0.610464 0.590071 0.566104
C126  C     C_R   0.814553 0.110181 0.410826 0.574528
C127  C     C_R   0.187087 0.104194 0.590086 0.579148
C128  C     C_R   0.434375 0.636376 0.227558 0.448637
C129  C     C_R   0.563932 0.635054 0.769523 0.490346
C130  C     C_R   0.937393 0.137576 0.232111 0.437047
C131  C     C_R   0.064548 0.134533 0.770277 0.469656
C132  C     C_R   0.654561 0.633891 0.766957 0.424495
C133  C     C_R   0.341615 0.630616 0.221767 0.454209
C134  C     C_R   0.156424 0.130959 0.772050 0.411307
C135  C     C_R   0.111322 0.108251 0.408147 -0.163365
C136  C     C_R   0.843266 0.132704 0.223434 0.589097
C137  C     C_3   0.696821 0.795104 0.515089 0.176222
C138  C     C_3   0.712945 0.875404 0.496777 -0.244719
C139  C     C_3   0.651714 0.930945 0.453536 -1.029597
C140  C     C_3   0.297884 0.794787 0.457878 0.249673
C141  C     C_3   0.355112 0.826800 0.572539 -0.326956
C142  C     C_3   0.412998 0.866953 0.578863 -1.039615
C143  C     C_3   0.207590 0.289453 0.555486 0.264568
C144  C     C_3   0.159635 0.340741 0.452452 -0.329949
C145  C     C_3   0.098825 0.375096 0.443875 -1.065036
C146  C     C_R   0.324374 0.633942 0.503830 -0.191454
C147  C     C_3   0.796521 0.295753 0.455943 0.262452
C148  C     C_3   0.833926 0.344365 0.559402 -0.324682
C149  C     C_3   0.897014 0.386731 0.583920 -1.057979
C150  C     C_3   0.183739 0.223322 0.237209 -0.320231
C151  C     C_3   0.830046 0.232429 0.778711 -0.371048
C152  C     C_3   0.685432 0.726853 0.242411 -0.272140
C153  C     C_3   0.277653 0.692235 0.773826 -0.326801
C154  C     C_3   0.345736 0.817938 0.293083 -0.254216
C155  C     C_3   0.641738 0.812509 0.698123 -0.177264
C156  C     C_3   0.823214 0.379919 0.260143 -0.281891
H1    H     H_    0.279566 0.398780 0.167965 0.082369
H2    H     H_    0.694468 0.704494 0.972595 0.153550
H3    H     H_    0.306328 0.423757 0.841645 0.113789
H4    H     H_    0.378194 0.386931 0.974184 0.075180
H5    H     H_    0.310601 0.550125 0.914090 0.193435
H6    H     H_    0.379326 0.516924 0.052709 0.206831
H7    H     H_    0.460457 0.494515 0.011273 0.270363
H8    H     H_    0.428426 0.592520 0.980757 0.274925
H9    H     H_    0.391919 0.525793 0.870117 0.278166
H10   H     H_    0.101212 0.672876 0.932490 0.074079
H11   H     H_    0.068887 0.764921 0.877823 0.070517
H12   H     H_    0.076711 0.714642 0.044103 0.156516
H13   H     H_    0.827591 0.236596 0.035230 0.091472
H14   H     H_    0.170266 0.729476 0.129341 0.260087
H15   H     H_    0.148217 0.869566 0.077531 0.251864
H16   H     H_    0.106439 0.839254 0.133229 0.267043
H17   H     H_    0.053638 0.853641 0.986937 0.259113
H18   H     H_    0.804947 0.773034 0.903293 0.144510
H19   H     H_    0.888980 0.813037 0.016987 0.100818
H20   H     H_    0.797753 0.870917 0.776346 0.195237
H21   H     H_    0.884463 0.903765 0.890490 0.203595
H22   H     H_    0.932248 0.768493 0.912480 0.263915
H23   H     H_    0.894001 0.814051 0.781599 0.270803
H24   H     H_    0.191521 0.178475 0.983135 0.126606
H25   H     H_    0.844576 0.742274 0.789872 0.308069
H26   H     H_    0.177189 0.613399 0.335481 0.119773
H27   H     H_    0.221092 0.519232 0.378003 0.109406
H28   H     H_    0.111608 0.583652 0.141759 0.193637
H29   H     H_    0.153432 0.489498 0.179357 0.185519
H30   H     H_    0.098725 0.453089 0.261267 0.281828
H31   H     H_    0.031483 0.489499 0.122910 0.281220
H32   H     H_    0.062145 0.549153 0.237743 0.271264
H33   H     H_    0.750057 0.497411 0.607860 0.094602
H34   H     H_    0.751199 0.479308 0.722239 0.046917
H35   H     H_    0.557650 0.337386 0.327985 0.114287
H36   H     H_    0.874122 0.525128 0.851943 0.196764
H37   H     H_    0.865821 0.448444 0.769603 0.165463
H38   H     H_    0.861405 0.545601 0.644695 0.254400
H39   H     H_    0.942099 0.549925 0.785162 0.233851
H40   H     H_    0.873784 0.621705 0.732452 0.283331
H41   H     H_    0.648207 0.111424 0.198769 0.137186
H42   H     H_    0.687213 0.096029 0.338650 0.069864
H43   H     H_    0.717423 0.988517 0.217847 0.202082
H44   H     H_    0.734009 0.970915 0.345172 0.195938
H45   H     H_    0.599249 0.981340 0.235575 0.280277
H46   H     H_    0.444580 0.337933 0.676853 0.101944
H47   H     H_    0.628769 0.900471 0.202822 0.271118
H48   H     H_    0.589679 0.983873 0.112195 0.268319
H49   H     H_    0.332284 0.117212 0.693740 0.137068
H50   H     H_    0.283387 0.035548 0.605660 0.116661
H51   H     H_    0.367376 0.018836 0.853236 0.216215
H52   H     H_    0.335715 0.946911 0.752209 0.200826
H53   H     H_    0.420933 0.991757 0.724543 0.279776
H54   H     H_    0.466351 0.967206 0.867406 0.278946
H55   H     H_    0.451178 0.066368 0.824035 0.266441
H56   H     H_    0.551932 0.734407 0.263907 0.078342
H57   H     H_    0.055406 0.838451 0.326126 0.106470
H58   H     H_    0.478478 0.763984 0.252803 0.140010
H59   H     H_    0.496296 0.748852 0.078033 0.199387
H60   H     H_    0.408620 0.746485 0.034667 0.206275
H61   H     H_    0.424961 0.873434 0.117870 0.298802
H62   H     H_    0.443760 0.880424 0.024683 0.273976
H63   H     H_    0.515494 0.875633 0.170875 0.270231
H64   H     H_    0.514027 0.755664 0.780670 0.129166
H65   H     H_    0.577664 0.725731 0.925271 0.145471
H66   H     H_    0.418619 0.695439 0.781966 0.218779
H67   H     H_    0.485641 0.678950 0.927020 0.202450
H68   H     H_    0.943852 0.838519 0.677099 0.097745
H69   H     H_    0.507064 0.819118 0.955492 0.265429
H70   H     H_    0.413518 0.800565 0.875833 0.302546
H71   H     H_    0.446440 0.837385 0.809163 0.286054
H72   H     H_    0.053097 0.223908 0.257721 0.101280
H73   H     H_    0.975078 0.264464 0.224382 0.097338
H74   H     H_    0.995516 0.203755 0.062618 0.203070
H75   H     H_    0.914627 0.244023 0.022783 0.184514
H76   H     H_    0.987538 0.366082 0.130601 0.279389
H77   H     H_    0.970926 0.347961 0.004025 0.285151
H78   H     H_    0.056398 0.325120 0.134112 0.282840
H79   H     H_    0.694858 0.338871 0.679802 0.152187
H80   H     H_    0.949397 0.229299 0.743484 0.095049
H81   H     H_    0.022092 0.261486 0.754109 0.121336
H82   H     H_    0.008650 0.235323 0.933208 0.192202
H83   H     H_    0.094611 0.236498 0.970859 0.197523
H84   H     H_    0.065419 0.367191 0.875350 0.292792
H85   H     H_    0.065515 0.366480 0.989408 0.272129
H86   H     H_    0.982359 0.366295 0.850726 0.274004
H87   H     H_    0.780097 0.533349 0.886325 0.127318
H88   H     H_    0.731167 0.559373 0.930465 0.072943
H89   H     H_    0.811779 0.678886 0.020090 0.177953
H90   H     H_    0.302253 0.342566 0.323192 0.159016
H91   H     H_    0.847369 0.586835 0.084850 0.189357
H92   H     H_    0.915029 0.576037 0.022061 0.241021
H93   H     H_    0.927624 0.671952 0.071521 0.245176
H94   H     H_    0.867872 0.655039 0.925571 0.303523
H95   H     H_    0.179169 0.580031 0.087530 0.118144
H96   H     H_    0.255130 0.519987 0.173480 0.088783
H97   H     H_    0.217248 0.612256 0.971433 0.250871
H98   H     H_    0.279734 0.534269 0.044275 0.209552
H99   H     H_    0.180873 0.444269 0.980477 0.259831
H100  H     H_    0.166858 0.493086 0.865952 0.308043
H101  H     H_    0.198399 0.840716 0.679096 0.160259
H102  H     H_    0.117995 0.523237 0.909612 0.232097
H103  H     H_    0.262725 0.020974 0.842292 0.106881
H104  H     H_    0.236772 0.044699 0.921621 0.072587
H105  H     H_    0.342144 0.101445 0.059351 0.224934
H106  H     H_    0.372894 0.033661 0.014271 0.153840
H107  H     H_    0.366646 0.142367 0.894084 0.256282
H108  H     H_    0.429022 0.156830 0.040133 0.211723
H109  H     H_    0.345629 0.207523 0.957097 0.259959
H110  H     H_    0.681526 0.075432 0.052819 0.123547
H111  H     H_    0.761015 0.022876 0.113216 0.044973
H112  H     H_    0.719987 0.392290 0.827774 0.129758
H113  H     H_    0.801428 0.841493 0.324606 0.187725
H114  H     H_    0.717023 0.163020 0.959081 0.255861
H115  H     H_    0.784250 0.092025 0.003440 0.201160
H116  H     H_    0.692519 0.992818 0.898224 0.290593
H117  H     H_    0.674676 0.073680 0.811370 0.264295
H118  H     H_    0.624128 0.061997 0.857837 0.255474
H119  H     H_    0.824497 0.547432 0.441425 0.120120
H120  H     H_    0.753951 0.568190 0.295308 0.181302
H121  H     H_    0.755417 0.479657 0.355709 0.155946
H122  H     H_    0.181226 0.530572 0.507998 0.152940
H123  H     H_    0.207595 0.557925 0.640870 0.146684
H124  H     H_    0.547834 0.398188 0.830751 0.108910
H125  H     H_    0.246029 0.475151 0.630281 0.187332
H126  H     H_    0.325541 0.040691 0.463427 0.123689
H127  H     H_    0.270977 0.068700 0.317996 0.168401
H128  H     H_    0.255281 0.980668 0.358742 0.163730
H129  H     H_    0.687407 0.066946 0.594496 0.130657
H130  H     H_    0.764320 0.089300 0.734930 0.148483
H131  H     H_    0.756229 0.996984 0.681323 0.184289
H132  H     H_    0.455536 0.398877 0.172684 0.101027
H133  H     H_    0.047267 0.890634 0.829005 0.104230
H134  H     H_    0.943691 0.903921 0.158775 0.121088
H135  H     H_    0.409551 0.605646 0.675748 0.205725
H136  H     H_    0.594291 0.604275 0.326458 0.212863
H137  H     H_    0.907656 0.102913 0.675034 0.210785
H138  H     H_    0.094028 0.103484 0.326268 0.207401
H139  H     H_    0.692614 0.796483 0.581004 0.108016
H140  H     H_    0.781997 0.906842 0.184960 0.157252
H141  H     H_    0.644609 0.778346 0.437212 0.072150
H142  H     H_    0.762053 0.896793 0.575067 0.216865
H143  H     H_    0.721629 0.872286 0.435806 0.204555
H144  H     H_    0.602551 0.910604 0.374538 0.267939
H145  H     H_    0.664375 0.988679 0.439617 0.288384
H146  H     H_    0.642421 0.935496 0.513662 0.258619
H147  H     H_    0.268606 0.843921 0.399395 0.109805
H148  H     H_    0.321589 0.762676 0.428206 0.080341
H149  H     H_    0.330740 0.867805 0.593727 0.222835
H150  H     H_    0.379917 0.778997 0.633746 0.214231
H151  H     H_    0.219697 0.888345 0.827100 0.102204
H152  H     H_    0.438404 0.826098 0.559385 0.275654
H153  H     H_    0.454317 0.887932 0.663314 0.283231
H154  H     H_    0.390593 0.916695 0.520514 0.260049
H155  H     H_    0.240232 0.327495 0.627442 0.090326
H156  H     H_    0.176216 0.254980 0.570198 0.076543
H157  H     H_    0.191327 0.387668 0.454669 0.202908
H158  H     H_    0.137168 0.306858 0.378282 0.191145
H159  H     H_    0.065164 0.328577 0.437049 0.273707
H160  H     H_    0.065440 0.412830 0.369589 0.278559
H161  H     H_    0.119586 0.409718 0.517250 0.265114
H162  H     H_    0.368550 0.211878 0.587128 0.117434
H163  H     H_    0.767459 0.335470 0.383496 0.116899
H164  H     H_    0.835456 0.264807 0.454063 0.114087
H165  H     H_    0.795790 0.386606 0.548716 0.228020
H166  H     H_    0.853540 0.306940 0.631153 0.228398
H167  H     H_    0.935858 0.345194 0.595685 0.272417
H168  H     H_    0.923492 0.420043 0.660184 0.289973
H169  H     H_    0.879586 0.426988 0.515678 0.261668
H170  H     H_    0.161556 0.252376 0.271822 0.133155
H171  H     H_    0.162218 0.164509 0.210192 0.197830
H172  H     H_    0.165948 0.257442 0.163595 0.159096
H173  H     H_    0.630318 0.199542 0.441095 0.108149
H174  H     H_    0.862081 0.191198 0.772740 0.179092
H175  H     H_    0.808418 0.204937 0.815716 0.157740
H176  H     H_    0.866595 0.277937 0.835216 0.181620
H177  H     H_    0.668049 0.765357 0.277324 0.114012
H178  H     H_    0.659073 0.670276 0.221954 0.175424
H179  H     H_    0.667836 0.753715 0.164316 0.197751
H180  H     H_    0.313815 0.644196 0.792623 0.206579
H181  H     H_    0.227754 0.670341 0.753173 0.140351
H182  H     H_    0.304275 0.726419 0.849236 0.164449
H183  H     H_    0.287171 0.820480 0.243968 0.121105
H184  H     H_    0.869144 0.712278 0.589218 0.125826
H185  H     H_    0.368516 0.864190 0.354260 0.168032
H186  H     H_    0.366862 0.762180 0.338533 0.150144
H187  H     H_    0.635936 0.861825 0.647450 0.149115
H188  H     H_    0.598259 0.772167 0.641709 0.129322
H189  H     H_    0.693732 0.784662 0.736355 0.143035
H190  H     H_    0.851739 0.423125 0.248871 0.157065
H191  H     H_    0.845990 0.382074 0.347161 0.159695
H192  H     H_    0.766101 0.395018 0.208494 0.135524
H193  H     H_    0.180851 0.365964 0.713379 0.139401
H194  H     H_    0.145831 0.271382 0.686474 0.119719
H195  H     H_    0.129481 0.706207 0.425421 0.104731
H196  H     H_    0.239679 0.287674 0.797564 0.121209
H197  H     H_    0.856556 0.364288 0.011838 0.171752
H198  H     H_    0.895979 0.404561 0.146853 0.170263
H199  H     H_    0.869621 0.464353 0.034294 0.188625
H200  H     H_    0.290212 0.165944 0.174805 0.164343
H201  H     H_    0.253114 0.261590 0.140251 0.128306
H202  H     H_    0.347225 0.245040 0.248529 0.194596
H203  H     H_    0.264924 0.030424 0.096164 0.162809
H204  H     H_    0.259459 0.948025 0.158786 0.147399
H205  H     H_    0.185169 0.975963 0.017023 0.142589
H206  H     H_    0.297936 0.716567 0.014104 0.106099
H207  H     H_    0.627122 0.871170 0.048490 0.182661
H208  H     H_    0.597454 0.862290 0.912246 0.174662
H209  H     H_    0.652158 0.942425 0.996613 0.154982
H210  H     H_    0.605061 0.217804 0.009569 0.132361
H211  H     H_    0.567032 0.279446 0.895643 0.068713
H212  H     H_    0.656824 0.323356 0.142263 0.228345
H213  H     H_    0.620653 0.393780 0.033129 0.185846
H214  H     H_    0.498265 0.351082 0.947243 0.266064
H215  H     H_    0.545445 0.379971 0.087479 0.274024
H216  H     H_    0.533931 0.279176 0.055634 0.265570
N1    N     N_R   0.389060 0.424180 0.294540 -0.042032
N2    N     N_R   0.374530 0.423490 0.443400 -0.061259
N3    N     N_R   0.125470 0.923490 0.556600 -0.061137
N4    N     N_R   0.874530 0.923490 0.443400 -0.071161
N5    N     N_R   0.555250 0.423100 0.705420 -0.033158
N6    N     N_R   0.444750 0.423100 0.294580 -0.034103
N7    N     N_R   0.055250 0.923100 0.705420 -0.032384
N8    N     N_R   0.944750 0.923100 0.294580 -0.040962
N9    N     N_R   0.375210 0.577180 0.443400 -0.102925
N10   N     N_R   0.624790 0.577180 0.556600 -0.120020
N11   N     N_R   0.875210 0.077180 0.443400 -0.106158
N12   N     N_R   0.610940 0.424180 0.705460 -0.049084
N13   N     N_R   0.124790 0.077180 0.556600 -0.101698
N14   N     N_R   0.445430 0.577570 0.294580 -0.118380
N15   N     N_R   0.554570 0.577570 0.705420 -0.111552
N16   N     N_R   0.945430 0.077570 0.294580 -0.119259
N17   N     N_R   0.054570 0.077570 0.705420 -0.115211
N18   N     N_R   0.611620 0.576500 0.705460 -0.133904
N19   N     N_R   0.388380 0.576500 0.294540 -0.142782
N20   N     N_R   0.111620 0.076500 0.705460 -0.135869
N21   N     N_R   0.888380 0.076500 0.294540 -0.158022
N22   N     N_R   0.421010 0.576890 0.556640 -0.076879
N23   N     N_R   0.889060 0.924180 0.294540 -0.057694
N24   N     N_R   0.578990 0.576890 0.443360 -0.069842
N25   N     N_R   0.921010 0.076890 0.556640 -0.073637
N26   N     N_R   0.078990 0.076890 0.443360 -0.075143
N27   N     N_R   0.110940 0.924180 0.705460 -0.046660
N28   N     N_R   0.579670 0.423790 0.443360 -0.043582
N29   N     N_R   0.420330 0.423790 0.556640 -0.041588
N30   N     N_R   0.079670 0.923790 0.443360 -0.043203
N31   N     N_R   0.920330 0.923790 0.556640 -0.038819
N32   N     N_R   0.625470 0.423490 0.556600 -0.076799
Ni1   Ni    Ni4+2 0.383200 0.500680 0.370150 0.204191
Ni2   Ni    Ni4+2 0.616800 0.500680 0.629850 0.197993
Ni3   Ni    Ni4+2 0.883200 0.000680 0.370150 0.196925
Ni4   Ni    Ni4+2 0.116800 0.000680 0.629850 0.219424
Ni5   Ni    Ni4+2 0.512440 0.500680 0.370150 0.216288
Ni6   Ni    Ni4+2 0.487560 0.500680 0.629850 0.227216
Ni7   Ni    Ni4+2 0.012440 0.000680 0.370150 0.228518
Ni8   Ni    Ni4+2 0.987560 0.000680 0.629850 0.220187
O1    O     O_3   0.752940 0.744712 0.548497 -0.685456
O2    O     O_3   0.634831 0.840516 0.774403 -0.622568
O3    O     O_3   0.832889 0.304820 0.238840 -0.601826
O4    O     O_3   0.167531 0.324223 0.821422 -0.614945
O5    O     O_3   0.786795 0.421483 0.023383 -0.656592
O6    O     O_3   0.314038 0.231045 0.092198 -0.659667
O7    O     O_3   0.271971 0.927608 0.040591 -0.638708
O8    O     O_3   0.704799 0.836683 0.042634 -0.657775
O9    O     O_3   0.677641 0.269557 0.005416 -0.668053
O10   O     O_3   0.280371 0.408562 0.941405 -0.651091
O11   O     O_3   0.179959 0.745730 0.976842 -0.677002
O12   O     O_3   0.248542 0.750079 0.455224 -0.678255
O13   O     O_3   0.800264 0.884822 0.942095 -0.659608
O14   O     O_3   0.249009 0.596929 0.308359 -0.661069
O15   O     O_3   0.751190 0.594559 0.689301 -0.613617
O16   O     O_3   0.755214 0.122270 0.302851 -0.618293
O17   O     O_3   0.250766 0.081660 0.690669 -0.652953
O18   O     O_3   0.476015 0.651031 0.198258 -0.671236
O19   O     O_3   0.530065 0.637179 0.814401 -0.670718
O20   O     O_3   0.974155 0.144632 0.192877 -0.666940
O21   O     O_3   0.025858 0.145536 0.805495 -0.676178
O22   O     O_3   0.725672 0.635577 0.817475 -0.630069
O23   O     O_3   0.254551 0.245143 0.551666 -0.694619
O24   O     O_3   0.271686 0.637638 0.176427 -0.619937
O25   O     O_3   0.227094 0.133237 0.819849 -0.621149
O26   O     O_3   0.771053 0.135335 0.165412 -0.571176
O27   O     O_3   0.724590 0.573899 0.393400 -0.633533
O28   O     O_3   0.281886 0.577926 0.618394 -0.636327
O29   O     O_3   0.222106 0.077548 0.387953 -0.630274
O30   O     O_3   0.782939 0.082756 0.623132 -0.641066
O31   O     O_3   0.745937 0.246882 0.444603 -0.671446
O32   O     O_3   0.258419 0.221269 0.311845 -0.657578
O33   O     O_3   0.775513 0.267948 0.677114 -0.644005
O34   O     O_3   0.759800 0.718065 0.313670 -0.618042
O35   O     O_3   0.264569 0.740295 0.689953 -0.629954
O36   O     O_3   0.368240 0.828631 0.230881 -0.618382

loop_
_geom_bond_atom_site_label_1
_geom_bond_atom_site_label_2
_ccdc_geom_bond_type
C130  N16   A    
C69   C116  A    
N17   Ni8   S    
C54   H104  S    
N14   N19   A    
N28   N32   A    
N15   N18   A    
C143  H156  S    
C46   C129  A    
C38   O19   S    
C54   O25   S    
C11   H3    S    
C97   N28   A    
C68   C75   S    
C135  H138  S    
C25   H34   S    
C44   H80   S    
C36   H59   S    
C23   H32   S    
C7    H207  S    
C124  N25   A    
C143  C144  S    
N18   Ni2   S    
C153  O35   S    
C18   O13   S    
N28   Ni5   S    
C154  O36   S    
C19   H20   S    
C139  H146  S    
C109  H113  S    
C107  H90   S    
N20   Ni4   S    
C12   H5    S    
C80   H140  S    
C65   C96   S    
C19   C20   S    
C136  N21   A    
C29   H43   S    
C128  N14   A    
C70   C74   D    
C24   C127  A    
C152  O34   S    
C15   H10   S    
C154  H183  S    
C76   O33   S    
C98   N29   A    
N26   Ni7   S    
C3    H194  S    
C137  O1    S    
N24   Ni5   S    
C58   O26   S    
C42   H75   S    
C59   C60   S    
C21   C22   S    
C37   H62   S    
C48   H87   S    
C50   H92   S    
C17   H17   S    
C45   C47   S    
C113  N24   A    
C123  O14   S    
C62   O28   S    
C51   C52   S    
C137  H139  S    
C140  C141  S    
C8    O9    S    
C4    H199  S    
C136  O26   S    
C13   C124  A    
C43   H76   S    
C99   H57   S    
C145  H161  S    
N19   Ni1   S    
C142  H152  S    
C140  O12   S    
C66   O27   S    
C11   O10   S    
C101  O36   S    
C79   C120  S    
C91   C118  A    
C96   H24   S    
C153  H181  S    
N31   Ni8   S    
C34   H56   S    
N5    N12   A    
C85   O10   S    
C123  N9    A    
C2    C71   S    
C110  C116  A    
C107  C120  A    
C102  N22   A    
C66   C77   S    
C80   C117  A    
C53   H102  S    
C84   C88   D    
C149  H169  S    
C144  C145  S    
C63   O29   S    
C43   H78   S    
C23   H30   S    
C98   C120  A    
C3    H196  S    
C81   C119  S    
C28   H41   S    
C92   O8    S    
C139  H144  S    
C144  H158  S    
C155  H187  S    
C108  N3    A    
C125  N10   A    
C77   C82   D    
C149  H168  S    
C40   H70   S    
C61   O27   S    
N4    N31   A    
N7    N27   A    
C150  O32   S    
C22   C23   S    
N21   Ni3   S    
C27   H40   S    
C134  O25   S    
C130  O20   S    
C75   C79   D    
C82   C122  S    
C102  H135  S    
C91   H151  S    
C137  H141  S    
C147  C148  S    
C62   H125  S    
C142  H153  S    
C6    H203  S    
N10   N24   A    
C126  N11   A    
C60   H118  S    
C38   H65   S    
C36   C37   S    
C68   O29   S    
C31   H49   S    
C156  H191  S    
C46   C132  A    
C3    O4    S    
C72   C146  S    
C141  H150  S    
C152  H177  S    
C14   H7    S    
C67   C72   D    
C5    H202  S    
C22   H28   S    
C156  O3    S    
C86   O11   S    
C131  N17   A    
C44   O21   S    
N17   N20   A    
C111  H132  S    
C39   H66   S    
C53   H100  S    
C138  H142  S    
C7    O8    S    
C19   H21   S    
C50   H94   S    
C90   O7    S    
C140  H148  S    
C5    O6    S    
C41   H72   S    
C84   C116  S    
C112  H133  S    
C15   H11   S    
C108  H101  S    
C35   C128  A    
C88   C104  S    
C6    H205  S    
C63   H128  S    
C20   H23   S    
N7    Ni8   S    
C21   H26   S    
C114  H134  S    
C67   O28   S    
C57   C130  A    
C56   H107  S    
N13   Ni4   S    
C39   C40   S    
N13   N26   A    
C25   C26   S    
C83   C121  S    
C10   H215  S    
C32   H51   S    
C97   C119  A    
C45   H83   S    
C29   C30   S    
C4    H198  S    
C33   H54   S    
C31   C32   S    
C46   C94   S    
C131  O21   S    
C103  O2    S    
C27   H38   S    
C51   H96   S    
C112  N7    A    
C77   O34   S    
C18   H18   S    
C150  H172  S    
C62   H123  S    
C88   O5    S    
C148  H165  S    
C106  N32   A    
C52   C53   S    
C54   C55   S    
C81   H173  S    
C61   H121  S    
C145  H159  S    
C41   H73   S    
C143  H155  S    
C47   H86   S    
C1    C115  A    
C152  H179  S    
C99   C121  A    
C147  H164  S    
C114  N8    A    
C25   O15   S    
C25   H33   S    
C36   H60   S    
C155  O2    S    
C23   H31   S    
C61   H120  S    
N14   Ni5   S    
C34   C36   S    
C14   H8    S    
C139  H145  S    
C114  C117  A    
C151  H174  S    
C12   H6    S    
C2    C125  A    
C97   H35   S    
C49   C50   S    
C8    H211  S    
C89   C105  S    
C134  N20   A    
C49   H89   S    
C7    H209  S    
C63   H126  S    
C20   H25   S    
C64   H129  S    
C96   C105  D    
C34   O18   S    
C106  C119  A    
C55   H106  S    
C41   C42   S    
N8    N23   A    
C37   H61   S    
C108  C121  A    
C48   H88   S    
C83   H195  S    
C35   C133  A    
C17   H16   S    
C30   H47   S    
C26   C27   S    
C154  H185  S    
C28   C29   S    
C99   N30   A    
C87   C117  S    
C24   C73   S    
C145  H160  S    
N16   Ni7   S    
C18   C19   S    
C31   O17   S    
C113  H136  S    
C100  C122  A    
C52   H98   S    
C156  H190  S    
C78   C83   D    
C150  H170  S    
C78   O35   S    
C16   C17   S    
C153  H180  S    
C65   C134  A    
C106  H79   S    
N22   Ni6   S    
C94   H2    S    
C87   C92   D    
C54   H103  S    
C39   H67   S    
C11   H4    S    
C110  H124  S    
N2    N29   A    
C125  O15   S    
C126  O16   S    
C73   O23   S    
C151  O33   S    
C132  N18   A    
C43   H77   S    
C133  N19   A    
C85   C89   D    
C7    H208  S    
C20   H22   S    
C58   C59   S    
C28   H42   S    
C59   H114  S    
C132  O22   S    
C129  N15   A    
C79   H162  S    
N2    Ni1   S    
C6    O7    S    
C66   C71   D    
C123  C146  A    
C85   C115  S    
C29   H44   S    
C86   C118  S    
C149  H167  S    
C49   H91   S    
N9    Ni1   S    
C13   C126  A    
C42   H74   S    
C64   H131  S    
N12   Ni2   S    
C48   C49   S    
C94   C103  D    
C110  N5    A    
C34   H58   S    
N6    Ni5   S    
C27   H39   S    
C42   C43   S    
C37   H63   S    
C93   C101  D    
C21   O14   S    
C44   C45   S    
C30   H45   S    
C26   H36   S    
C28   O16   S    
C135  N26   A    
C69   N12   A    
N25   Ni8   S    
C155  H189  S    
C6    H204  S    
N9    N22   A    
C32   C33   S    
C9    H212  S    
N16   N21   A    
C156  H192  S    
C111  N6    A    
C38   C39   S    
C22   H29   S    
C141  H149  S    
C152  H178  S    
C153  H182  S    
C71   O1    S    
C5    H201  S    
C138  C139  S    
C16   H14   S    
C13   C74   S    
C109  N4    A    
N8    Ni7   S    
N1    Ni1   S    
C53   H99   S    
C138  H143  S    
C4    H197  S    
C26   H37   S    
C51   O24   S    
C151  H175  S    
C127  N13   A    
C127  O17   S    
C8    H210  S    
C93   H206  S    
N10   Ni2   S    
C5    H200  S    
C52   H97   S    
C44   H81   S    
C69   H112  S    
C63   H127  S    
C3    H193  S    
C1    N1    A    
C86   C90   D    
N5    Ni6   S    
N3    N30   A    
C56   H108  S    
C41   O20   S    
N32   Ni2   S    
C82   H184  S    
C144  H157  S    
C155  H188  S    
C2    C113  A    
C109  C122  A    
C100  H68   S    
C104  O3    S    
C15   C16   S    
C89   O6    S    
C10   H216  S    
C74   O31   S    
N11   N25   A    
C40   H69   S    
C45   H82   S    
C92   C103  S    
N11   Ni3   S    
C33   H53   S    
N30   Ni7   S    
C75   O32   S    
C8    C9    S    
C57   C136  A    
C80   N23   A    
C51   H95   S    
C128  O18   S    
C9    H213  S    
C18   H19   S    
C67   C78   S    
C148  H166  S    
C65   C131  A    
C35   C93   S    
C60   H117  S    
C70   O30   S    
C38   H64   S    
C148  C149  S    
C31   H50   S    
C47   H85   S    
C4    O5    S    
C129  O19   S    
C68   C73   D    
C64   O30   S    
C147  H163  S    
C58   H111  S    
N1    N6    A    
C90   C101  S    
C58   H110  S    
C55   C56   S    
C48   O22   S    
C61   H119  S    
C59   H115  S    
C133  O24   S    
C60   H116  S    
C14   H9    S    
C56   H109  S    
C95   H13   S    
C50   H93   S    
C140  H147  S    
C24   C135  A    
N27   Ni4   S    
C12   C14   S    
C70   C76   S    
C105  O4    S    
C32   H52   S    
N29   Ni6   S    
C100  N31   A    
C124  H137  S    
C87   O13   S    
C95   C104  D    
C9    C10   S    
C64   H130  S    
N3    Ni4   S    
C21   H27   S    
N4    Ni3   S    
C84   O9    S    
C55   H105  S    
C98   H46   S    
N15   Ni6   S    
C76   C81   D    
C11   C12   S    
C17   H15   S    
C143  O23   S    
C30   H48   S    
C137  C138  S    
C151  H176  S    
C107  N2    A    
C10   H214  S    
C154  H186  S    
C40   H71   S    
C1    H1    S    
C141  C142  S    
C102  C146  A    
C112  C118  A    
C72   O12   S    
C15   O11   S    
C16   H12   S    
N23   Ni3   S    
C142  H154  S    
C91   N27   A    
C33   H55   S    
C47   H84   S    
C150  H171  S    
C57   C95   S    
C111  C115  A    
C62   H122  S    
C147  O31   S    
