data_mof_unit_40484.cif
_audit_creation_date              2012-12-11T18:11:27-0500
_audit_creation_method            fapswitch 2.2
_symmetry_space_group_name_H-M    P1
_symmetry_Int_Tables_number       1
_space_group_crystal_system       triclinic
_cell_length_a                    8.336488
_cell_length_b                    13.039348
_cell_length_c                    18.816618
_cell_angle_alpha                 100.410213
_cell_angle_beta                  90.734322
_cell_angle_gamma                 99.199672
_cell_volume                      1984.03237333

loop_
_atom_site_label
_atom_site_type_symbol
_atom_type_description
_atom_site_fract_x
_atom_site_fract_y
_atom_site_fract_z
_atom_type_partial_charge
Ba1   Ba    Ba6+2 0.852780 0.548340 0.465070 1.760987
Ba2   Ba    Ba6+2 0.337060 0.451750 0.534940 1.783669
C1    C     C_3   0.718166 0.855016 0.182348 -0.358479
C2    C     C_R   0.899184 0.401646 0.095212 -0.094042
C3    C     C_R   0.802970 0.368503 0.940427 -0.097351
C4    C     C_3   0.168427 0.759223 0.266386 0.419351
C5    C     C_R   0.950523 0.431564 0.970459 -0.060728
C6    C     C_R   0.723241 0.398993 0.883304 -0.041964
C7    C     C_R   0.817645 0.451248 0.833989 -0.094964
C8    C     C_R   0.982464 0.495845 0.854899 0.023627
C9    C     C_R   0.045031 0.491879 0.925592 0.049209
C10   C     C_R   0.756330 0.458421 0.764108 0.000614
C11   C     C_R   0.861174 0.504324 0.716707 -0.218330
C12   C     C_3   0.649833 0.787248 0.236533 0.321757
C13   C     C_R   0.024604 0.545249 0.734529 0.014936
C14   C     C_R   0.082091 0.548910 0.807072 -0.024362
C15   C     C_R   0.162708 0.489027 0.068196 0.059260
C16   C     C_3   0.174382 0.787888 0.191533 -0.333647
C17   C     C_R   0.217183 0.493350 0.141682 0.014580
C18   C     C_R   0.110628 0.450614 0.191737 -0.044567
C19   C     C_R   0.953218 0.404660 0.165847 0.010847
C20   C     C_R   0.232572 0.607912 0.834789 -0.005237
C21   C     C_R   0.290681 0.607327 0.904733 -0.106475
C22   C     C_R   0.203001 0.545390 0.950202 0.023028
C23   C     C_3   0.402423 0.244392 0.312211 0.182297
C24   C     C_R   0.266012 0.537559 0.019985 0.046690
C25   C     C_R   0.429780 0.575068 0.043154 -0.076933
C26   C     C_R   0.378352 0.539955 0.164689 -0.041173
C27   C     C_R   0.485309 0.573290 0.113082 -0.091290
C28   C     C_3   0.293596 0.794983 0.649820 0.264606
C29   C     C_R   0.426352 0.553737 0.238757 -0.022105
C30   C     C_R   0.314772 0.520074 0.288549 -0.262568
C31   C     C_R   0.162329 0.460446 0.266330 -0.019414
C32   C     C_R   0.757359 0.179678 0.528747 -0.246762
C33   C     C_R   0.434663 0.805775 0.469137 -0.233953
C34   C     C_3   0.309386 0.171075 0.246031 -0.279193
C35   C     C_R   0.410229 0.973714 0.437321 -0.079179
C36   C     C_R   0.344540 0.869360 0.438569 -0.048896
C37   C     C_R   0.579408 0.848489 0.509616 0.060608
C38   C     C_R   0.639620 0.960400 0.516842 -0.021739
C39   C     C_R   0.553585 0.024522 0.479585 -0.064343
C40   C     C_3   0.382301 0.897161 0.695786 -0.419728
C41   C     C_R   0.613858 0.136133 0.486949 -0.088624
C42   C     C_R   0.848966 0.116827 0.560001 -0.000153
C43   C     C_R   0.787050 0.008856 0.556426 -0.114601
C44   C     C_3   0.867230 0.203219 0.291919 0.276632
C45   C     C_3   0.073261 0.241361 0.734045 0.307450
C46   C     C_3   0.845420 0.092913 0.310780 -0.209562
C47   C     C_3   0.761568 0.721043 0.681365 0.156687
C48   C     C_3   0.814607 0.767294 0.761127 -0.204555
C49   C     C_2   0.644851 0.853279 0.309550 0.616856
C50   C     C_2   0.844077 0.188339 0.211145 0.419975
C51   C     C_2   0.897275 0.091291 0.386551 0.510490
C52   C     C_2   0.882968 0.883789 0.771602 0.542986
C53   C     C_2   0.677277 0.744726 0.810262 0.546928
C54   C     C_2   0.502871 0.336686 0.290323 0.389385
C55   C     C_2   0.417230 0.113624 0.195587 0.490849
C56   C     C_3   0.095878 0.218039 0.809527 -0.316312
C57   C     C_2   0.550327 0.410486 0.892384 0.578977
C58   C     C_2   0.752331 0.260960 0.957764 0.563353
C59   C     C_2   0.337445 0.016429 0.380416 0.554946
C60   C     C_2   0.825655 0.290766 0.530870 0.564533
C61   C     C_2   0.200698 0.820104 0.589778 0.406775
C62   C     C_3   0.571304 0.194949 0.706558 0.268366
C63   C     C_3   0.636829 0.129595 0.755792 -0.311325
C64   C     C_R   0.003993 0.438208 0.043868 0.005804
H1    H     H_    0.451445 0.879606 0.741453 0.153507
H2    H     H_    0.523712 0.752118 0.216827 -0.097175
H3    H     H_    0.647219 0.919797 0.180850 0.083987
H4    H     H_    0.217258 0.111326 0.264351 0.140008
H5    H     H_    0.710693 0.805449 0.127424 0.126647
H6    H     H_    0.237510 0.870500 0.194916 0.110128
H7    H     H_    0.160423 0.313307 0.729280 0.105110
H8    H     H_    0.947274 0.256603 0.726972 -0.060545
H9    H     H_    0.221205 0.202599 0.817998 0.193642
H10   H     H_    0.075580 0.286493 0.850650 0.075432
H11   H     H_    0.007976 0.147583 0.816644 0.147666
H12   H     H_    0.468870 0.939525 0.662309 0.054901
H13   H     H_    0.675984 0.229533 0.677638 -0.007702
H14   H     H_    0.484009 0.142114 0.665498 0.064542
H15   H     H_    0.726375 0.181525 0.796006 0.134306
H16   H     H_    0.698503 0.068542 0.723417 0.085533
H17   H     H_    0.536305 0.090885 0.784815 0.178675
H18   H     H_    0.812922 0.511284 0.664820 0.097569
H19   H     H_    0.865208 0.374839 0.200520 0.089306
H20   H     H_    0.306361 0.657138 0.803246 0.094099
H21   H     H_    0.612877 0.601256 0.126326 0.098994
H22   H     H_    0.352173 0.533443 0.345169 0.095729
H23   H     H_    0.294761 0.949396 0.718084 0.125396
H24   H     H_    0.771184 0.373380 0.082447 0.076770
H25   H     H_    0.405290 0.657275 0.922402 0.111432
H26   H     H_    0.295328 0.759683 0.285486 -0.192867
H27   H     H_    0.519151 0.604212 0.007484 0.078593
H28   H     H_    0.858438 0.962907 0.582472 0.091094
H29   H     H_    0.386533 0.722635 0.464668 0.076663
H30   H     H_    0.241423 0.734049 0.155358 0.070629
H31   H     H_    0.049370 0.779652 0.167955 0.131352
H32   H     H_    0.563672 0.909262 0.317333 -0.284309
H33   H     H_    0.733427 0.204256 0.187789 -0.014271
H34   H     H_    0.715217 0.058635 0.301917 -0.018025
H35   H     H_    0.773678 0.244816 0.318944 0.022652
H36   H     H_    0.856660 0.022360 0.409585 0.078716
H37   H     H_    0.983854 0.910160 0.739818 0.005138
H38   H     H_    0.565561 0.775553 0.805094 0.002804
H39   H     H_    0.310492 0.273983 0.348783 0.120550
H40   H     H_    0.529982 0.338279 0.234216 -0.017375
H41   H     H_    0.487579 0.060089 0.214489 -0.007462
H42   H     H_    0.243120 0.218734 0.216135 0.131278
H43   H     H_    0.097224 0.678489 0.262098 0.052212
H44   H     H_    0.507772 0.476399 0.875464 0.010483
H45   H     H_    0.918013 0.042034 0.275387 0.106882
H46   H     H_    0.829101 0.230620 0.993225 0.027188
H47   H     H_    0.388672 0.011352 0.327864 -0.016750
H48   H     H_    0.880452 0.316873 0.483908 0.048071
H49   H     H_    0.384460 0.745788 0.628162 0.046043
H50   H     H_    0.181161 0.899961 0.587724 -0.011472
H51   H     H_    0.871191 0.703040 0.652238 0.059720
H52   H     H_    0.672471 0.646942 0.677670 0.023328
H53   H     H_    0.847541 0.888957 0.196410 0.134184
H54   H     H_    0.915099 0.728070 0.776288 0.032138
O1    O     O_2   0.873090 0.425890 0.325140 -0.454295
O2    O     O_2   0.185955 0.122655 0.549703 -0.431917
O3    O     O_3   0.103607 0.154580 0.683020 -0.615522
O4    O     O_3   0.122420 0.434370 0.414380 -0.464460
O5    O     O_3   0.578370 0.633800 0.536380 -0.479562
O6    O     O_2   0.341510 0.231850 0.465510 -0.384647
O7    O     O_3   0.506124 0.190680 0.345649 -0.702588
O8    O     O_2   0.415170 0.457074 0.753060 -0.508465
O9    O     O_3   0.488801 0.269751 0.748149 -0.588262
O10   O     O_3   0.659500 0.627100 0.368810 -0.398176
O11   O     O_2   0.736665 0.518436 0.246540 -0.469151
O12   O     O_3   0.689716 0.793387 0.650435 -0.672026
O13   O     O_3   0.023724 0.256427 0.315822 -0.621673
O14   O     O_3   0.748682 0.710773 0.240057 -0.584872
O15   O     O_2   0.848200 0.768190 0.534530 -0.415633
O16   O     O_3   0.081160 0.685950 0.404810 -0.439465
O17   O     O_2   0.010017 0.874665 0.447688 -0.399646
O18   O     O_2   0.728235 0.842390 0.360435 -0.564249
O19   O     O_2   0.945555 0.154790 0.171098 -0.564713
O20   O     O_2   0.991935 0.163910 0.422030 -0.553932
O21   O     O_2   0.827516 0.949114 0.815090 -0.583669
O22   O     O_2   0.690939 0.691448 0.856405 -0.619841
O23   O     O_3   0.093190 0.832280 0.313096 -0.571312
O24   O     O_2   0.559415 0.410809 0.337321 -0.523500
O25   O     O_2   0.424860 0.125697 0.132809 -0.530387
O26   O     O_2   0.456943 0.351991 0.922587 -0.540849
O27   O     O_2   0.629662 0.202634 0.930165 -0.504710
O28   O     O_2   0.208780 0.047690 0.389054 -0.535627
O29   O     O_2   0.819341 0.355061 0.585419 -0.624418
O30   O     O_2   0.141134 0.747370 0.542678 -0.539504
O31   O     O_2   0.316610 0.574140 0.674900 -0.482429
O32   O     O_3   0.067290 0.565720 0.585630 -0.429568
O33   O     O_3   0.530210 0.372990 0.631200 -0.430325
O34   O     O_3   0.182479 0.743619 0.691818 -0.669176
O35   O     O_3   0.611340 0.366290 0.463630 -0.429393
O36   O     O_3   0.108550 0.314140 0.595200 -0.460363
P1    P     P_3+3 0.041040 0.394770 0.336330 0.993870
P2    P     P_3+3 0.672880 0.754030 0.556100 0.991084
P3    P     P_3+3 0.133278 0.817343 0.401862 1.107956
P4    P     P_3+3 0.148670 0.605320 0.663680 1.004052
P5    P     P_3+3 0.060699 0.176755 0.596340 1.025469
P6    P     P_3+3 0.638017 0.605834 0.273935 1.035118
P7    P     P_3+3 0.520603 0.230582 0.440361 0.984532
P8    P     P_3+3 0.549973 0.393728 0.725015 0.976595

loop_
_geom_bond_atom_site_label_1
_geom_bond_atom_site_label_2
_ccdc_geom_bond_type
O32   P4    S    
Ba2   O35   S    
C60   O29   D    
C55   O25   D    
C34   H42   S    
C51   O20   D    
C16   H30   S    
C33   C37   A    
C17   C18   A    
C23   C54   S    
C32   C60   S    
C57   H44   S    
C23   H39   S    
C5    C9    A    
C11   H18   S    
C15   C64   A    
C48   C52   S    
O2    P5    D    
C48   H54   S    
C15   C24   A    
C26   C27   A    
C1    H3    S    
C59   O28   D    
C22   C24   A    
C36   P3    S    
C60   H48   S    
C6    C57   S    
O3    P5    S    
O31   P4    D    
C63   H17   S    
C25   C27   A    
C13   C14   A    
C30   H22   S    
C44   C50   S    
C9    C22   A    
O8    P8    D    
C50   O19   D    
Ba1   O32   S    
Ba1   Ba2   S    
Ba1   O35   S    
C56   H11   S    
C62   H14   S    
O16   P3    S    
C45   O3    S    
C47   H51   S    
C29   C30   A    
C31   P1    S    
C6    C7    A    
C14   C20   A    
C21   C22   A    
C16   H31   S    
Ba1   O16   S    
C7    C8    A    
O10   P6    S    
C49   H32   S    
C29   P6    S    
O15   P2    D    
O1    P1    D    
C28   C61   S    
C16   H6    S    
C39   C41   A    
C38   C43   A    
C4    C16   S    
C43   H28   S    
C47   O12   S    
C34   H4    S    
C56   H9    S    
C2    H24   S    
C28   H49   S    
Ba2   O32   S    
C46   C51   S    
C46   H34   S    
C44   H35   S    
C44   C46   S    
O17   P3    D    
O33   P8    S    
C56   H10   S    
C52   H37   S    
C33   C36   A    
C32   C42   A    
C45   H7    S    
C34   C55   S    
C37   C38   A    
C3    C5    A    
O5    P2    S    
C12   O14   S    
O11   P6    D    
O35   P7    S    
C53   H38   S    
C19   H19   S    
O12   P2    S    
O14   P6    S    
O9    P8    S    
O7    P7    S    
C62   H13   S    
C1    H5    S    
C57   O26   D    
C61   O30   D    
O34   P4    S    
C35   C36   A    
C58   H46   S    
C10   P8    S    
C63   H15   S    
C47   H52   S    
C51   H36   S    
O4    P1    S    
C46   H45   S    
C24   C25   A    
C49   O18   D    
C18   C19   A    
C17   C26   A    
C54   H40   S    
C1    C12   S    
C1    H53   S    
C18   C31   A    
Ba2   O6    S    
C38   C39   A    
C58   O27   D    
O36   P5    S    
Ba1   O10   S    
Ba2   O33   S    
C33   H29   S    
C11   C13   A    
C37   P2    S    
C59   H47   S    
C40   H1    S    
C4    H43   S    
C21   H25   S    
C25   H27   S    
C42   P5    S    
C61   H50   S    
O6    P7    D    
C42   C43   A    
C40   H12   S    
Ba2   O31   S    
Ba1   P2    S    
Ba2   O36   S    
C3    C58   S    
C55   H41   S    
C26   C29   A    
C32   C41   A    
C45   H8    S    
Ba1   O5    S    
C3    C6    A    
C35   C59   S    
O23   P3    S    
Ba2   O4    S    
C62   O9    S    
C50   H33   S    
C48   C53   S    
C40   H23   S    
C30   C31   A    
Ba1   P1    S    
C23   O7    S    
Ba1   O4    S    
C13   P4    S    
C8    C14   A    
C62   C63   S    
C44   O13   S    
C2    C64   A    
C2    C19   A    
C63   H16   S    
C4    H26   S    
C15   C17   A    
O13   P1    S    
C20   H20   S    
C35   C39   A    
C7    C10   A    
Ba1   O1    S    
C27   H21   S    
C8    C9    A    
C23   C34   S    
C54   O24   D    
Ba2   O5    S    
C28   O34   S    
C52   O21   D    
C10   C11   A    
C12   C49   S    
Ba2   P4    S    
C47   C48   S    
C53   O22   D    
C12   H2    S    
C20   C21   A    
C28   C40   S    
C4    O23   S    
Ba1   O15   S    
C41   P7    S    
C45   C56   S    
C5    C64   A    
