data_mof_unit_16831.cif
_audit_creation_date              2012-12-10T16:57:41-0500
_audit_creation_method            fapswitch 2.2
_symmetry_space_group_name_H-M    P1
_symmetry_Int_Tables_number       1
_space_group_crystal_system       triclinic
_cell_length_a                    7.736001
_cell_length_b                    8.580047
_cell_length_c                    18.950663
_cell_angle_alpha                 90.749575
_cell_angle_beta                  86.096085
_cell_angle_gamma                 93.573637
_cell_volume                      1252.4467972

loop_
_atom_site_label
_atom_site_type_symbol
_atom_type_description
_atom_site_fract_x
_atom_site_fract_y
_atom_site_fract_z
_atom_type_partial_charge
C1    C     C_R   0.545863 0.794868 0.498189 0.975113
C2    C     C_R   0.666722 0.626766 0.183941 -0.172567
C3    C     C_R   0.541078 0.612616 0.852426 0.049205
C4    C     C_R   0.517577 0.617706 0.146404 0.061181
C5    C     C_R   0.656265 0.509438 0.820054 -0.179345
C6    C     C_R   0.358106 0.563878 0.179615 -0.202093
C7    C     C_R   0.642222 0.461954 0.749748 0.158996
C8    C     C_R   0.345558 0.517064 0.250359 0.166436
C9    C     C_R   0.512558 0.524545 0.711028 -0.073528
C10   C     C_R   0.498054 0.529913 0.288599 -0.051145
C11   C     C_R   0.531383 0.646541 0.070573 0.296311
C12   C     C_R   0.454133 0.205140 0.501795 0.963756
C13   C     C_R   0.543749 0.644174 0.928048 0.292592
C14   C     C_3   0.760527 0.338864 0.720425 -0.432208
C15   C     C_3   0.945170 0.408511 0.703984 -0.777876
C16   C     C_3   0.169800 0.451149 0.281007 -0.409316
C17   C     C_3   0.171360 0.277090 0.296886 -0.840887
C18   C     C_2   0.570133 0.958213 0.497167 -0.387133
C19   C     C_2   0.429853 0.041805 0.502794 -0.391028
C20   C     C_R   0.502626 0.499702 0.635017 0.850065
C21   C     C_R   0.497533 0.502166 0.364832 0.862006
C22   C     C_R   0.397397 0.627150 0.744270 -0.236587
C23   C     C_R   0.656962 0.583939 0.254201 -0.237817
C24   C     C_R   0.411057 0.670291 0.814352 -0.172336
H1    H     H_    0.298215 0.677288 0.715537 0.166107
H2    H     H_    0.944823 0.509012 0.667813 0.259479
H3    H     H_    0.003901 0.448900 0.753416 0.245194
H4    H     H_    0.763464 0.244608 0.759962 0.199933
H5    H     H_    0.711634 0.280378 0.672555 0.217571
H6    H     H_    0.208312 0.211397 0.247827 0.261750
H7    H     H_    0.263683 0.254966 0.337346 0.253138
H8    H     H_    0.039606 0.232790 0.317166 0.243821
H9    H     H_    0.125387 0.517775 0.328602 0.224390
H10   H     H_    0.068493 0.464225 0.242963 0.196193
H11   H     H_    0.013365 0.379557 0.448726 0.196224
H12   H     H_    0.774937 0.596297 0.281993 0.163425
H13   H     H_    0.986765 0.621361 0.550797 0.186097
H14   H     H_    0.702648 0.009173 0.491817 0.179124
H15   H     H_    0.297336 0.990854 0.508140 0.179861
H16   H     H_    0.319834 0.748886 0.838781 0.156594
H17   H     H_    0.791402 0.666870 0.158925 0.152799
H18   H     H_    0.752899 0.459970 0.850439 0.155179
H19   H     H_    0.243979 0.552550 0.149364 0.147549
H20   H     H_    0.026304 0.318679 0.678312 0.248981
N1    N     N_R   0.688591 0.622881 0.962225 -0.176087
N2    N     N_R   0.388266 0.674140 0.036375 -0.176078
N3    N     N_R   0.682596 0.624497 0.032362 -0.171794
N4    N     N_R   0.394493 0.673381 0.966229 -0.170506
N5    N     N_2   0.950330 0.457950 0.481240 -0.177389
N6    N     N_2   0.049670 0.542050 0.518760 -0.178741
O1    O     O_R   0.389250 0.738570 0.504600 -0.611299
O2    O     O_R   0.610750 0.261430 0.495400 -0.610173
O3    O     O_R   0.678400 0.711620 0.492580 -0.629717
O4    O     O_R   0.321600 0.288380 0.507420 -0.628687
O5    O     O_R   0.355380 0.513500 0.607880 -0.618637
O6    O     O_R   0.644620 0.486500 0.392120 -0.619556
O7    O     O_R   0.644530 0.486550 0.595850 -0.614164
O8    O     O_R   0.355470 0.513450 0.404150 -0.620526
Zn1   Zn    Zn3+2 0.306930 0.517990 0.508030 0.926457
Zn2   Zn    Zn3+2 0.693070 0.482010 0.491970 0.931699

loop_
_geom_bond_atom_site_label_1
_geom_bond_atom_site_label_2
_ccdc_geom_bond_type
H11   N5    S    
C13   N4    A    
C2    C4    A    
C5    H18   S    
H13   N6    S    
O5    Zn1   S    
C10   C23   A    
C21   O6    A    
C9    C20   S    
C15   H3    S    
C3    C13   S    
C6    H19   S    
C14   H4    S    
C3    C5    A    
C11   N3    A    
C1    C18   S    
C21   O8    A    
C8    C16   S    
C16   H9    S    
C4    C11   S    
C13   N1    A    
C17   H6    S    
C1    O1    A    
C3    C24   A    
C16   C17   S    
N5    Zn2   S    
C19   H15   S    
C20   O5    A    
N6    Zn1   S    
C12   C19   S    
C4    C6    A    
C12   O2    A    
O3    Zn2   S    
C15   H20   S    
C23   H12   S    
C22   C24   A    
O4    Zn1   S    
N1    N3    A    
C10   C21   S    
C18   H14   S    
C17   H7    S    
N2    N4    A    
C9    C22   A    
O1    Zn1   S    
C2    H17   S    
C7    C9    A    
O7    Zn2   S    
C18   C19   D    
C8    C10   A    
N5    N6    D    
C2    C23   A    
C5    C7    A    
C17   H8    S    
C1    O3    A    
C14   C15   S    
C24   H16   S    
C11   N2    A    
C6    C8    A    
O2    Zn2   S    
C16   H10   S    
O8    Zn1   S    
C20   O7    A    
C7    C14   S    
C12   O4    A    
O6    Zn2   S    
C14   H5    S    
C15   H2    S    
C22   H1    S    
