data_mof_unit_30041.cif
_audit_creation_date              2012-10-26T20:15:22-0400
_audit_creation_method            fapswitch 2.2
_symmetry_space_group_name_H-M    P1
_symmetry_Int_Tables_number       1
_space_group_crystal_system       triclinic
_cell_length_a                    11.134606
_cell_length_b                    16.007151
_cell_length_c                    14.779931
_cell_angle_alpha                 89.665747
_cell_angle_beta                  103.231117
_cell_angle_gamma                 92.249726
_cell_volume                      2562.35864591

loop_
_atom_site_label
_atom_site_type_symbol
_atom_type_description
_atom_site_fract_x
_atom_site_fract_y
_atom_site_fract_z
_atom_type_partial_charge
C1    C     C_R   0.502849 0.340971 0.501078 0.534614
C2    C     C_1   0.500847 0.500707 0.197426 0.117181
C3    C     C_R   0.261957 0.495159 0.462270 0.532590
C4    C     C_R   0.738019 0.502179 0.538246 0.558025
C5    C     C_2   0.126078 0.488425 0.439634 -0.056940
C6    C     C_2   0.873578 0.503009 0.564327 0.015420
C7    C     C_2   0.066194 0.485251 0.510403 0.183717
C8    C     C_2   0.937649 0.514072 0.497586 0.217279
C9    C     C_R   0.488145 0.954562 0.585749 -0.018294
C10   C     C_R   0.515083 0.044191 0.425224 -0.021873
C11   C     C_R   0.482937 0.912343 0.501306 -0.005267
C12   C     C_R   0.496796 0.658948 0.499560 0.546789
C13   C     C_R   0.514253 0.087217 0.508452 -0.005094
C14   C     C_R   0.488766 0.957201 0.419640 -0.022018
C15   C     C_R   0.501851 0.042922 0.589069 -0.017946
C16   C     C_1   0.482693 0.822283 0.500568 -0.060042
C17   C     C_1   0.515079 0.177343 0.508522 -0.061806
C18   C     C_1   0.510343 0.252215 0.505032 -0.041374
C19   C     C_1   0.488255 0.747526 0.499478 -0.037181
C20   C     C_R   0.934132 0.506775 0.665773 0.064463
C21   C     C_R   0.017905 0.573478 0.700750 -0.033879
C22   C     C_R   0.064694 0.583067 0.796418 -0.094797
C23   C     C_R   0.574583 0.558786 0.962236 -0.028628
C24   C     C_R   0.026025 0.527646 0.858261 -0.101637
C25   C     C_R   0.942112 0.461732 0.824568 -0.113752
C26   C     C_R   0.897886 0.450348 0.728820 -0.060177
C27   C     C_R   0.058704 0.478976 0.340124 0.015209
C28   C     C_R   0.084302 0.533571 0.271369 -0.089897
C29   C     C_R   0.023290 0.521892 0.178232 -0.130244
C30   C     C_R   0.935677 0.456208 0.152952 -0.126531
C31   C     C_R   0.907939 0.402607 0.220812 -0.114563
C32   C     C_R   0.969531 0.413478 0.313839 -0.059294
C33   C     C_R   0.511167 0.088066 0.678606 0.034244
C34   C     C_R   0.431340 0.437320 0.036338 -0.028771
C35   C     C_R   0.621443 0.132044 0.720581 -0.099210
C36   C     C_R   0.637592 0.165033 0.810130 -0.125820
C37   C     C_R   0.544669 0.153479 0.858986 -0.108907
C38   C     C_R   0.433961 0.110998 0.817379 -0.106736
C39   C     C_R   0.416167 0.079726 0.726917 -0.093359
C40   C     C_R   0.448752 0.916113 0.326481 0.036057
C41   C     C_R   0.500106 0.841797 0.305549 -0.087751
C42   C     C_R   0.444689 0.796283 0.225595 -0.102225
C43   C     C_R   0.345253 0.828157 0.161198 -0.114338
C44   C     C_R   0.298598 0.904746 0.178178 -0.117663
C45   C     C_R   0.501469 0.498378 0.902268 -0.038253
C46   C     C_R   0.348780 0.947993 0.260948 -0.087672
C47   C     C_R   0.471674 0.906602 0.669215 0.036598
C48   C     C_R   0.562786 0.910537 0.752678 -0.090843
C49   C     C_R   0.539554 0.874001 0.833488 -0.110836
C50   C     C_R   0.426892 0.831346 0.830983 -0.112955
C51   C     C_R   0.337548 0.824669 0.747668 -0.118525
C52   C     C_R   0.359371 0.862480 0.667178 -0.095543
C53   C     C_R   0.561934 0.086834 0.349099 0.036174
C54   C     C_R   0.665030 0.055294 0.322407 -0.086458
C55   C     C_R   0.719230 0.098465 0.258525 -0.116748
C56   C     C_R   0.500494 0.500471 0.096524 -0.041196
C57   C     C_R   0.673209 0.174576 0.222419 -0.115294
C58   C     C_R   0.570949 0.206331 0.248278 -0.103442
C59   C     C_R   0.512273 0.161177 0.308174 -0.087310
C60   C     C_R   0.629822 0.636325 0.113944 0.014437
C61   C     C_R   0.724582 0.626749 0.193944 -0.076563
C62   C     C_R   0.790056 0.697223 0.238543 -0.097381
C63   C     C_R   0.762323 0.777213 0.203786 -0.116941
C64   C     C_R   0.668710 0.787318 0.124294 -0.113146
C65   C     C_R   0.601912 0.717451 0.080207 -0.097926
C66   C     C_R   0.346739 0.377048 0.873168 0.029243
C67   C     C_R   0.428813 0.437869 0.938762 -0.025869
C68   C     C_R   0.393391 0.330632 0.808976 -0.077406
C69   C     C_R   0.314182 0.281180 0.741464 -0.097063
C70   C     C_R   0.189180 0.271991 0.741553 -0.108275
C71   C     C_R   0.142723 0.313957 0.807821 -0.082949
C72   C     C_R   0.220282 0.367503 0.872017 -0.056401
C73   C     C_R   0.662341 0.615966 0.925568 0.028382
C74   C     C_R   0.621204 0.666237 0.846917 -0.080638
C75   C     C_R   0.705398 0.715434 0.810582 -0.096308
C76   C     C_R   0.830386 0.718628 0.855060 -0.104690
C77   C     C_R   0.871673 0.671555 0.935139 -0.104153
C78   C     C_R   0.569002 0.562745 0.057875 -0.026000
C79   C     C_R   0.788655 0.619440 0.969238 -0.080141
C80   C     C_R   0.362347 0.369354 0.075143 0.018873
C81   C     C_R   0.272783 0.388343 0.124557 -0.090171
C82   C     C_R   0.206343 0.324216 0.158398 -0.110011
C83   C     C_R   0.225904 0.240744 0.141114 -0.119674
C84   C     C_R   0.312588 0.221145 0.090413 -0.118082
C85   C     C_R   0.381447 0.284968 0.058393 -0.100491
C86   C     C_1   0.500459 0.499293 0.802286 0.130479
Cu1   Cu    Cu3+1 0.500030 0.500000 0.589230 0.986090
Cu2   Cu    Cu3+1 0.499970 0.500000 0.410770 0.997649
H1    H     H_    0.945038 0.593010 0.401089 0.301532
H2    H     H_    0.889468 0.446534 0.080784 0.101063
H3    H     H_    0.839742 0.351992 0.201185 0.100758
H4    H     H_    0.948424 0.370426 0.365362 0.109660
H5    H     H_    0.696284 0.138515 0.685087 0.104729
H6    H     H_    0.723100 0.198256 0.842318 0.097314
H7    H     H_    0.558097 0.178025 0.928787 0.098669
H8    H     H_    0.361553 0.102868 0.854967 0.110339
H9    H     H_    0.330115 0.046616 0.695712 0.107258
H10   H     H_    0.579986 0.817236 0.352637 0.116132
H11   H     H_    0.478418 0.735808 0.214177 0.139487
H12   H     H_    0.169107 0.403567 0.585086 0.333012
H13   H     H_    0.303995 0.793287 0.098524 0.097150
H14   H     H_    0.221242 0.929450 0.128482 0.098647
H15   H     H_    0.307361 0.005160 0.275120 0.099516
H16   H     H_    0.650186 0.943803 0.755663 0.107634
H17   H     H_    0.609064 0.878475 0.897989 0.111018
H18   H     H_    0.408791 0.803205 0.893444 0.094119
H19   H     H_    0.250516 0.791341 0.745805 0.098057
H20   H     H_    0.287587 0.859254 0.603820 0.104407
H21   H     H_    0.705293 0.998168 0.352738 0.100777
H22   H     H_    0.798777 0.073887 0.238777 0.097622
H23   H     H_    0.045357 0.618868 0.653954 0.102082
H24   H     H_    0.717102 0.209134 0.174828 0.093900
H25   H     H_    0.537825 0.266483 0.222685 0.137790
H26   H     H_    0.430491 0.185625 0.324543 0.115978
H27   H     H_    0.750285 0.565055 0.219912 0.161277
H28   H     H_    0.864096 0.690394 0.299116 0.119369
H29   H     H_    0.813696 0.831357 0.238329 0.101214
H30   H     H_    0.647044 0.849278 0.097251 0.111049
H31   H     H_    0.529447 0.726310 0.018688 0.099773
H32   H     H_    0.490926 0.333961 0.809782 0.114447
H33   H     H_    0.350247 0.249061 0.689773 0.129667
H34   H     H_    0.129218 0.634397 0.822689 0.089708
H35   H     H_    0.128461 0.232149 0.690511 0.099155
H36   H     H_    0.046130 0.305641 0.808635 0.098975
H37   H     H_    0.181795 0.401269 0.921080 0.112863
H38   H     H_    0.524158 0.666703 0.813012 0.123230
H39   H     H_    0.673504 0.751624 0.748254 0.126157
H40   H     H_    0.895195 0.757603 0.827548 0.097417
H41   H     H_    0.968450 0.674440 0.970042 0.092141
H42   H     H_    0.822619 0.582096 0.030002 0.107363
H43   H     H_    0.253646 0.452693 0.136189 0.112877
H44   H     H_    0.139141 0.339169 0.197623 0.130642
H45   H     H_    0.061294 0.535608 0.932402 0.089852
H46   H     H_    0.173915 0.191249 0.167025 0.098574
H47   H     H_    0.327947 0.156443 0.077183 0.110944
H48   H     H_    0.449914 0.268641 0.020704 0.101736
H49   H     H_    0.912319 0.418870 0.872718 0.089683
H50   H     H_    0.833528 0.398525 0.703968 0.105400
H51   H     H_    0.150886 0.585331 0.289759 0.119092
H52   H     H_    0.044329 0.563629 0.125596 0.093332
N1    N     N_1   0.500040 0.499980 0.276720 -0.192066
N2    N     N_1   0.499960 0.500020 0.723280 -0.188991
O1    O     O_R   0.500060 0.380310 0.575330 -0.504263
O2    O     O_3   0.121934 0.452410 0.595970 -0.695048
O3    O     O_R   0.499940 0.619690 0.424670 -0.491965
O4    O     O_R   0.500000 0.380310 0.424640 -0.493518
O5    O     O_R   0.500000 0.619690 0.575360 -0.491142
O6    O     O_R   0.320710 0.500010 0.547660 -0.457729
O7    O     O_R   0.679290 0.499990 0.452340 -0.426045
O8    O     O_R   0.320650 0.500010 0.396960 -0.508044
O9    O     O_R   0.679350 0.499990 0.603040 -0.517835
O10   O     O_3   0.881523 0.554411 0.417090 -0.710093

loop_
_geom_bond_atom_site_label_1
_geom_bond_atom_site_label_2
_ccdc_geom_bond_type
C24   H45   S    
C66   C68   A    
Cu1   Cu2   S    
C84   H47   S    
C34   C56   A    
C23   C45   A    
C73   C74   A    
C35   C36   A    
C30   H2    S    
C81   C82   A    
C53   C59   A    
C56   C78   A    
C7    C8    S    
C32   H4    S    
C53   C54   A    
C40   C46   A    
C4    O7    A    
C60   C78   S    
C1    C18   S    
C33   C39   A    
Cu1   O5    S    
C12   O5    A    
C36   C37   A    
C8    O10   S    
C37   C38   A    
C59   H26   S    
C38   C39   A    
C63   H29   S    
C11   C14   A    
C39   H9    S    
C57   H24   S    
C48   H16   S    
C64   H30   S    
C37   H7    S    
C41   C42   A    
C4    O9    A    
C10   C53   S    
C83   H46   S    
C34   C80   S    
C5    C27   S    
C70   H35   S    
H1    O10   S    
C66   C72   A    
C83   C84   A    
C68   C69   A    
C61   H27   S    
C58   H25   S    
Cu2   O3    S    
C70   C71   A    
C29   C30   A    
C77   C79   A    
C66   C67   S    
C3    O6    A    
C23   C78   A    
Cu1   O9    S    
C21   C22   A    
C1    O4    A    
C61   C62   A    
C28   H51   S    
C23   C73   S    
C7    O2    S    
C21   H23   S    
C44   C46   A    
C22   H34   S    
C35   H5    S    
C73   C79   A    
Cu1   O6    S    
C51   C52   A    
C71   H36   S    
C84   C85   A    
C76   C77   A    
C4    C6    S    
H12   O2    S    
C5    C7    D    
C44   H14   S    
C49   H17   S    
C50   C51   A    
C25   C26   A    
C79   H42   S    
C82   C83   A    
Cu2   O7    S    
C54   H21   S    
C60   C61   A    
C12   O3    A    
C25   H49   S    
C75   C76   A    
C43   H13   S    
C62   H28   S    
C80   C85   A    
C1    O1    A    
C11   C16   S    
C47   C48   A    
C69   H33   S    
C30   C31   A    
C20   C21   A    
C62   C63   A    
C17   C18   T    
C65   H31   S    
C77   H41   S    
C24   C25   A    
C9    C11   A    
C47   C52   A    
C48   C49   A    
C60   C65   A    
C9    C47   S    
C31   H3    S    
C55   C57   A    
C43   C44   A    
C10   C14   A    
C76   H40   S    
C22   C24   A    
C42   C43   A    
C82   H44   S    
C3    C5    S    
Cu2   N1    S    
C86   N2    T    
C29   H52   S    
C54   C55   A    
C28   C29   A    
C3    O8    A    
C27   C32   A    
Cu2   O8    S    
C31   C32   A    
C80   C81   A    
C26   H50   S    
C10   C13   A    
C34   C67   A    
C6    C8    D    
C45   C67   A    
C6    C20   S    
C46   H15   S    
C13   C17   S    
C72   H37   S    
C64   C65   A    
C13   C15   A    
C45   C86   S    
C58   C59   A    
C71   C72   A    
C55   H22   S    
C2    C56   S    
C42   H11   S    
C68   H32   S    
C57   C58   A    
C74   H38   S    
C20   C26   A    
C16   C19   T    
C12   C19   S    
C33   C35   A    
C75   H39   S    
Cu1   N2    S    
C9    C15   A    
C69   C70   A    
C81   H43   S    
C85   H48   S    
C14   C40   S    
C63   C64   A    
C36   H6    S    
C74   C75   A    
C52   H20   S    
C51   H19   S    
C49   C50   A    
C38   H8    S    
C27   C28   A    
C50   H18   S    
C2    N1    T    
Cu2   O4    S    
C41   H10   S    
C40   C41   A    
Cu1   O1    S    
C15   C33   S    
