data_mof_unit_29461.cif
_audit_creation_date              2012-10-26T20:00:01-0400
_audit_creation_method            fapswitch 2.2
_symmetry_space_group_name_H-M    P1
_symmetry_Int_Tables_number       1
_space_group_crystal_system       triclinic
_cell_length_a                    23.516792
_cell_length_b                    10.959467
_cell_length_c                    9.693271
_cell_angle_alpha                 90.294053
_cell_angle_beta                  89.903614
_cell_angle_gamma                 90.155105
_cell_volume                      2498.21579949

loop_
_atom_site_label
_atom_site_type_symbol
_atom_type_description
_atom_site_fract_x
_atom_site_fract_y
_atom_site_fract_z
_atom_type_partial_charge
C1    C     C_R   0.499321 0.265390 0.499839 0.557877
C2    C     C_R   0.119525 0.615751 0.503286 0.382996
C3    C     C_R   0.239017 0.528196 0.380439 -0.071689
C4    C     C_R   0.390942 0.500004 0.500183 0.552159
C5    C     C_R   0.298192 0.524790 0.379078 -0.147722
C6    C     C_R   0.328339 0.501319 0.500869 -0.006977
C7    C     C_R   0.298279 0.480218 0.623890 -0.148785
C8    C     C_R   0.238736 0.483469 0.626302 0.031492
C9    C     C_R   0.209048 0.507936 0.503097 0.239515
C10   C     C_R   0.761384 0.507277 0.623427 -0.061640
C11   C     C_R   0.702083 0.506356 0.624190 -0.141801
C12   C     C_R   0.971263 0.281956 0.487921 0.257068
C13   C     C_R   0.671750 0.500598 0.499377 0.005312
C14   C     C_R   0.701883 0.495547 0.373999 -0.141555
C15   C     C_R   0.761172 0.496205 0.373618 -0.061795
C16   C     C_R   0.500610 0.734654 0.500343 0.561263
C17   C     C_R   0.790991 0.502180 0.498225 0.241858
C18   C     C_2   0.498842 0.932541 0.387273 -0.153382
C19   C     C_2   0.503121 0.866629 0.502995 -0.111349
C20   C     C_2   0.501162 0.066407 0.386817 -0.154826
C21   C     C_2   0.496591 0.133530 0.502163 -0.113092
C22   C     C_2   0.465997 0.432225 0.921865 -0.015863
C23   C     C_R   0.030617 0.284724 0.482476 -0.115194
C24   C     C_2   0.467077 0.429783 0.077557 -0.018896
C25   C     C_R   0.609089 0.500149 0.499836 0.555318
C26   C     C_R   0.879856 0.612134 0.508074 0.398187
C27   C     C_R   0.880268 0.394930 0.486409 0.398309
C28   C     C_R   0.940145 0.392556 0.490279 0.025743
C29   C     C_R   0.969871 0.504853 0.496617 -0.115217
C30   C     C_R   0.939713 0.616284 0.503163 0.025734
C31   C     C_3   0.932760 0.132148 0.622574 0.052373
C32   C     C_3   0.985275 0.075706 0.690968 -0.272029
C33   C     C_3   0.968725 0.003941 0.818870 -0.467859
C34   C     C_R   0.060311 0.395311 0.489601 -0.011177
C35   C     C_3   0.931171 0.876594 0.370949 0.052330
C36   C     C_3   0.983546 0.933341 0.301153 -0.272274
C37   C     C_3   0.966672 0.005926 0.174365 -0.467228
C38   C     C_R   0.208555 0.460021 0.757801 0.045058
C39   C     C_R   0.173416 0.549551 0.817252 -0.087251
C40   C     C_R   0.145838 0.527409 0.942638 -0.121138
C41   C     C_R   0.153377 0.416211 0.009992 -0.105029
C42   C     C_R   0.188550 0.326985 0.952040 -0.108572
C43   C     C_R   0.216191 0.348757 0.826625 -0.082027
C44   C     C_R   0.030000 0.505716 0.496626 -0.057841
C45   C     C_R   0.059877 0.616994 0.503538 -0.011041
C46   C     C_R   0.029765 0.726747 0.509893 -0.115558
C47   C     C_R   0.970406 0.727797 0.504884 0.256867
C48   C     C_R   0.119950 0.398208 0.491737 0.403270
Cu1   Cu    Cu3+1 0.500010 0.500020 0.638630 0.944661
Cu2   Cu    Cu3+1 0.499990 0.499980 0.361370 0.941386
H1    H     H_    0.680075 0.510425 0.722333 0.130397
H2    H     H_    0.438507 0.366587 0.128685 0.136565
H3    H     H_    0.053333 0.199008 0.476093 0.159336
H4    H     H_    0.525500 0.561062 0.106284 0.204549
H5    H     H_    0.052159 0.813100 0.516164 0.159133
H6    H     H_    0.216214 0.545795 0.285634 0.124746
H7    H     H_    0.320307 0.541223 0.282829 0.135040
H8    H     H_    0.321073 0.461577 0.718550 0.124212
H9    H     H_    0.784401 0.511833 0.719998 0.118313
H10   H     H_    0.898575 0.062176 0.616619 0.207586
H11   H     H_    0.915660 0.207602 0.688179 0.130673
H12   H     H_    0.679728 0.490979 0.276245 0.131517
H13   H     H_    0.007381 0.013832 0.617763 0.197727
H14   H     H_    0.015384 0.149163 0.721829 0.148493
H15   H     H_    0.945675 0.064424 0.892034 0.141303
H16   H     H_    0.007600 0.968474 0.869455 0.150097
H17   H     H_    0.941030 0.925472 0.790620 0.195617
H18   H     H_    0.897057 0.946304 0.377646 0.206885
H19   H     H_    0.913838 0.800897 0.305930 0.130410
H20   H     H_    0.006184 0.994732 0.374018 0.199680
H21   H     H_    0.013299 0.859979 0.268781 0.143669
H22   H     H_    0.943288 0.945907 0.101217 0.140680
H23   H     H_    0.784019 0.492295 0.276602 0.118261
H24   H     H_    0.005450 0.041956 0.123134 0.150215
H25   H     H_    0.939201 0.084090 0.204076 0.196927
H26   H     H_    0.168108 0.637115 0.768021 0.151760
H27   H     H_    0.118913 0.596812 0.988063 0.115019
H28   H     H_    0.132181 0.399418 0.107329 0.125813
H29   H     H_    0.194486 0.241000 0.004438 0.122547
H30   H     H_    0.243339 0.278835 0.782856 0.121003
H31   H     H_    0.494311 0.887407 0.287839 0.151611
H32   H     H_    0.509742 0.907946 0.603258 0.103831
H33   H     H_    0.505998 0.110438 0.287304 0.150280
H34   H     H_    0.489658 0.093178 0.602390 0.102729
H35   H     H_    0.435398 0.373564 0.870270 0.133421
H36   H     H_    0.529485 0.552200 0.894132 0.204272
N1    N     N_R   0.851886 0.503103 0.497595 -0.416546
N2    N     N_R   0.148123 0.507309 0.499852 -0.390773
N3    N     N_2   0.499380 0.498660 0.846910 -0.345578
N4    N     N_2   0.499370 0.498630 0.153040 -0.348295
O1    O     O_R   0.500010 0.321960 0.617040 -0.494746
O2    O     O_R   0.582130 0.500060 0.617050 -0.498779
O3    O     O_R   0.582110 0.500020 0.382900 -0.497328
O4    O     O_2   0.849510 0.715594 0.523555 -0.464215
O5    O     O_3   0.944520 0.169541 0.485827 -0.556496
O6    O     O_3   0.943252 0.839448 0.507470 -0.555893
O7    O     O_2   0.850307 0.290591 0.471307 -0.464120
O8    O     O_2   0.149625 0.293064 0.485968 -0.508467
O9    O     O_2   0.148793 0.721812 0.507306 -0.516966
O10   O     O_R   0.499990 0.321920 0.382900 -0.492946
O11   O     O_R   0.417890 0.499980 0.617100 -0.498178
O12   O     O_R   0.417870 0.499940 0.382950 -0.497275
O13   O     O_R   0.500010 0.678080 0.617100 -0.492816
O14   O     O_R   0.499990 0.678040 0.382960 -0.494866

loop_
_geom_bond_atom_site_label_1
_geom_bond_atom_site_label_2
_ccdc_geom_bond_type
C26   O4    S    
C37   H24   S    
C1    C21   S    
C41   C42   A    
C31   H11   S    
C35   C36   S    
C33   H15   S    
C7    C8    A    
C35   O6    S    
C25   O3    A    
C12   C23   A    
C12   C28   A    
C28   C29   A    
H4    N4    S    
C24   H2    S    
C9    N2    S    
Cu1   O11   S    
C38   C39   A    
C10   C17   A    
C14   H12   S    
C18   H31   S    
C18   C19   D    
C22   H35   S    
C16   O14   A    
C27   O7    S    
C8    C9    A    
Cu2   N4    S    
C46   H5    S    
C47   O6    S    
C48   N2    A    
C12   O5    S    
C2    N2    A    
C19   H32   S    
C7    H8    S    
C36   H21   S    
C37   H25   S    
C42   H29   S    
C1    O1    A    
C13   C14   A    
C13   C25   S    
C8    C38   S    
Cu1   O1    S    
C1    O10   A    
C36   H20   S    
C33   H16   S    
C23   H3    S    
C2    C45   A    
C30   C47   A    
C34   C44   A    
C32   H14   S    
C4    C6    S    
C41   H28   S    
C26   N1    A    
C43   H30   S    
C45   C46   A    
C4    O12   A    
C31   H10   S    
C29   C30   A    
C3    C9    A    
C3    H6    S    
C16   O13   A    
C31   C32   S    
C14   C15   A    
C21   H34   S    
C23   C34   A    
C4    O11   A    
C39   H26   S    
C27   N1    A    
C40   C41   A    
C15   H23   S    
C2    O9    S    
C26   C30   A    
C29   C44   A    
C22   C24   S    
C20   H33   S    
C34   C48   A    
C42   C43   A    
Cu1   O2    S    
C39   C40   A    
C44   C45   A    
C33   H17   S    
C15   C17   A    
C46   C47   A    
C36   C37   S    
C25   O2    A    
C17   N1    S    
C32   H13   S    
Cu1   N3    S    
C3    C5    A    
H36   N3    S    
C24   N4    D    
Cu1   O13   S    
Cu2   O3    S    
Cu2   O12   S    
C6    C7    A    
C48   O8    S    
Cu2   O10   S    
C5    H7    S    
C32   C33   S    
C10   H9    S    
C38   C43   A    
C11   C13   A    
C5    C6    A    
C35   H18   S    
C16   C19   S    
C31   O5    S    
C22   N3    D    
C18   C20   S    
C11   H1    S    
C10   C11   A    
C20   C21   D    
C35   H19   S    
Cu1   Cu2   S    
C37   H22   S    
C27   C28   A    
C40   H27   S    
Cu2   O14   S    
