data_mof_unit_26576.cif
_audit_creation_date              2012-12-10T18:05:50-0500
_audit_creation_method            fapswitch 2.2
_symmetry_space_group_name_H-M    P1
_symmetry_Int_Tables_number       1
_space_group_crystal_system       triclinic
_cell_length_a                    12.587519
_cell_length_b                    13.093155
_cell_length_c                    14.990658
_cell_angle_alpha                 90.582945
_cell_angle_beta                  102.967973
_cell_angle_gamma                 81.576588
_cell_volume                      2380.97175606

loop_
_atom_site_label
_atom_site_type_symbol
_atom_type_description
_atom_site_fract_x
_atom_site_fract_y
_atom_site_fract_z
_atom_type_partial_charge
C1    C     C_R   0.437366 0.692147 0.487511 0.840638
C2    C     C_R   0.598116 0.493785 0.111058 0.132552
C3    C     C_R   0.296099 0.527377 0.009109 -0.267480
C4    C     C_R   0.293505 0.530458 0.915434 0.170122
C5    C     C_R   0.394826 0.520307 0.886981 0.081835
C6    C     C_R   0.496359 0.508586 0.952772 0.020199
C7    C     C_R   0.598094 0.498843 0.925757 0.126779
C8    C     C_R   0.698017 0.487568 0.991068 -0.217894
C9    C     C_R   0.698039 0.485012 0.083538 -0.223210
C10   C     C_R   0.398315 0.520699 0.794801 -0.264198
C11   C     C_R   0.499305 0.507785 0.768757 -0.080753
C12   C     C_R   0.500108 0.502254 0.672947 0.889109
C13   C     C_R   0.598638 0.498819 0.833674 -0.236508
C14   C     C_R   0.699365 0.061853 0.431828 -0.201026
C15   C     C_R   0.599639 0.199150 0.502764 -0.049038
C16   C     C_R   0.293959 0.845508 0.502968 0.161836
C17   C     C_R   0.272592 0.952508 0.514004 -0.130715
C18   C     C_R   0.349680 0.015302 0.506942 -0.264641
C19   C     C_R   0.449124 0.974850 0.482721 0.088641
C20   C     C_R   0.464354 0.871192 0.456908 0.069913
C21   C     C_R   0.532629 0.035373 0.480881 0.088817
C22   C     C_R   0.620627 0.998379 0.438800 0.165341
C23   C     C_R   0.561894 0.308502 0.509344 0.858974
C24   C     C_R   0.626277 0.900230 0.401793 -0.280934
C25   C     C_R   0.549116 0.837337 0.410572 -0.190739
C26   C     C_R   0.530228 0.132513 0.519537 -0.261961
C27   C     C_R   0.687236 0.163355 0.461704 -0.203290
C28   C     C_R   0.395033 0.803785 0.478591 -0.209631
C29   C     C_R   0.087691 0.348460 0.370428 -0.317666
C30   C     C_R   0.801656 0.625333 0.613487 0.626703
C31   C     C_R   0.910722 0.643800 0.642598 -0.369675
C32   C     C_R   0.990965 0.595028 0.600338 -0.292890
C33   C     C_R   0.964362 0.525198 0.529550 0.028635
C34   C     C_R   0.499238 0.499514 0.326886 0.868391
C35   C     C_R   0.854820 0.503393 0.506050 0.148494
C36   C     C_R   0.042750 0.474259 0.483121 0.015178
C37   C     C_R   0.011470 0.399415 0.416901 0.195072
C38   C     C_R   0.904696 0.375799 0.398128 -0.305864
C39   C     C_R   0.827778 0.426909 0.442395 -0.199029
C40   C     C_R   0.151415 0.495246 0.498918 -0.067520
C41   C     C_R   0.193888 0.372591 0.389474 0.008240
C42   C     C_R   0.597884 0.490759 0.203169 -0.268031
C43   C     C_R   0.497956 0.499674 0.230628 -0.068282
C44   C     C_R   0.397517 0.511115 0.166339 -0.243240
C45   C     C_R   0.396296 0.514723 0.073671 0.080365
C46   C     C_R   0.496806 0.505870 0.045736 0.058806
H1    H     H_    0.675672 0.481221 0.253383 0.163222
H2    H     H_    0.690920 0.871619 0.366862 0.153766
H3    H     H_    0.766376 0.034928 0.398964 0.136089
H4    H     H_    0.470571 0.161008 0.558977 0.147843
H5    H     H_    0.326661 0.096548 0.516925 0.150350
H6    H     H_    0.197660 0.989429 0.531440 0.159870
H7    H     H_    0.555527 0.762439 0.379412 0.171348
H8    H     H_    0.254274 0.334000 0.354426 0.139639
H9    H     H_    0.880319 0.317616 0.348830 0.148992
H10   H     H_    0.065337 0.290839 0.320013 0.145300
H11   H     H_    0.320385 0.518760 0.188388 0.159639
H12   H     H_    0.182440 0.551409 0.546788 0.122705
H13   H     H_    0.073546 0.611188 0.626663 0.166162
H14   H     H_    0.934794 0.693250 0.699535 0.157210
H15   H     H_    0.748115 0.403683 0.426394 0.208075
H16   H     H_    0.219499 0.534121 0.031913 0.146044
H17   H     H_    0.323038 0.530365 0.742231 0.168533
H18   H     H_    0.676464 0.489476 0.812613 0.171748
H19   H     H_    0.776027 0.480140 0.970565 0.146934
H20   H     H_    0.775993 0.475865 0.133471 0.148210
H21   H     H_    0.741993 0.214833 0.448241 0.145931
N1    N     N_R   0.222190 0.444670 0.452360 -0.104143
N2    N     N_R   0.776970 0.554790 0.547140 -0.165208
O1    O     O_R   0.366740 0.627160 0.477250 -0.631121
O2    O     O_R   0.544830 0.662520 0.507680 -0.574321
O3    O     O_R   0.410940 0.482340 0.616930 -0.634541
O4    O     O_R   0.589030 0.517700 0.647360 -0.561996
O5    O     O_R   0.455170 0.337480 0.492320 -0.609445
O6    O     O_R   0.633260 0.372840 0.522750 -0.638124
O7    O     O_R   0.410970 0.482300 0.352640 -0.620281
O8    O     O_R   0.589060 0.517660 0.383070 -0.651629
Zn1   Zn    Zn3+2 0.381090 0.476390 0.479680 0.927112
Zn2   Zn    Zn3+2 0.618910 0.523610 0.520320 0.964209
C47   C     C_3   0.210774 0.776832 0.517651 -0.367853
C48   C     C_3   0.102712 0.832257 0.537154 -0.950741
H22   H     H_    0.118475 0.872136 0.603546 0.262661
H23   H     H_    0.059638 0.888147 0.480795 0.264080
H24   H     H_    0.047116 0.775147 0.541271 0.265467
H25   H     H_    0.187350 0.732316 0.454591 0.231787
H26   H     H_    0.250233 0.722310 0.575996 0.206310
O9    O     O_3   0.721621 0.666116 0.659452 -0.583259
C49   C     C_3   0.709764 0.775178 0.658919 0.089282
H27   H     H_    0.696662 0.807087 0.588121 0.157070
H28   H     H_    0.782837 0.802778 0.703047 0.122779
C50   C     C_3   0.610408 0.817246 0.697412 -0.780400
H29   H     H_    0.624908 0.792314 0.770287 0.246156
H30   H     H_    0.596595 0.902961 0.692785 0.204781
H31   H     H_    0.535487 0.788207 0.658407 0.254717
C51   C     C_3   0.181689 0.544008 0.849066 -0.421442
C52   C     C_3   0.154122 0.441187 0.808121 -0.846718
H32   H     H_    0.214575 0.407583 0.768255 0.259711
H33   H     H_    0.154011 0.385484 0.863490 0.259678
H34   H     H_    0.070909 0.453287 0.761756 0.260661
H35   H     H_    0.115835 0.575672 0.884653 0.204956
H36   H     H_    0.177934 0.601700 0.794298 0.191771

loop_
_geom_bond_atom_site_label_1
_geom_bond_atom_site_label_2
_ccdc_geom_bond_type
C16   C28   A    
O9    C49   S    
O1    Zn1   S    
C51   C52   S    
C21   C26   A    
C48   H24   S    
C10   H17   S    
O2    Zn2   S    
C48   H22   S    
C7    C8    A    
C45   C46   A    
C2    C46   A    
C47   H25   S    
C5    C6    A    
O7    Zn1   S    
C36   C37   A    
C19   C21   A    
C25   H7    S    
C26   H4    S    
C34   O8    A    
C38   C39   A    
C14   H3    S    
C20   C25   A    
C52   H34   S    
C33   C36   A    
C18   C19   A    
C9    H20   S    
O3    Zn1   S    
C38   H9    S    
C19   C20   A    
C16   C17   A    
C52   H33   S    
C1    C28   S    
C47   H26   S    
C14   C27   A    
C15   C23   S    
C12   O3    A    
C8    H19   S    
C21   C22   A    
C17   H6    S    
C48   H23   S    
C18   H5    S    
C41   N1    A    
O8    Zn2   S    
N1    Zn1   S    
C39   H15   S    
C40   H12   S    
C24   H2    S    
C36   C40   A    
C24   C25   A    
C50   H29   S    
C51   H35   S    
C8    C9    A    
C15   C26   A    
C20   C28   A    
C3    C45   A    
C16   C47   S    
C31   H14   S    
C35   C39   A    
C43   C44   A    
C37   C38   A    
C50   H30   S    
C4    C51   S    
C15   C27   A    
C31   C32   A    
C49   C50   S    
C7    C13   A    
C44   H11   S    
C52   H32   S    
C17   C18   A    
O4    Zn2   S    
C1    O2    A    
C49   H28   S    
O5    Zn1   S    
C22   C24   A    
N2    Zn2   S    
C42   C43   A    
C23   O5    A    
C3    C4    A    
C30   N2    A    
C44   C45   A    
C3    H16   S    
C6    C46   A    
C29   C41   A    
C34   C43   S    
C23   O6    A    
C47   C48   S    
C11   C12   S    
C6    C7    A    
C29   H10   S    
C1    O1    A    
C32   C33   A    
C14   C22   A    
C5    C10   A    
C50   H31   S    
C11   C13   A    
C30   C31   A    
C13   H18   S    
C2    C42   A    
C33   C35   A    
C42   H1    S    
C41   H8    S    
C27   H21   S    
C10   C11   A    
C4    C5    A    
C49   H27   S    
C35   N2    A    
C40   N1    A    
C29   C37   A    
C32   H13   S    
C30   O9    S    
C12   O4    A    
C2    C9    A    
O6    Zn2   S    
C51   H36   S    
C34   O7    A    
