data_mof_unit_47345.cif
_audit_creation_date              2013-03-05T15:49:31-0500
_audit_creation_method            fapswitch 2.2
_symmetry_space_group_name_H-M    P1
_symmetry_Int_Tables_number       1
_space_group_crystal_system       triclinic
_cell_length_a                    10.459826
_cell_length_b                    12.006627
_cell_length_c                    12.686015
_cell_angle_alpha                 96.750508
_cell_angle_beta                  89.190926
_cell_angle_gamma                 82.370922
_cell_volume                      1567.43637459

loop_
_atom_site_label
_atom_site_type_symbol
_atom_site_description
_atom_site_fract_x
_atom_site_fract_y
_atom_site_fract_z
_atom_type_partial_charge
O1    O     O_R   0.506170 0.421700 0.658830 -0.600003
O2    O     O_R   0.493830 0.578300 0.341170 -0.605283
O3    O     O_R   0.491330 0.609310 0.646410 -0.632908
O4    O     O_R   0.508670 0.390690 0.353590 -0.630105
C1    C     C_R   0.505287 0.525717 0.701497 0.962318
C2    C     C_R   0.495185 0.474261 0.298460 0.962665
O5    O     O_R   0.690650 0.406190 0.506220 -0.592499
O6    O     O_R   0.309350 0.593810 0.493780 -0.603534
O7    O     O_R   0.675800 0.593810 0.493800 -0.619485
O8    O     O_R   0.324200 0.406190 0.506200 -0.612427
C3    C     C_R   0.742068 0.492723 0.485565 0.930204
C4    C     C_R   0.257964 0.507217 0.514516 0.932244
Zn1   Zn    Zn3+2 0.509910 0.374730 0.508290 0.987365
Zn2   Zn    Zn3+2 0.490090 0.625270 0.491710 0.984427
C5    C     C_R   0.933004 0.283458 0.521710 -0.034801
C6    C     C_R   0.063293 0.718492 0.484346 0.007118
C7    C     C_R   0.988449 0.219391 0.600616 -0.042181
C8    C     C_R   0.999987 0.786777 0.411314 -0.043282
C9    C     C_R   0.078528 0.266432 0.669070 -0.033583
C10   C     C_R   0.912093 0.739971 0.341147 -0.082442
C11   C     C_R   0.118308 0.370836 0.652380 -0.035563
C12   C     C_R   0.878915 0.631955 0.351545 0.011269
C13   C     C_R   0.066127 0.430138 0.569476 0.023357
C14   C     C_R   0.933818 0.570044 0.431694 0.011088
C15   C     C_R   0.959269 0.395797 0.517224 0.083338
C16   C     C_R   0.040453 0.604448 0.484327 0.031474
C17   C     C_R   0.118263 0.523066 0.536516 -0.222794
C18   C     C_R   0.881928 0.476745 0.464060 -0.209315
C19   C     C_R   0.481764 0.451220 0.184220 -0.104100
C20   C     C_R   0.519698 0.548753 0.815652 -0.103463
C21   C     C_R   0.441510 0.651139 0.984740 -0.050937
C22   C     C_R   0.561137 0.348963 0.015343 -0.054531
C23   C     C_R   0.460759 0.649621 0.875315 -0.083044
C24   C     C_R   0.541741 0.350603 0.124777 -0.081922
C25   C     C_R   0.583222 0.461946 0.867881 -0.062522
C26   C     C_R   0.418387 0.537943 0.131816 -0.066913
C27   C     C_R   0.538374 0.452061 0.970578 0.019582
C28   C     C_R   0.463724 0.547907 0.029301 0.020440
N1    N     N_R   0.523130 0.207800 0.519340 -0.120453
N2    N     N_R   0.476870 0.792200 0.480660 -0.136097
C29   C     C_R   0.393536 0.951610 0.393416 -0.209476
C30   C     C_R   0.609769 0.047771 0.604466 -0.310127
C31   C     C_R   0.401802 0.836691 0.405382 0.067543
C32   C     C_R   0.599942 0.163000 0.593455 0.002596
C33   C     C_R   0.547502 0.858509 0.545814 0.067664
C34   C     C_R   0.453576 0.141253 0.453495 0.081235
C35   C     C_R   0.540552 0.976169 0.537899 0.044914
C36   C     C_R   0.461673 0.023396 0.460704 0.031605
H1    H     H_    0.653985 0.217016 0.644500 0.164021
H2    H     H_    0.347893 0.782716 0.354160 0.168626
H3    H     H_    0.332968 0.983489 0.332150 0.175304
H4    H     H_    0.671606 0.015690 0.664883 0.178018
C37   C     C_1   0.852910 0.803308 0.259636 0.146545
N3    N     N_1   0.805502 0.853743 0.194729 -0.160286
C38   C     C_1   0.133425 0.208107 0.755251 0.300809
N4    N     N_1   0.177626 0.161913 0.824036 -0.144507
C39   C     C_1   0.866355 0.228315 0.435306 0.158650
N5    N     N_1   0.813795 0.183804 0.366258 -0.190886
C40   C     C_1   0.131646 0.770107 0.571470 0.323451
N6    N     N_1   0.185598 0.811643 0.641287 -0.125300
C41   C     C_2   0.946372 0.106747 0.611929 0.453743
H5    H     H_    0.874175 0.075034 0.560527 0.046411
O9    O     O_2   0.990536 0.047440 0.678060 -0.549472
C42   C     C_2   0.024792 0.905760 0.405590 0.349353
H6    H     H_    0.962111 0.961342 0.361220 0.093180
O10   O     O_2   0.115885 0.943476 0.448898 -0.586513
C43   C     C_1   0.194975 0.426123 0.731445 0.163746
N7    N     N_1   0.253486 0.470313 0.796546 -0.221978
C44   C     C_1   0.803977 0.577856 0.270402 0.186543
N8    N     N_1   0.746672 0.534704 0.203774 -0.220483
C45   C     C_2   0.293752 0.603691 0.176653 0.386752
H7    H     H_    0.237735 0.663674 0.132106 0.083641
O11   O     O_2   0.246397 0.585408 0.260472 -0.577578
C46   C     C_2   0.707825 0.396431 0.822808 0.383047
H8    H     H_    0.764770 0.337385 0.867674 0.085702
O12   O     O_2   0.754079 0.413923 0.738336 -0.586387
C47   C     C_1   0.580911 0.248513 0.173330 0.249762
N9    N     N_1   0.611701 0.166017 0.210627 -0.171566
C48   C     C_1   0.422803 0.752118 0.827079 0.247473
N10   N     N_1   0.393033 0.834987 0.790104 -0.158568
C49   C     C_1   0.409529 0.759014 0.050838 0.155880
N11   N     N_1   0.384504 0.845015 0.103363 -0.194873
C50   C     C_1   0.594118 0.241053 0.949493 0.155292
N12   N     N_1   0.619961 0.155031 0.897154 -0.180845
C51   C     C_1   0.370029 0.192873 0.378056 0.246166
N13   N     N_1   0.302426 0.233534 0.317505 -0.178017
C52   C     C_1   0.630998 0.806872 0.621274 0.242453
N14   N     N_1   0.698607 0.766204 0.681819 -0.175964

loop_
_geom_bond_atom_site_label_1
_geom_bond_atom_site_label_2
_geom_bond_distance
_ccdc_geom_bond_type
C32   H1    1.080943 S    
C38   N4    1.157551 T    
C25   C46   1.498463 S    
C29   C31   1.397231 A    
C52   N14   1.157705 T    
C49   N11   1.157715 T    
C37   N3    1.157415 T    
C15   C18   1.419390 A    
O5    C3    1.282878 A    
C19   C26   1.399113 A    
C16   C17   1.418325 A    
C46   O12   1.221375 D    
C20   C25   1.399169 A    
O1    C1    1.300256 A    
C33   C52   1.443222 S    
C14   C16   1.392500 A    
C24   C47   1.449473 S    
C5    C15   1.419149 A    
O4    Zn1   1.994209 S    
C41   O9    1.219967 D    
C7    C41   1.498461 S    
N2    C31   1.357797 A    
C50   N12   1.157700 T    
C21   C23   1.397527 A    
C13   C17   1.407801 A    
C12   C44   1.448010 S    
C41   H5    1.082754 S    
C26   C45   1.498823 S    
C47   N9    1.156924 T    
C34   C51   1.443235 S    
C40   N6    1.156136 T    
C11   C43   1.448211 S    
C5    C39   1.448921 S    
O2    C2    1.300051 A    
C30   C32   1.397244 A    
C33   C35   1.420349 A    
C6    C16   1.420854 A    
N2    C33   1.371707 A    
C34   C36   1.420131 A    
C46   H8    1.083356 S    
C4    C17   1.466809 S    
C43   N7    1.155681 T    
O4    C2    1.282978 A    
C45   O11   1.221918 D    
C23   C48   1.449393 S    
C51   N13   1.157694 T    
C19   C24   1.411700 A    
C6    C40   1.447663 S    
C42   O10   1.218867 D    
O7    Zn2   1.930195 S    
C27   C28   1.425625 A    
C35   C36   1.410820 A    
O6    C4    1.283638 A    
C22   C27   1.415037 A    
O7    C3    1.307380 A    
O3    Zn2   1.994210 S    
O8    C4    1.306593 A    
N1    C34   1.371151 A    
C10   C12   1.406502 A    
C11   C13   1.414244 A    
C12   C14   1.413152 A    
O1    Zn1   1.924984 S    
C1    C20   1.455850 S    
C9    C38   1.451329 S    
C5    C7    1.417402 A    
C22   C50   1.454049 S    
O6    Zn2   1.976848 S    
C20   C23   1.411643 A    
C25   C27   1.401914 A    
C14   C18   1.407596 A    
C10   C37   1.452154 S    
O3    C1    1.282932 A    
O8    Zn1   1.930194 S    
C31   H2    1.080996 S    
N1    C32   1.358065 A    
C21   C49   1.454059 S    
C21   C28   1.414854 A    
C42   H6    1.083793 S    
C26   C28   1.401694 A    
C45   H7    1.083673 S    
C8    C42   1.495228 S    
C39   N5    1.156152 T    
C3    C18   1.467387 S    
C7    C9    1.417747 A    
C29   C36   1.409537 A    
C8    C10   1.412820 A    
C30   C35   1.410052 A    
C13   C15   1.392025 A    
C44   N8    1.155837 T    
O2    Zn2   1.924984 S    
Zn1   N1    2.012178 S    
Zn2   N2    2.012179 S    
C48   N10   1.156944 T    
O5    Zn1   1.976849 S    
C2    C19   1.455463 S    
C6    C8    1.421540 A    
C30   H4    1.082319 S    
C29   H3    1.082319 S    
C22   C24   1.397656 A    
C9    C11   1.409860 A    
