data_mof_unit_53086.cif
_audit_creation_date              2012-12-10T18:35:42-0500
_audit_creation_method            fapswitch 2.2
_symmetry_space_group_name_H-M    P1
_symmetry_Int_Tables_number       1
_space_group_crystal_system       triclinic
_cell_length_a                    13.428611
_cell_length_b                    13.899829
_cell_length_c                    15.098753
_cell_angle_alpha                 89.607388
_cell_angle_beta                  90.455344
_cell_angle_gamma                 71.976505
_cell_volume                      2679.75762393

loop_
_atom_site_label
_atom_site_type_symbol
_atom_type_description
_atom_site_fract_x
_atom_site_fract_y
_atom_site_fract_z
_atom_type_partial_charge
C1    C     C_R   0.499969 0.499756 0.670045 0.777971
C2    C     C_R   0.980038 0.455073 0.507959 0.096713
C3    C     C_R   0.873430 0.477142 0.531867 0.090666
C4    C     C_R   0.031980 0.528603 0.524286 0.034297
C5    C     C_R   0.980307 0.618323 0.571397 0.147283
C6    C     C_R   0.879293 0.632143 0.603040 -0.216955
C7    C     C_R   0.827509 0.562296 0.584759 -0.218031
C8    C     C_R   0.133728 0.515821 0.494282 -0.248075
C9    C     C_R   0.134684 0.673968 0.559171 -0.235700
C10   C     C_R   0.815814 0.412751 0.502847 -0.105434
C11   C     C_R   0.551674 0.410363 0.905761 -0.141926
C12   C     C_R   0.700477 0.445693 0.503285 0.781575
C13   C     C_R   0.549030 0.409758 0.813687 -0.196102
C14   C     C_R   0.500115 0.499373 0.766518 -0.020063
C15   C     C_R   0.451734 0.588982 0.812087 -0.195886
C16   C     C_R   0.452055 0.588878 0.904157 -0.174117
C17   C     C_R   0.503982 0.500148 0.951198 0.147557
C18   C     C_R   0.558500 0.557860 0.095880 0.067236
C19   C     C_R   0.553870 0.558684 0.188421 -0.225610
C20   C     C_R   0.501875 0.500456 0.233480 -0.076848
C21   C     C_R   0.452694 0.441480 0.186394 -0.250018
C22   C     C_R   0.453068 0.441945 0.094081 0.151136
C23   C     C_R   0.500270 0.500215 0.329961 0.814585
C24   C     C_R   0.505738 0.500142 0.048292 0.058293
C25   C     C_R   0.466129 0.902513 0.424126 -0.297424
C26   C     C_R   0.470331 0.799907 0.425295 0.076774
C27   C     C_R   0.523182 0.783742 0.575525 0.057887
C28   C     C_R   0.517464 0.886386 0.577636 -0.233871
C29   C     C_R   0.491165 0.947473 0.500737 0.168281
C30   C     C_R   0.576823 0.080874 0.541468 0.085604
C31   C     C_R   0.577683 0.182393 0.542238 0.302174
C32   C     C_R   0.421132 0.234279 0.457081 0.041667
C33   C     C_R   0.416524 0.134100 0.456716 -0.354251
C34   C     C_R   0.299770 0.554261 0.501609 0.813259
C35   C     C_R   0.494186 0.055506 0.500061 0.083597
C36   C     C_R   0.031336 0.691886 0.587324 0.165850
C37   C     C_R   0.186468 0.584885 0.514927 -0.080701
C38   C     C_R   0.868306 0.320367 0.463047 -0.194916
C39   C     C_R   0.975214 0.293282 0.448637 -0.150629
C40   C     C_R   0.030529 0.359943 0.469209 -0.180175
Cu1   Cu    Cu3+1 0.500000 0.403570 0.500010 0.929060
Cu2   Cu    Cu3+1 0.500000 0.596430 0.499990 0.934369
H1    H     H_    0.176164 0.727209 0.575490 0.149775
H2    H     H_    0.586832 0.339974 0.779421 0.136944
H3    H     H_    0.412422 0.658499 0.776500 0.139949
H4    H     H_    0.412365 0.657919 0.938807 0.122225
H5    H     H_    0.593754 0.602363 0.225824 0.148504
H6    H     H_    0.411979 0.396601 0.221193 0.145223
H7    H     H_    0.445009 0.945824 0.363186 0.132032
H8    H     H_    0.449425 0.767814 0.365715 0.125387
H9    H     H_    0.545625 0.738759 0.635238 0.119742
H10   H     H_    0.839034 0.697448 0.642094 0.171508
H11   H     H_    0.533749 0.917588 0.639555 0.144176
H12   H     H_    0.360559 0.292637 0.422672 0.129121
H13   H     H_    0.351780 0.118458 0.423108 0.147306
H14   H     H_    0.175266 0.451551 0.455367 0.140116
H15   H     H_    0.826146 0.270042 0.440402 0.145635
H16   H     H_    0.113074 0.333497 0.455448 0.120961
H17   H     H_    0.015058 0.221312 0.418533 0.137091
H18   H     H_    0.751596 0.575304 0.614475 0.163076
H19   H     H_    0.591216 0.341191 0.941732 0.132081
N1    N     N_R   0.500000 0.741310 0.499980 -0.166781
N2    N     N_R   0.500060 0.258650 0.499980 -0.186466
O1    O     O_R   0.499990 0.418570 0.628550 -0.586477
O2    O     O_R   0.499990 0.581440 0.628540 -0.602735
O3    O     O_R   0.650980 0.378820 0.499990 -0.596040
O4    O     O_R   0.650980 0.541690 0.499970 -0.569863
O5    O     O_R   0.500010 0.418560 0.371460 -0.579475
O6    O     O_R   0.500010 0.581430 0.371450 -0.593811
O7    O     O_R   0.349020 0.458310 0.500030 -0.587556
O8    O     O_R   0.349020 0.621180 0.500010 -0.579579
C41   C     C_3   0.623143 0.615935 0.050826 -0.414927
C42   C     C_3   0.726628 0.544162 0.016622 -0.327889
C43   C     C_3   0.791064 0.602620 0.970619 -0.849752
H20   H     H_    0.747115 0.645527 0.912745 0.252922
H21   H     H_    0.809836 0.656041 0.017397 0.252440
H22   H     H_    0.865515 0.548864 0.946917 0.242578
H23   H     H_    0.772966 0.500227 0.073090 0.219068
H24   H     H_    0.711490 0.489969 0.968750 0.223165
H25   H     H_    0.578002 0.663731 0.996078 0.196227
H26   H     H_    0.641632 0.669080 0.098243 0.193329
N3    N     N_3   0.398421 0.384429 0.046571 -0.595367
H27   H     H_    0.319902 0.409355 0.065470 0.218019
H28   H     H_    0.429744 0.308623 0.066058 0.212029
N4    N     N_3   0.663566 0.002599 0.579181 -0.598469
H29   H     H_    0.670821 0.018593 0.646055 0.229545
H30   H     H_    0.731886 0.003377 0.546848 0.239778
N5    N     N_3   0.663883 0.201478 0.586903 -0.626017
H31   H     H_    0.718422 0.207830 0.540315 0.229531
H32   H     H_    0.638634 0.264931 0.626734 0.254720
N6    N     N_3   0.979181 0.783044 0.634224 -0.605698
H33   H     H_    0.977632 0.763503 0.701075 0.207617
H34   H     H_    0.022209 0.834078 0.630590 0.215984

loop_
_geom_bond_atom_site_label_1
_geom_bond_atom_site_label_2
_ccdc_geom_bond_type
C33   H13   S    
C34   C37   S    
Cu1   Cu2   S    
C23   O6    A    
C19   C20   A    
C4    C8    A    
C8    H14   S    
N4    H29   S    
C43   H21   S    
C30   C35   A    
C18   C24   A    
C22   N3    S    
C28   C29   A    
C3    C7    A    
C26   H8    S    
C5    C6    A    
C19   H5    S    
N6    H34   S    
C15   C16   A    
C5    C36   A    
C18   C19   A    
C42   C43   S    
C16   C17   A    
C43   H22   S    
Cu2   O2    S    
C1    O2    A    
C42   H23   S    
Cu2   N1    S    
C41   H26   S    
C21   H6    S    
C21   C22   A    
C25   C29   A    
C32   H12   S    
C27   H9    S    
Cu1   O5    S    
N4    H30   S    
C18   C41   S    
C38   C39   A    
C12   O4    A    
C9    H1    S    
C17   C24   S    
C40   H16   S    
C43   H20   S    
C31   N2    A    
C16   H4    S    
N6    H33   S    
C4    C5    A    
C25   C26   A    
C12   O3    A    
Cu2   O6    S    
C23   O5    A    
C2    C4    A    
C27   N1    A    
C9    C36   A    
C38   H15   S    
C20   C23   S    
C39   H17   S    
C9    C37   A    
C42   H24   S    
C20   C21   A    
C30   N4    S    
C6    C7    A    
C10   C12   S    
C36   N6    S    
N5    H32   S    
N3    H28   S    
Cu2   O4    S    
C22   C24   A    
C8    C37   A    
C15   H3    S    
C1    O1    A    
C7    H18   S    
C39   C40   A    
C34   O7    A    
C11   C17   A    
C31   N5    S    
C32   N2    A    
C41   C42   S    
C11   H19   S    
C28   H11   S    
Cu1   O3    S    
C29   C35   S    
C10   C38   A    
C32   C33   A    
C2    C3    A    
C26   N1    A    
C41   H25   S    
C3    C10   A    
C11   C13   A    
C30   C31   A    
Cu2   O8    S    
C33   C35   A    
C25   H7    S    
C2    C40   A    
N5    H31   S    
N3    H27   S    
C27   C28   A    
Cu1   N2    S    
C14   C15   A    
C1    C14   S    
Cu1   O1    S    
C6    H10   S    
C13   C14   A    
C34   O8    A    
C13   H2    S    
Cu1   O7    S    
