data_mof_unit_13768.cif
_audit_creation_date              2012-12-11T15:47:00-0500
_audit_creation_method            fapswitch 2.2
_symmetry_space_group_name_H-M    P1
_symmetry_Int_Tables_number       1
_space_group_crystal_system       triclinic
_cell_length_a                    11.538366
_cell_length_b                    11.52786
_cell_length_c                    19.561505
_cell_angle_alpha                 90.460562
_cell_angle_beta                  90.06476
_cell_angle_gamma                 59.946768
_cell_volume                      2252.04069532

loop_
_atom_site_label
_atom_site_type_symbol
_atom_type_description
_atom_site_fract_x
_atom_site_fract_y
_atom_site_fract_z
_atom_type_partial_charge
C1    C     C_R   0.640465 0.117339 0.599287 0.546315
C2    C     C_1   0.652983 0.149632 0.668666 0.003770
C3    C     C_R   0.649484 0.691102 0.187091 0.014283
C4    C     C_R   0.612504 0.745964 0.598661 0.545752
C5    C     C_R   0.530422 0.723398 0.221551 0.027737
C6    C     C_R   0.525312 0.733465 0.291093 0.040994
C7    C     C_R   0.744090 0.710937 0.293972 -0.159131
C8    C     C_R   0.750330 0.700634 0.222691 -0.147311
C9    C     C_3   0.444856 0.658576 0.222241 -0.262595
C10   C     C_3   0.441572 0.669479 0.299166 -0.274913
C11   C     C_R   0.635424 0.715020 0.328806 0.013796
C12   C     C_1   0.641286 0.703910 0.668029 0.004133
C13   C     C_R   0.160705 0.188468 0.187464 0.014199
C14   C     C_R   0.191398 0.273861 0.224022 0.021542
C15   C     C_R   0.216073 0.256708 0.292672 0.040990
C16   C     C_R   0.240993 0.145283 0.598217 0.546383
C17   C     C_R   0.204265 0.054377 0.290006 -0.165423
C18   C     C_R   0.180439 0.070622 0.219399 -0.165744
C19   C     C_3   0.117840 0.423413 0.231391 -0.254093
C20   C     C_3   0.146307 0.403756 0.307196 -0.270926
C21   C     C_R   0.211531 0.154291 0.328149 0.015893
C22   C     C_R   0.667686 0.176529 0.190181 -0.014262
C23   C     C_1   0.126692 0.198786 0.859275 0.005043
C24   C     C_R   0.755069 0.053731 0.221258 0.088694
C25   C     C_R   0.747561 0.036522 0.289977 -0.014916
C26   C     C_R   0.550969 0.254992 0.298425 -0.157362
C27   C     C_R   0.557426 0.272576 0.227997 -0.172485
C28   C     C_R   0.643101 0.111173 0.401498 0.549766
C29   C     C_3   0.905234 0.972107 0.222888 0.250945
C30   C     C_3   0.895385 0.953385 0.298602 -0.225116
C31   C     C_R   0.653794 0.140243 0.330737 0.000629
C32   C     C_R   0.081799 0.231138 0.928572 0.544322
C33   C     C_R   0.683919 0.604434 0.929482 0.546430
C34   C     C_1   0.171551 0.170238 0.727727 -0.030292
C35   C     C_R   0.708383 0.206672 0.930109 0.547248
C36   C     C_R   0.085626 0.234594 0.124350 0.539261
C37   C     C_R   0.680656 0.615774 0.124030 0.545889
C38   C     C_R   0.707493 0.209815 0.126225 0.539014
C39   C     C_R   0.614551 0.743671 0.400834 0.543308
C40   C     C_R   0.248693 0.138532 0.399814 0.544320
C41   C     C_1   0.670390 0.646455 0.860110 0.006445
C42   C     C_1   0.654804 0.683689 0.728449 -0.030611
C43   C     C_1   0.663456 0.666667 0.799689 -0.029840
C44   C     C_1   0.150157 0.182267 0.798939 -0.029639
C45   C     C_1   0.195344 0.160858 0.667412 0.003675
C46   C     C_1   0.678596 0.191309 0.860753 0.005435
C47   C     C_1   0.658553 0.167197 0.729040 -0.030248
C48   C     C_1   0.665683 0.180920 0.800329 -0.029449
Cr1   Cr    Cr6+3 0.404720 0.198220 0.499960 1.025430
Cr2   Cr    Cr6+3 0.698290 0.897110 0.500380 1.026384
Cr3   Cr    Cr6+3 0.396970 0.904720 0.499610 1.026571
Cr4   Cr    Cr6+3 0.926290 0.152010 0.028150 1.060840
Cr5   Cr    Cr6+3 0.921440 0.451830 0.027490 1.048737
Cr6   Cr    Cr6+3 0.626370 0.446880 0.028730 1.031392
F1    F     F_    0.953091 0.853611 0.186182 -0.643575
H1    H     H_    0.825711 0.710259 0.321609 0.135191
H2    H     H_    0.340391 0.738845 0.320036 0.142831
H3    H     H_    0.495973 0.570645 0.324914 0.133533
H4    H     H_    0.211164 0.967860 0.314888 0.126184
H5    H     H_    0.009679 0.469026 0.219791 0.156472
H6    H     H_    0.468422 0.332464 0.327617 0.131487
H7    H     H_    0.498005 0.552600 0.205007 0.164076
H8    H     H_    0.345375 0.722679 0.198370 0.153159
H9    H     H_    0.166917 0.997042 0.191326 0.138917
H10   H     H_    0.170283 0.469632 0.205421 0.159863
H11   H     H_    0.216285 0.437453 0.324954 0.140539
H12   H     H_    0.054656 0.438806 0.338977 0.135285
H13   H     H_    0.482279 0.364285 0.204591 0.126878
H14   H     H_    0.955646 0.029921 0.211012 0.126611
H15   H     H_    0.927777 0.848393 0.312754 0.165045
H16   H     H_    0.937213 0.003490 0.330860 0.085794
H17   H     H_    0.839387 0.686159 0.196672 0.184861
O1    O     O_R   0.267750 0.231960 0.575440 -0.505123
O2    O     O_R   0.596230 0.579400 0.952760 -0.503355
O3    O     O_R   0.639160 0.321170 0.958690 -0.494002
O4    O     O_R   0.527290 0.186640 0.570530 -0.494444
O5    O     O_R   0.821370 0.124220 0.104400 -0.489499
O6    O     O_R   0.037020 0.167050 0.097880 -0.508680
O7    O     O_R   0.056310 0.349620 0.102920 -0.513789
O8    O     O_R   0.797790 0.564880 0.097980 -0.501871
O9    O     O_R   0.596000 0.584270 0.104310 -0.523232
O10   O     O_R   0.638950 0.325690 0.099180 -0.509475
O11   O     O_3   0.824700 0.350240 0.028120 -0.262239
O12   O     O_R   0.685950 0.784660 0.430010 -0.507941
O13   O     O_R   0.728110 0.003450 0.576380 -0.504787
O14   O     O_R   0.682980 0.789190 0.570500 -0.493813
O15   O     O_R   0.499300 0.771880 0.575540 -0.504726
O16   O     O_R   0.285350 0.030870 0.569740 -0.493405
O17   O     O_R   0.270960 0.227070 0.423890 -0.518242
O18   O     O_R   0.530270 0.182120 0.430040 -0.506906
O19   O     O_R   0.731320 0.998570 0.424830 -0.516770
O20   O     O_R   0.502510 0.767000 0.423980 -0.517544
O21   O     O_R   0.288320 0.026340 0.429250 -0.505268
O22   O     O_3   0.499990 0.000020 0.499980 -0.254420
O23   O     O_R   0.821590 0.119350 0.952850 -0.497302
O24   O     O_R   0.037230 0.162540 0.957390 -0.494235
O25   O     O_R   0.056530 0.344750 0.951370 -0.502445
O26   O     O_R   0.798000 0.560370 0.957490 -0.490843

loop_
_geom_bond_atom_site_label_1
_geom_bond_atom_site_label_2
_ccdc_geom_bond_type
C25   C31   A    
C20   H12   S    
C19   C20   S    
C40   O21   A    
C30   H16   S    
Cr2   O12   S    
C7    C8    A    
C4    O15   A    
C7    C11   A    
C35   O3    A    
C26   C27   A    
C13   C18   A    
C20   H11   S    
C10   H3    S    
C26   H6    S    
C39   O12   A    
C33   O26   A    
C5    C6    A    
Cr5   O26   S    
C4    O14   A    
C22   C38   S    
C32   O25   A    
Cr4   O23   S    
C1    C2    S    
C24   C29   S    
C12   C42   T    
C27   H13   S    
Cr2   O13   S    
Cr6   O2    S    
C19   H10   S    
Cr1   O22   S    
C4    C12   S    
C9    C10   S    
Cr1   O18   S    
C26   C31   A    
C13   C14   A    
C38   O10   A    
C41   C43   T    
C37   O9    A    
C7    H1    S    
Cr4   O6    S    
Cr6   O11   S    
C30   H15   S    
C29   H14   S    
C1    O13   A    
C15   C20   S    
C37   O8    A    
C46   C48   T    
C8    H17   S    
C9    H7    S    
C10   H2    S    
C34   C44   S    
C24   C25   A    
C13   C36   S    
C3    C8    A    
Cr3   O15   S    
C6    C11   A    
Cr2   O22   S    
C29   F1    S    
Cr5   O25   S    
C17   C21   A    
C23   C44   T    
C16   O1    A    
Cr3   O16   S    
Cr4   O11   S    
C5    C9    S    
C29   C30   S    
Cr3   O20   S    
Cr2   O19   S    
C47   C48   S    
Cr5   O8    S    
C17   C18   A    
Cr1   O4    S    
C34   C45   T    
C11   C39   S    
Cr3   O21   S    
C32   O24   A    
C17   H4    S    
C22   C27   A    
C40   O17   A    
Cr1   O1    S    
C42   C43   S    
Cr4   O5    S    
C39   O20   A    
Cr6   O10   S    
C25   C30   S    
Cr5   O7    S    
C9    H8    S    
C1    O4    A    
C14   C19   S    
C28   C31   S    
Cr1   O17   S    
C3    C5    A    
C36   O7    A    
C16   C45   S    
C6    C10   S    
C38   O5    A    
C35   O23   A    
C2    C47   T    
Cr5   O11   S    
C33   C41   S    
C23   C32   S    
C36   O6    A    
C18   H9    S    
C21   C40   S    
Cr4   O24   S    
C28   O19   A    
C22   C24   A    
Cr2   O14   S    
Cr3   O22   S    
Cr6   O3    S    
C33   O2    A    
C15   C21   A    
C3    C37   S    
C16   O16   A    
C14   C15   A    
C19   H5    S    
C28   O18   A    
C35   C46   S    
Cr6   O9    S    
