data_mof_unit_55390.cif
_audit_creation_date              2013-03-05T16:31:22-0500
_audit_creation_method            fapswitch 2.2
_symmetry_space_group_name_H-M    P1
_symmetry_Int_Tables_number       1
_space_group_crystal_system       triclinic
_cell_length_a                    13.279246
_cell_length_b                    14.299274
_cell_length_c                    14.97093
_cell_angle_alpha                 89.741284
_cell_angle_beta                  93.086012
_cell_angle_gamma                 70.707948
_cell_volume                      2678.4640092

loop_
_atom_site_label
_atom_site_type_symbol
_atom_site_description
_atom_site_fract_x
_atom_site_fract_y
_atom_site_fract_z
_atom_type_partial_charge
O1    O     O_R   0.499990 0.420530 0.630930 -0.641258
O2    O     O_R   0.499990 0.579480 0.630940 -0.641719
C1    C     C_R   0.498332 0.500549 0.671927 0.847912
O3    O     O_R   0.653620 0.381060 0.499970 -0.629515
O4    O     O_R   0.653620 0.540010 0.499980 -0.579305
C2    C     C_R   0.702742 0.445645 0.496149 0.955739
Zn1   Zn    Zn3+2 0.500000 0.393860 0.499990 0.962091
Zn2   Zn    Zn3+2 0.500000 0.606140 0.500010 0.974630
O5    O     O_R   0.500010 0.420520 0.369060 -0.543278
O6    O     O_R   0.500010 0.579470 0.369070 -0.602167
O7    O     O_R   0.346380 0.459990 0.500020 -0.621882
O8    O     O_R   0.346380 0.618940 0.500030 -0.582219
C3    C     C_R   0.498193 0.500941 0.328247 0.911420
C4    C     C_R   0.296277 0.553322 0.492308 0.893592
C5    C     C_R   0.005331 0.701302 0.429111 0.090920
C6    C     C_R   0.180763 0.579201 0.469077 -0.242123
C7    C     C_R   0.876994 0.328700 0.546770 -0.298556
C8    C     C_R   0.983416 0.312778 0.572303 0.682779
C9    C     C_R   0.031570 0.380267 0.545759 -0.265081
C10   C     C_R   0.976754 0.459974 0.485825 -0.050018
C11   C     C_R   0.869517 0.475814 0.458704 -0.140680
C12   C     C_R   0.025110 0.528123 0.456794 -0.049917
C13   C     C_R   0.961408 0.623108 0.424347 -0.207398
C14   C     C_R   0.858618 0.632954 0.387200 0.514723
C15   C     C_R   0.816516 0.556643 0.399061 0.547544
C16   C     C_R   0.135549 0.502362 0.454629 0.098122
C17   C     C_R   0.113563 0.678476 0.459481 0.525093
C18   C     C_R   0.818350 0.412689 0.494590 -0.151111
H1    H     H_    0.838126 0.280116 0.574191 0.177081
H2    H     H_    0.111666 0.370320 0.573033 0.160091
C19   C     C_R   0.574214 0.415023 0.907413 -0.149362
H3    H     H_    0.621482 0.347581 0.943153 0.156203
C20   C     C_R   0.567020 0.416786 0.815114 -0.256832
H4    H     H_    0.614366 0.352348 0.780529 0.154995
C21   C     C_R   0.499824 0.501095 0.768083 -0.061738
C22   C     C_R   0.440461 0.586077 0.813804 0.139546
C23   C     C_R   0.455634 0.585791 0.906306 -0.102078
H5    H     H_    0.411642 0.650457 0.942810 0.152734
C24   C     C_R   0.519932 0.499965 0.952946 0.121660
C25   C     C_R   0.417111 0.522055 0.085485 0.610596
C26   C     C_R   0.407325 0.533141 0.177040 0.009021
C27   C     C_R   0.501411 0.501307 0.232952 -0.145753
C28   C     C_R   0.602135 0.470580 0.198009 -0.148563
H6    H     H_    0.673187 0.449068 0.242904 0.201488
C29   C     C_R   0.612214 0.471688 0.106107 0.100822
C30   C     C_R   0.518009 0.496418 0.049614 -0.119923
C31   C     C_R   0.568718 0.877158 0.554685 0.520852
C32   C     C_R   0.569916 0.777394 0.556382 0.124659
N1    N     N_R   0.500000 0.747530 0.500020 -0.143462
C33   C     C_R   0.428939 0.818266 0.442547 0.284341
C34   C     C_R   0.425018 0.918356 0.443814 -0.381830
H7    H     H_    0.367127 0.973659 0.401100 0.183580
C35   C     C_R   0.494883 0.949065 0.498930 -0.002427
C36   C     C_R   0.506369 0.103872 0.417712 -0.068511
C37   C     C_R   0.499452 0.205160 0.420499 0.649006
N2    N     N_R   0.499940 0.252470 0.500020 -0.182351
C38   C     C_R   0.508870 0.198078 0.577841 0.117856
C39   C     C_R   0.480364 0.110633 0.576730 0.141583
C40   C     C_R   0.491921 0.055925 0.497134 0.044795
F1    F     F_    0.153794 0.752605 0.476642 -0.688095
C41   C     C_3   0.353290 0.673148 0.768549 -0.379849
C42   C     C_3   0.387598 0.764679 0.762254 -0.826259
H8    H     H_    0.457688 0.749404 0.721032 0.261220
H9    H     H_    0.321267 0.827027 0.730166 0.260668
H10   H     H_    0.408095 0.787182 0.829861 0.245340
H11   H     H_    0.328142 0.654987 0.700796 0.228592
H12   H     H_    0.280693 0.691385 0.807674 0.215125
F2    F     F_    0.327770 0.537755 0.030491 -0.681993
C43   C     C_3   0.296942 0.579860 0.211847 -0.367029
C44   C     C_3   0.244322 0.686651 0.177350 -0.808732
H13   H     H_    0.297290 0.730952 0.193052 0.247065
H14   H     H_    0.226270 0.689846 0.104001 0.299994
H15   H     H_    0.167690 0.720114 0.209623 0.236092
H16   H     H_    0.245606 0.535941 0.189648 0.242869
H17   H     H_    0.299497 0.581740 0.285887 0.166568
C45   C     C_3   0.722813 0.452282 0.072381 -0.384303
C46   C     C_3   0.793837 0.344678 0.089722 -0.840367
H18   H     H_    0.809142 0.328009 0.162677 0.261110
H19   H     H_    0.755770 0.293046 0.059451 0.256667
H20   H     H_    0.871784 0.332061 0.059737 0.255299
H21   H     H_    0.720138 0.470369 0.000048 0.211928
H22   H     H_    0.760718 0.501722 0.107271 0.229513
F3    F     F_    0.640733 0.904074 0.607271 -0.702460
C47   C     C_3   0.649446 0.707556 0.623549 -0.329212
C48   C     C_3   0.765537 0.694675 0.605242 -0.770610
H23   H     H_    0.818419 0.618666 0.625393 0.225627
H24   H     H_    0.773228 0.707357 0.533490 0.251845
H25   H     H_    0.793641 0.748232 0.644060 0.289401
H26   H     H_    0.633791 0.737140 0.691783 0.191073
H27   H     H_    0.641610 0.634168 0.626064 0.244766
C49   C     C_3   0.359808 0.791490 0.370347 -0.313824
C50   C     C_3   0.246419 0.866271 0.358346 -0.834179
H28   H     H_    0.214062 0.892418 0.424007 0.313235
H29   H     H_    0.245148 0.930816 0.316278 0.227298
H30   H     H_    0.193648 0.830816 0.323319 0.264313
H31   H     H_    0.399248 0.786451 0.306135 0.189124
H32   H     H_    0.351445 0.719554 0.383700 0.268886
F4    F     F_    0.799043 0.713541 0.337338 -0.666018
C51   C     C_3   0.534004 0.048997 0.330696 -0.371533
C52   C     C_3   0.647416 0.974661 0.337385 -0.747641
H33   H     H_    0.705303 0.012413 0.358736 0.249856
H34   H     H_    0.654477 0.913594 0.385746 0.282449
H35   H     H_    0.668289 0.941823 0.270997 0.260343
H36   H     H_    0.476307 0.011147 0.310633 0.200196
H37   H     H_    0.529456 0.100971 0.274151 0.255754
F5    F     F_    0.501689 0.252673 0.342813 -0.668240
C53   C     C_3   0.573608 0.216279 0.658100 -0.386773
C54   C     C_3   0.661572 0.122566 0.694746 -0.837938
H38   H     H_    0.709944 0.082763 0.639707 0.292350
H39   H     H_    0.715275 0.143606 0.744187 0.241239
H40   H     H_    0.628012 0.071949 0.729440 0.280248
H41   H     H_    0.618629 0.264348 0.636613 0.250398
H42   H     H_    0.520180 0.251437 0.711811 0.212727
C55   C     C_3   0.433877 0.080431 0.658440 -0.419615
C56   C     C_3   0.316838 0.089559 0.638964 -0.800427
H43   H     H_    0.269769 0.166218 0.615577 0.277236
H44   H     H_    0.308886 0.036696 0.587298 0.261879
H45   H     H_    0.283223 0.072694 0.700977 0.269811
H46   H     H_    0.479964 0.003896 0.681779 0.246171
H47   H     H_    0.435968 0.129419 0.715290 0.216287
C57   C     C_3   0.937654 0.809112 0.413153 -0.286191
C58   C     C_3   0.939866 0.842167 0.316361 -0.779171
H48   H     H_    0.022398 0.835078 0.300475 0.238903
H49   H     H_    0.909827 0.796843 0.268873 0.300825
H50   H     H_    0.889281 0.921014 0.306623 0.235949
H51   H     H_    0.854209 0.822549 0.431227 0.231574
H52   H     H_    0.967274 0.857354 0.457915 0.231752
C59   C     C_3   0.196239 0.397132 0.422512 -0.357268
C60   C     C_3   0.244601 0.398119 0.332863 -0.798999
H53   H     H_    0.181488 0.440974 0.282644 0.239314
H54   H     H_    0.309319 0.430189 0.338724 0.281380
H55   H     H_    0.278926 0.321079 0.309401 0.263026
H56   H     H_    0.255936 0.351294 0.473540 0.219005
H57   H     H_    0.141429 0.354130 0.408930 0.206944
F6    F     F_    0.038011 0.235374 0.627856 -0.679288
F7    F     F_    0.723614 0.563461 0.352798 -0.649639

loop_
_geom_bond_atom_site_label_1
_geom_bond_atom_site_label_2
_geom_bond_distance
_ccdc_geom_bond_type
C37   N2    1.372710 A    
C7    H1    1.083842 S    
C53   H41   1.106164 S    
C21   C22   1.413941 A    
C59   C60   1.520707 S    
C55   C56   1.527866 S    
C35   C40   1.515551 S    
C46   H18   1.110306 S    
C54   H38   1.111366 S    
C25   C30   1.404514 A    
C23   H5    1.084883 S    
C29   C45   1.516822 S    
C14   F4    1.355450 S    
C47   H26   1.111012 S    
C22   C23   1.388440 A    
C57   H52   1.111187 S    
C17   F1    1.355319 S    
O4    C2    1.293314 A    
O7    C4    1.280908 A    
C48   H25   1.110412 S    
C56   H43   1.111345 S    
N2    C38   1.375623 A    
C7    C8    1.386923 A    
C8    C9    1.389168 A    
C26   C27   1.406060 A    
C15   F7    1.356118 S    
O5    C3    1.292307 A    
C53   H42   1.109988 S    
C42   H9    1.110462 S    
C49   H31   1.110627 S    
C41   H11   1.109518 S    
C2    C18   1.450979 S    
C31   C32   1.421478 A    
C19   C24   1.393339 A    
C56   H44   1.109077 S    
C53   C54   1.533356 S    
C19   C20   1.379491 A    
C44   H13   1.108708 S    
C31   F3    1.359159 S    
C55   H46   1.106937 S    
C31   C35   1.397601 A    
C60   H55   1.110688 S    
C6    C17   1.406921 A    
C5    C13   1.422187 A    
C51   H36   1.104917 S    
C41   C42   1.525442 S    
C47   H27   1.088901 S    
Zn1   N2    2.022035 S    
O3    Zn1   1.987027 S    
C52   H34   1.108315 S    
C3    C27   1.429630 S    
C20   H4    1.081189 S    
C36   C40   1.422937 A    
C46   H19   1.109482 S    
C6    C16   1.427781 A    
C51   H37   1.109842 S    
C48   H24   1.104303 S    
C34   H7    1.079840 S    
C8    F6    1.356054 S    
C47   C48   1.530985 S    
C14   C15   1.395297 A    
O3    C2    1.297404 A    
C45   H22   1.111811 S    
C49   C50   1.532366 S    
C37   F5    1.350937 S    
C39   C40   1.415730 A    
C48   H23   1.111460 S    
C52   H35   1.110407 S    
C32   C47   1.517705 S    
O1    C1    1.295215 A    
Zn1   O7    1.944503 S    
C28   H6    1.083819 S    
C42   H8    1.106163 S    
C59   H57   1.109099 S    
C41   H12   1.111990 S    
C5    C17   1.413241 A    
C19   H3    1.081433 S    
C1    C21   1.438706 S    
Zn2   O8    1.987028 S    
C56   H45   1.110436 S    
C44   H15   1.109601 S    
C50   H29   1.109977 S    
C33   C34   1.415116 A    
C43   H16   1.109023 S    
C16   C59   1.546542 S    
C49   H32   1.089220 S    
C28   C29   1.390042 A    
C57   C58   1.526973 S    
C24   C30   1.449770 S    
C32   N1    1.391839 A    
C38   C53   1.513251 S    
C11   C18   1.416071 A    
C10   C12   1.410864 A    
C25   F2    1.361215 S    
C4    C6    1.475524 S    
C36   C51   1.522459 S    
C27   C28   1.394568 A    
C58   H49   1.108615 S    
C22   C41   1.518143 S    
C26   C43   1.518148 S    
C60   H53   1.109861 S    
C46   H20   1.110330 S    
Zn1   O5    1.995197 S    
C11   C15   1.419155 A    
C36   C37   1.421601 A    
C25   C26   1.388622 A    
C5    C57   1.516378 S    
C42   H10   1.110486 S    
O1    Zn1   1.998733 S    
C7    C18   1.402528 A    
O2    Zn2   1.995194 S    
O8    C4    1.319697 A    
O6    C3    1.287455 A    
C45   H21   1.108179 S    
O4    Zn2   1.944500 S    
C44   H14   1.108767 S    
C54   H40   1.107657 S    
C9    C10   1.416411 A    
O2    C1    1.289375 A    
C57   H51   1.109082 S    
C23   C24   1.399421 A    
C51   C52   1.527429 S    
C45   C46   1.528247 S    
C38   C39   1.421038 A    
C58   H50   1.109589 S    
C50   H28   1.110569 S    
C20   C21   1.399719 A    
C54   H39   1.110818 S    
C43   H17   1.107851 S    
C50   H30   1.104841 S    
C43   C44   1.528333 S    
C13   C14   1.408122 A    
C29   C30   1.412914 A    
C33   C49   1.512230 S    
C10   C11   1.402786 A    
Zn2   O6    1.998734 S    
N1    C33   1.388490 A    
C12   C16   1.391325 A    
C39   C55   1.522053 S    
C12   C13   1.409579 A    
C52   H33   1.110750 S    
C34   C35   1.387247 A    
C58   H48   1.105816 S    
C59   H56   1.108416 S    
C9    H2    1.082115 S    
Zn2   N1    2.021775 S    
C55   H47   1.109737 S    
C60   H54   1.099653 S    
