data_mof_unit_32747.cif
_audit_creation_date              2012-12-11T15:57:46-0500
_audit_creation_method            fapswitch 2.2
_symmetry_space_group_name_H-M    P1
_symmetry_Int_Tables_number       1
_space_group_crystal_system       triclinic
_cell_length_a                    10.683721
_cell_length_b                    10.731229
_cell_length_c                    16.941831
_cell_angle_alpha                 99.504976
_cell_angle_beta                  99.607671
_cell_angle_gamma                 61.0889
_cell_volume                      1668.40350672

loop_
_atom_site_label
_atom_site_type_symbol
_atom_type_description
_atom_site_fract_x
_atom_site_fract_y
_atom_site_fract_z
_atom_type_partial_charge
C1    C     C_R   0.352401 0.779590 0.403655 0.554998
C2    C     C_2   0.827133 0.329364 0.158911 -0.038043
C3    C     C_2   0.843989 0.217033 0.193756 0.204823
C4    C     C_2   0.815124 0.238283 0.277112 -0.171987
C5    C     C_2   0.316170 0.874736 0.342531 -0.113410
C6    C     C_2   0.300306 0.899772 0.174714 -0.099688
C7    C     C_2   0.387096 0.932937 0.230603 -0.173659
C8    C     C_2   0.417580 0.884483 0.310850 -0.148540
C9    C     C_2   0.295323 0.307346 0.630584 -0.063359
C10   C     C_2   0.291553 0.282905 0.800440 0.244237
C11   C     C_2   0.326560 0.174850 0.741325 -0.109217
C12   C     C_R   0.398616 0.368139 0.353522 0.555008
C13   C     C_2   0.366040 0.185292 0.665178 -0.112330
C14   C     C_1   0.847833 0.328177 0.704808 -0.025853
C15   C     C_1   0.895270 0.292878 0.771415 -0.031392
C16   C     C_1   0.359682 0.761850 0.713738 -0.024165
C17   C     C_1   0.326964 0.809529 0.780738 -0.029840
C18   C     C_R   0.893454 0.307826 0.086627 0.571201
C19   C     C_R   0.296135 0.268059 0.124252 0.534886
C20   C     C_R   0.261332 0.949478 0.095683 0.553315
C21   C     C_R   0.944652 0.272780 0.853923 0.531372
C22   C     C_R   0.277663 0.253697 0.878071 0.522792
C23   C     C_R   0.776597 0.376541 0.404797 0.551856
C24   C     C_R   0.281058 0.880208 0.857369 0.542005
C25   C     C_R   0.382190 0.712614 0.631395 0.568601
C26   C     C_R   0.363258 0.343347 0.577308 0.562911
C27   C     C_R   0.778110 0.378527 0.628787 0.546505
C28   C     C_1   0.354425 0.341836 0.272944 -0.032711
C29   C     C_1   0.323428 0.311669 0.204759 -0.038979
C30   C     C_2   0.845390 0.328587 0.331416 -0.141121
Cr1   Cr    Cr6+3 0.608020 0.610770 0.522990 1.028197
Cr2   Cr    Cr6+3 0.289390 0.599570 0.488050 1.034321
Cr3   Cr    Cr6+3 0.602610 0.289690 0.489020 1.023612
Cr4   Cr    Cr6+3 0.053780 0.052210 0.965970 1.078342
Cr5   Cr    Cr6+3 0.060060 0.372530 0.992430 1.040467
Cr6   Cr    Cr6+3 0.372600 0.061970 0.991430 1.040861
H1    H     H_    0.464196 0.097783 0.643405 0.152996
H2    H     H_    0.192163 0.390135 0.649421 0.159732
H3    H     H_    0.762212 0.181906 0.292243 0.154735
H4    H     H_    0.782972 0.436254 0.190421 0.063146
H5    H     H_    0.901214 0.382379 0.316705 0.102894
H6    H     H_    0.441511 0.988267 0.216198 0.152615
H7    H     H_    0.527149 0.842956 0.339313 0.159612
H8    H     H_    0.251786 0.837987 0.188161 0.130189
H9    H     H_    0.205425 0.922942 0.315505 0.113122
H10   H     H_    0.343812 0.070742 0.752865 0.085807
O1    O     O_R   0.749250 0.499990 0.439200 -0.508090
O2    O     O_R   0.299400 0.468710 0.556310 -0.503676
O3    O     O_R   0.489240 0.256450 0.560730 -0.504381
O4    O     O_R   0.723350 0.306730 0.584410 -0.490259
O5    O     O_3   0.500010 0.500010 0.500020 -0.282018
O6    O     O_R   0.170650 0.915100 0.051290 -0.470610
O7    O     O_R   0.941960 0.184500 0.049060 -0.429957
O8    O     O_R   0.922640 0.402670 0.071640 -0.525709
O9    O     O_R   0.196880 0.368740 0.083740 -0.476266
O10   O     O_R   0.411120 0.181190 0.091480 -0.490564
O11   O     O_R   0.364220 0.944920 0.062310 -0.499330
O12   O     O_R   0.477870 0.725740 0.440280 -0.492558
O13   O     O_R   0.158740 0.906940 0.874970 -0.497543
O14   O     O_R   0.930920 0.176940 0.885610 -0.475975
O15   O     O_R   0.910730 0.394510 0.895320 -0.493228
O16   O     O_R   0.185840 0.361180 0.920280 -0.501556
O17   O     O_R   0.399210 0.173040 0.915160 -0.483035
O18   O     O_R   0.353170 0.937370 0.898860 -0.513768
O19   O     O_3   0.162150 0.162240 0.983280 -0.341968
O20   O     O_R   0.260770 0.742210 0.412610 -0.514213
O21   O     O_R   0.297990 0.466320 0.394220 -0.493735
O22   O     O_R   0.487720 0.253870 0.385870 -0.516464
O23   O     O_R   0.721940 0.304340 0.422320 -0.511066
O24   O     O_R   0.750770 0.502570 0.614050 -0.506710
O25   O     O_R   0.479280 0.728140 0.602370 -0.494599
O26   O     O_R   0.262290 0.744790 0.587460 -0.501960
O27   O     O_3   0.887260 0.082871 0.151914 -0.656960
H11   H     H_    0.897138 0.015240 0.188881 0.317727
O28   O     O_3   0.285293 0.411447 0.790340 -0.704162
H12   H     H_    0.270915 0.471701 0.842469 0.351770

loop_
_geom_bond_atom_site_label_1
_geom_bond_atom_site_label_2
_ccdc_geom_bond_type
C19   O10   A    
C2    C18   S    
O27   H11   S    
C23   O23   A    
C8    H7    S    
C7    C8    S    
Cr2   O26   S    
C10   C22   S    
C12   O22   A    
C12   C28   S    
C1    C5    S    
Cr1   O12   S    
C28   C29   T    
Cr5   O19   S    
Cr3   O3    S    
C7    H6    S    
C9    C13   D    
C18   O7    A    
C22   O17   A    
Cr1   O24   S    
C16   C17   T    
C30   H5    S    
C25   O25   A    
C14   C27   S    
Cr6   O17   S    
C21   O15   A    
C27   O4    A    
Cr3   O23   S    
Cr1   O25   S    
C24   O18   A    
Cr1   O1    S    
Cr5   O8    S    
Cr4   O14   S    
Cr2   O2    S    
Cr4   O19   S    
C9    C26   S    
C12   O21   A    
C17   C24   S    
C23   O1    A    
Cr5   O9    S    
C23   C30   S    
C21   O14   A    
Cr6   O11   S    
C26   O3    A    
Cr6   O19   S    
Cr3   O4    S    
C5    H9    S    
O28   H12   S    
Cr2   O5    S    
Cr6   O10   S    
C22   O16   A    
C10   O28   S    
C4    H3    S    
C1    O20   A    
Cr5   O15   S    
C25   O26   A    
C27   O24   A    
Cr2   O21   S    
Cr4   O13   S    
C3    C4    S    
C19   C29   S    
Cr2   O20   S    
C19   O9    A    
C16   C25   S    
C13   H1    S    
Cr1   O5    S    
C5    C8    D    
C6    C7    D    
C26   O2    A    
Cr3   O5    S    
C6    C20   S    
Cr4   O6    S    
C2    C3    D    
C20   O6    A    
C1    O12   A    
C11   C13   S    
C24   O13   A    
C9    H2    S    
Cr5   O16   S    
C3    O27   S    
C10   C11   D    
C18   O8    A    
C2    H4    S    
C15   C21   S    
Cr4   O7    S    
C14   C15   T    
C11   H10   S    
C6    H8    S    
C20   O11   A    
Cr6   O18   S    
C4    C30   D    
Cr3   O22   S    
