data_mof_unit_14166.cif
_audit_creation_date              2012-10-26T20:52:03-0400
_audit_creation_method            fapswitch 2.2
_symmetry_space_group_name_H-M    P1
_symmetry_Int_Tables_number       1
_space_group_crystal_system       triclinic
_cell_length_a                    8.795379
_cell_length_b                    15.985492
_cell_length_c                    14.759148
_cell_angle_alpha                 89.547772
_cell_angle_beta                  97.932706
_cell_angle_gamma                 90.063493
_cell_volume                      2055.19238749

loop_
_atom_site_label
_atom_site_type_symbol
_atom_type_description
_atom_site_fract_x
_atom_site_fract_y
_atom_site_fract_z
_atom_type_partial_charge
C1    C     C_R   0.499651 0.340872 0.500292 0.530424
C2    C     C_R   0.796253 0.501218 0.522924 0.560498
C3    C     C_2   0.039239 0.492253 0.464535 0.211485
C4    C     C_2   0.960761 0.507747 0.535465 0.211485
C5    C     C_R   0.427631 0.955225 0.564523 0.270978
C6    C     C_R   0.572369 0.044775 0.435477 0.270976
C7    C     C_R   0.499845 0.912708 0.499324 -0.001485
C8    C     C_R   0.500155 0.087292 0.500676 -0.001488
C9    C     C_R   0.573377 0.957172 0.435831 -0.149118
C10   C     C_R   0.426623 0.042828 0.564169 -0.149120
C11   C     C_1   0.500793 0.823195 0.498539 -0.020065
C12   C     C_R   0.500349 0.659128 0.499708 0.530423
C13   C     C_1   0.499207 0.176805 0.501462 -0.020070
C14   C     C_1   0.499195 0.251826 0.501100 -0.024818
C15   C     C_1   0.500805 0.748173 0.498900 -0.024817
C16   C     C_R   0.604007 0.550360 0.959560 0.240523
C17   C     C_R   0.395992 0.449640 0.040440 0.240522
C18   C     C_3   0.970959 0.386452 0.364696 0.008537
C19   C     C_3   0.881646 0.365000 0.272078 -0.340618
C20   C     C_3   0.029041 0.613548 0.635304 0.008537
C21   C     C_3   0.118355 0.635001 0.727921 -0.340617
C22   C     C_3   0.442586 0.908804 0.711396 -0.005803
C23   C     C_R   0.500010 0.499253 0.902866 -0.089735
C24   C     C_3   0.376550 0.844902 0.772194 -0.377810
C25   C     C_3   0.557401 0.091205 0.288608 -0.005805
C26   C     C_3   0.623446 0.155100 0.227807 -0.377813
C27   C     C_3   0.644932 0.673142 0.135416 0.006792
C28   C     C_3   0.770195 0.736740 0.165300 -0.355431
C29   C     C_3   0.355068 0.326858 0.864584 0.006790
C30   C     C_3   0.229805 0.263261 0.834697 -0.355432
C31   C     C_3   0.653632 0.671674 0.885717 0.002703
C32   C     C_3   0.744159 0.700997 0.810734 -0.365560
C33   C     C_3   0.346362 0.328327 0.114282 0.002705
C34   C     C_R   0.499990 0.500747 0.097133 -0.089735
C35   C     C_3   0.255830 0.299003 0.189262 -0.365558
C36   C     C_R   0.396172 0.448603 0.944231 0.232821
C37   C     C_R   0.603827 0.551397 0.055769 0.232821
C38   C     C_1   0.499821 0.499649 0.802616 0.183477
C39   C     C_1   0.500179 0.500351 0.197383 0.183477
C40   C     C_R   0.203746 0.498782 0.477076 0.560498
Cu1   Cu    Cu3+1 0.500040 0.500000 0.589220 0.995403
Cu2   Cu    Cu3+1 0.499960 0.500000 0.410780 0.995403
H1    H     H_    0.368586 0.075932 0.613284 0.119202
H2    H     H_    0.240990 0.617822 0.729602 0.168690
H3    H     H_    0.110393 0.703200 0.740146 0.076813
H4    H     H_    0.070288 0.600469 0.783086 0.190410
H5    H     H_    0.442826 0.971178 0.744406 0.122648
H6    H     H_    0.563127 0.889992 0.705953 0.122604
H7    H     H_    0.377651 0.781794 0.741305 0.155884
H8    H     H_    0.446751 0.843270 0.840765 0.077242
H9    H     H_    0.256658 0.861805 0.780078 0.156725
H10   H     H_    0.436870 0.110029 0.294060 0.122609
H11   H     H_    0.557131 0.028832 0.255596 0.122649
H12   H     H_    0.631414 0.924068 0.386716 0.119206
H13   H     H_    0.743329 0.138186 0.219917 0.156728
H14   H     H_    0.553238 0.156738 0.159239 0.077241
H15   H     H_    0.622368 0.218208 0.258696 0.155883
H16   H     H_    0.581882 0.660650 0.194328 0.145559
H17   H     H_    0.563860 0.701615 0.078800 0.093886
H18   H     H_    0.834670 0.751467 0.107538 0.157520
H19   H     H_    0.718180 0.795182 0.187234 0.081951
H20   H     H_    0.850848 0.711266 0.223507 0.178788
H21   H     H_    0.436138 0.298385 0.921199 0.093886
H22   H     H_    0.418120 0.339351 0.805673 0.145560
H23   H     H_    0.917606 0.352227 0.418416 0.123454
H24   H     H_    0.149154 0.288736 0.776490 0.178789
H25   H     H_    0.281821 0.204819 0.812763 0.081950
H26   H     H_    0.165329 0.248533 0.892458 0.157519
H27   H     H_    0.665028 0.719554 0.940297 0.134472
H28   H     H_    0.530381 0.667452 0.855417 0.096824
H29   H     H_    0.733416 0.654541 0.754669 0.176730
H30   H     H_    0.699053 0.762044 0.782600 0.084680
H31   H     H_    0.867154 0.708477 0.838807 0.153527
H32   H     H_    0.469612 0.332548 0.144584 0.096826
H33   H     H_    0.334969 0.280448 0.059701 0.134472
H34   H     H_    0.091401 0.364649 0.365932 0.124226
H35   H     H_    0.132836 0.291526 0.161187 0.153529
H36   H     H_    0.300932 0.237955 0.217394 0.084675
H37   H     H_    0.266574 0.345458 0.245329 0.176727
H38   H     H_    0.929714 0.399534 0.216913 0.190412
H39   H     H_    0.889609 0.296802 0.259852 0.076811
H40   H     H_    0.759011 0.382178 0.270396 0.168688
H41   H     H_    0.908599 0.635351 0.634068 0.124226
H42   H     H_    0.082394 0.647774 0.581583 0.123454
N1    N     N_1   0.500050 0.499980 0.276720 -0.192552
N2    N     N_1   0.499950 0.500020 0.723280 -0.192553
O1    O     O_R   0.500070 0.380310 0.575330 -0.497411
O2    O     O_3   0.034274 0.526165 0.622443 -0.544256
O3    O     O_3   0.350832 0.910846 0.625019 -0.548018
O4    O     O_3   0.649167 0.089153 0.374980 -0.548019
O5    O     O_3   0.713322 0.598830 0.108857 -0.505103
O6    O     O_3   0.286677 0.401170 0.891142 -0.505103
O7    O     O_3   0.715437 0.594878 0.922049 -0.505874
O8    O     O_3   0.284561 0.405124 0.077951 -0.505874
O9    O     O_R   0.499930 0.619690 0.424670 -0.497411
O10   O     O_R   0.500000 0.380310 0.424640 -0.512155
O11   O     O_R   0.500000 0.619690 0.575360 -0.512156
O12   O     O_R   0.274870 0.500000 0.557960 -0.467174
O13   O     O_R   0.725130 0.500000 0.442040 -0.467174
O14   O     O_R   0.274790 0.500000 0.407270 -0.482480
O15   O     O_R   0.725210 0.500000 0.592730 -0.482480
O16   O     O_3   0.965726 0.473835 0.377557 -0.544256

loop_
_geom_bond_atom_site_label_1
_geom_bond_atom_site_label_2
_ccdc_geom_bond_type
C1    O1    A    
C22   H6    S    
C29   H21   S    
C8    C13   S    
C34   C37   A    
Cu1   Cu2   S    
C26   H13   S    
C6    C9    A    
C32   H30   S    
C18   H23   S    
C7    C11   S    
Cu1   N2    S    
C16   O7    S    
C38   N2    T    
Cu2   O10   S    
C25   H11   S    
C40   O12   A    
C18   C19   S    
C18   O16   S    
C11   C15   T    
C33   H33   S    
C31   H28   S    
C12   O9    A    
C27   O5    S    
C17   C36   A    
C19   H40   S    
C30   H25   S    
C16   C37   A    
C28   H19   S    
C36   O6    S    
C24   H9    S    
C22   H5    S    
C29   H22   S    
C13   C14   T    
C33   O8    S    
C32   H29   S    
C21   H3    S    
C28   H18   S    
C24   H8    S    
Cu1   O1    S    
C37   O5    S    
Cu2   O9    S    
C32   H31   S    
C5    C7    A    
C6    C8    A    
C17   O8    S    
C2    O15   A    
C25   C26   S    
C31   O7    S    
C35   H35   S    
C34   C39   S    
C2    C4    S    
C29   C30   S    
Cu2   O14   S    
C21   H2    S    
C31   C32   S    
C12   C15   S    
C25   O4    S    
Cu2   N1    S    
C12   O11   A    
C30   H24   S    
C3    O16   S    
C9    H12   S    
C3    C40   S    
C16   C23   A    
C20   H42   S    
Cu1   O11   S    
C17   C34   A    
C39   N1    T    
C3    C4    D    
C21   H4    S    
C24   H7    S    
C7    C9    A    
C18   H34   S    
C10   H1    S    
C27   H16   S    
C26   H14   S    
C40   O14   A    
C4    O2    S    
C23   C38   S    
C35   H36   S    
C2    O13   A    
C25   H10   S    
C5    C10   A    
C27   H17   S    
Cu2   O13   S    
C1    O10   A    
C20   O2    S    
C35   H37   S    
C33   C35   S    
C22   O3    S    
Cu1   O15   S    
C22   C24   S    
C19   H38   S    
C26   H15   S    
C30   H26   S    
C33   H32   S    
C31   H27   S    
C6    O4    S    
C20   C21   S    
C8    C10   A    
C23   C36   A    
C20   H41   S    
C27   C28   S    
Cu1   O12   S    
C1    C14   S    
C19   H39   S    
C29   O6    S    
C5    O3    S    
C28   H20   S    
