data_mof_unit_11814.cif
_audit_creation_date              2012-12-10T17:54:26-0500
_audit_creation_method            fapswitch 2.2
_symmetry_space_group_name_H-M    P1
_symmetry_Int_Tables_number       1
_space_group_crystal_system       triclinic
_cell_length_a                    27.712566
_cell_length_b                    10.58025
_cell_length_c                    9.987331
_cell_angle_alpha                 90.226769
_cell_angle_beta                  89.570986
_cell_angle_gamma                 93.123955
_cell_volume                      2923.89209485

loop_
_atom_site_label
_atom_site_type_symbol
_atom_type_description
_atom_site_fract_x
_atom_site_fract_y
_atom_site_fract_z
_atom_type_partial_charge
C1    C     C_R   0.507343 0.262422 0.501453 0.958546
C2    C     C_R   0.972291 0.417162 0.441626 0.027044
C3    C     C_R   0.976285 0.609543 0.580367 -0.096070
C4    C     C_R   0.406177 0.502561 0.500336 0.993730
C5    C     C_R   0.948898 0.514799 0.509658 0.034328
C6    C     C_R   0.944588 0.332140 0.360493 -0.268397
C7    C     C_R   0.894934 0.338423 0.351928 0.741566
C8    C     C_R   0.871001 0.429069 0.426515 -0.165458
C9    C     C_R   0.897895 0.517147 0.507217 -0.172599
C10   C     C_R   0.873876 0.606916 0.585384 -0.218299
C11   C     C_R   0.822994 0.605100 0.579871 0.720633
C12   C     C_R   0.277931 0.534721 0.386599 0.603117
C13   C     C_R   0.820726 0.434211 0.422639 0.700109
C14   C     C_R   0.720478 0.420937 0.565587 0.631345
C15   C     C_R   0.670403 0.415763 0.564776 0.564780
C16   C     C_R   0.507509 0.739811 0.499775 0.932888
C17   C     C_R   0.672021 0.608714 0.431673 0.306054
C18   C     C_R   0.722606 0.612288 0.430483 0.356840
C19   C     C_R   0.746614 0.518360 0.498318 -0.147262
C20   C     C_R   0.022770 0.408677 0.455057 0.051504
C21   C     C_R   0.050420 0.511770 0.510356 0.093472
C22   C     C_R   0.027253 0.616239 0.565651 0.002856
C23   C     C_R   0.252779 0.513211 0.506948 -0.047994
C24   C     C_R   0.046352 0.299962 0.415552 -0.236313
C25   C     C_R   0.105717 0.728029 0.593231 0.717492
C26   C     C_R   0.951851 0.691968 0.665799 0.553833
C27   C     C_R   0.901534 0.691972 0.667998 0.368503
C28   C     C_R   0.593587 0.502133 0.499495 1.052275
C29   C     C_R   0.055693 0.725954 0.599258 -0.178134
C30   C     C_R   0.524807 0.120259 0.763869 0.297899
C31   C     C_R   0.516790 0.038629 0.872554 0.235574
C32   C     C_R   0.534404 0.918173 0.863617 0.578313
C33   C     C_R   0.547576 0.874244 0.737823 0.318559
C34   C     C_R   0.101497 0.511181 0.509064 -0.177795
C35   C     C_R   0.531784 0.936478 0.623838 -0.230095
C36   C     C_R   0.526297 0.067000 0.632084 -0.102882
C37   C     C_R   0.524012 0.134200 0.508463 -0.221591
C38   C     C_R   0.536968 0.073139 0.389142 0.335797
C39   C     C_R   0.532315 0.941952 0.382715 0.685371
C40   C     C_R   0.175676 0.406040 0.465985 0.679221
C41   C     C_R   0.524053 0.873656 0.501160 -0.250294
C42   C     C_R   0.418944 0.374312 0.130349 0.540419
C43   C     C_R   0.378208 0.342241 0.053159 -0.031134
C44   C     C_R   0.382707 0.332767 0.916386 -0.249125
C45   C     C_R   0.124800 0.402436 0.464462 -0.112340
C46   C     C_R   0.425917 0.371114 0.855923 -0.061827
C47   C     C_R   0.462008 0.440550 0.926544 -0.007078
C48   C     C_R   0.460977 0.439749 0.071017 -0.050084
C49   C     C_R   0.538133 0.547693 0.071183 0.694805
C50   C     C_R   0.538817 0.542923 0.929542 0.673905
C51   C     C_R   0.179576 0.618305 0.549427 0.693993
C52   C     C_R   0.277749 0.491323 0.625300 0.418838
C53   C     C_R   0.327838 0.489988 0.622230 -0.337319
C54   C     C_R   0.328038 0.532646 0.383389 0.542413
C55   C     C_R   0.096306 0.295162 0.420967 0.460534
C56   C     C_R   0.129136 0.619994 0.551819 -0.185342
C57   C     C_R   0.353409 0.508140 0.501392 -0.317673
C58   C     C_R   0.646034 0.509113 0.498192 -0.426531
Cl1   Cl    Cl    0.246898 0.463434 0.777839 -0.450791
Cl2   Cl    Cl    0.119780 0.150157 0.371032 -0.390594
Cl3   Cl    Cl    0.641686 0.732186 0.355741 -0.281561
Cl4   Cl    Cl    0.876076 0.800713 0.779721 -0.292337
Cl5   Cl    Cl    0.756162 0.732832 0.343327 -0.317998
Cl6   Cl    Cl    0.565130 0.157450 0.255379 -0.328320
Cl7   Cl    Cl    0.561136 0.256198 0.807074 -0.362032
Cl8   Cl    Cl    0.491901 0.093396 0.022076 -0.409656
Cl9   Cl    Cl    0.597004 0.778885 0.719839 -0.347492
Cl10  Cl    Cl    0.417792 0.268699 0.264903 -0.542235
F1    F     F_    0.351404 0.557227 0.265694 -0.606169
F2    F     F_    0.743902 0.330484 0.630982 -0.526461
F3    F     F_    0.870646 0.253929 0.270822 -0.545196
F4    F     F_    0.130796 0.837048 0.627702 -0.545492
F5    F     F_    0.976166 0.765107 0.757884 -0.602446
F6    F     F_    0.253587 0.557743 0.272592 -0.558625
F7    F     F_    0.542239 0.850041 0.975324 -0.523874
F8    F     F_    0.537224 0.882363 0.263141 -0.502708
F9    F     F_    0.577570 0.596678 0.136188 -0.503839
F10   F     F_    0.581468 0.568180 0.867356 -0.512035
F11   F     F_    0.645679 0.317842 0.626034 -0.527998
H1    H     H_    0.039874 0.814000 0.624440 0.243590
H2    H     H_    0.345660 0.299766 0.099044 0.210516
H3    H     H_    0.354028 0.285978 0.858497 0.202575
H4    H     H_    0.431240 0.339796 0.755447 0.207526
H5    H     H_    0.960774 0.262293 0.298057 0.192968
H6    H     H_    0.026359 0.214636 0.384349 0.189347
H7    H     H_    0.346600 0.474324 0.714451 0.228697
N1    N     N_R   0.201320 0.512450 0.507921 -0.330653
N2    N     N_R   0.798165 0.520483 0.498988 -0.322249
N3    N     N_R   0.499540 0.498800 0.142780 -0.204619
N4    N     N_R   0.499520 0.498720 0.857170 -0.201786
O1    O     O_R   0.500000 0.316780 0.614690 -0.629219
O2    O     O_R   0.571250 0.499990 0.614680 -0.497412
O3    O     O_R   0.571240 0.499970 0.385350 -0.555421
O4    O     O_2   0.199880 0.305297 0.425934 -0.430564
O5    O     O_2   0.794189 0.353640 0.343805 -0.383758
O6    O     O_2   0.207022 0.721053 0.588285 -0.405840
O7    O     O_2   0.797980 0.686209 0.653924 -0.402699
O8    O     O_R   0.500000 0.316750 0.385360 -0.541375
O9    O     O_R   0.428760 0.500030 0.614650 -0.666114
O10   O     O_R   0.428750 0.500010 0.385320 -0.548792
O11   O     O_R   0.500000 0.683250 0.614640 -0.625656
O12   O     O_R   0.500000 0.683220 0.385310 -0.540359
Zn1   Zn    Zn3+2 0.500000 0.500020 0.653130 1.060756
Zn2   Zn    Zn3+2 0.500000 0.499980 0.346870 1.153481

loop_
_geom_bond_atom_site_label_1
_geom_bond_atom_site_label_2
_ccdc_geom_bond_type
C10   C27   A    
C31   Cl8   S    
O9    Zn1   S    
C34   C56   A    
C8    C13   A    
C22   C29   A    
C12   F6    S    
C35   C36   A    
C25   C56   A    
C32   F7    S    
C7    C8    A    
C39   C41   A    
C31   C32   A    
C24   C55   A    
C54   F1    S    
C12   C23   A    
C26   C27   A    
C13   O5    S    
C40   N1    A    
C36   C37   A    
C52   Cl1   S    
C18   C19   A    
C44   H3    S    
C7    F3    S    
C30   C31   A    
C33   C35   A    
C18   Cl5   S    
O10   Zn2   S    
C26   F5    S    
C51   C56   A    
O2    Zn1   S    
C17   Cl3   S    
C50   N4    A    
C15   F11   S    
C20   C24   A    
C8    C9    A    
C4    C57   S    
C53   H7    S    
C9    C10   A    
C1    C37   S    
C17   C58   A    
C1    O1    A    
C23   N1    S    
C21   C22   A    
C42   Cl10  S    
C14   F2    S    
C2    C6    A    
C50   F10   S    
O3    Zn2   S    
C44   C46   A    
C38   Cl6   S    
C25   C29   A    
C40   C45   A    
C6    H5    S    
C2    C20   A    
C19   N2    S    
C51   N1    A    
C25   F4    S    
C53   C57   A    
C21   C34   A    
C28   O3    A    
C43   C44   A    
C5    C9    A    
C37   C38   A    
C27   Cl4   S    
C47   C48   A    
C11   N2    A    
C17   C18   A    
C28   O2    A    
C34   C45   A    
C42   C48   A    
C39   F8    S    
O12   Zn2   S    
C16   O12   A    
C48   N3    A    
C4    O10   A    
N3    Zn2   S    
C43   H2    S    
C15   C58   A    
C2    C5    A    
C42   C43   A    
C52   C53   A    
C33   Cl9   S    
C24   H6    S    
C46   C47   A    
C49   N3    A    
C14   C19   A    
C3    C26   A    
C40   O4    S    
C3    C5    A    
C1    O8    A    
C6    C7    A    
C28   C58   S    
C51   O6    S    
C30   C36   A    
C11   O7    S    
C32   C33   A    
C23   C52   A    
C38   C39   A    
C29   H1    S    
O8    Zn2   S    
C16   C41   S    
C13   N2    A    
C47   N4    A    
C49   F9    S    
C35   C41   A    
N4    Zn1   S    
C30   Cl7   S    
C10   C11   A    
C46   H4    S    
C16   O11   A    
C20   C21   A    
C45   C55   A    
O11   Zn1   S    
C49   C50   A    
C4    O9    A    
C14   C15   A    
C3    C22   A    
C55   Cl2   S    
O1    Zn1   S    
C12   C54   A    
C54   C57   A    
