data_mof_unit_8597.cif
_audit_creation_date              2012-12-10T18:24:45-0500
_audit_creation_method            fapswitch 2.2
_symmetry_space_group_name_H-M    P1
_symmetry_Int_Tables_number       1
_space_group_crystal_system       triclinic
_cell_length_a                    14.629377
_cell_length_b                    15.851705
_cell_length_c                    17.29112
_cell_angle_alpha                 90.188625
_cell_angle_beta                  84.534376
_cell_angle_gamma                 90.871095
_cell_volume                      3991.12184622

loop_
_atom_site_label
_atom_site_type_symbol
_atom_type_description
_atom_site_fract_x
_atom_site_fract_y
_atom_site_fract_z
_atom_type_partial_charge
C1    C     C_R   0.500609 0.660438 0.500099 0.795139
C2    C     C_R   0.499214 0.339645 0.500584 0.776297
C3    C     C_3   0.422770 0.023152 0.457333 0.287247
C4    C     C_3   0.564839 0.977375 0.536109 0.249001
C5    C     C_3   0.505525 0.971173 0.423760 0.292005
C6    C     C_3   0.481475 0.028062 0.570337 0.240874
C7    C     C_1   0.501782 0.749845 0.499524 -0.179568
C8    C     C_1   0.497040 0.250404 0.499992 -0.174145
C9    C     C_3   0.415173 0.968195 0.531389 0.358773
C10   C     C_3   0.572735 0.031047 0.461660 0.302910
C11   C     C_3   0.498384 0.916502 0.497796 -0.151371
C12   C     C_3   0.489743 0.083837 0.496171 -0.224046
C13   C     C_1   0.501228 0.825205 0.498775 0.137194
C14   C     C_1   0.493702 0.175137 0.498713 0.084850
C15   C     C_3   0.021171 0.449606 0.558634 0.319071
C16   C     C_3   0.978940 0.548069 0.440931 0.320005
C17   C     C_3   0.963454 0.530513 0.567873 0.306675
C18   C     C_3   0.036729 0.467210 0.431716 0.305196
C19   C     C_3   0.967570 0.420168 0.490303 0.253794
C20   C     C_3   0.032509 0.577564 0.509231 0.253677
C21   C     C_3   0.908161 0.501107 0.499574 -0.260049
C22   C     C_3   0.091967 0.496723 0.500047 -0.260984
C23   C     C_R   0.486870 0.500598 0.650457 0.859095
C24   C     C_R   0.513045 0.500679 0.349880 0.886590
C25   C     C_1   0.805734 0.500803 0.499803 0.361386
C26   C     C_1   0.194313 0.498187 0.500029 0.349708
C27   C     C_R   0.476541 0.505335 0.735439 -0.297548
C28   C     C_R   0.523102 0.507848 0.265705 -0.287654
C29   C     C_R   0.543858 0.470948 0.779021 0.348841
C30   C     C_R   0.471906 0.454636 0.220090 0.350384
C31   C     C_R   0.541276 0.487938 0.859234 0.374095
C32   C     C_R   0.471295 0.470843 0.140180 0.377874
C33   C     C_R   0.466274 0.533616 0.896391 -0.150135
C34   C     C_R   0.524195 0.539940 0.106359 -0.163178
C35   C     C_R   0.396213 0.560356 0.853070 -0.313977
C36   C     C_R   0.580369 0.587168 0.152028 -0.313633
C37   C     C_R   0.402421 0.549871 0.773037 0.429684
C38   C     C_R   0.578211 0.573411 0.231499 0.418672
C39   C     C_2   0.454064 0.550144 0.981293 0.385982
C40   C     C_2   0.527072 0.563423 0.022959 0.390707
Cu1   Cu    Cu3+1 0.409780 0.500000 0.499990 1.021195
Cu2   Cu    Cu3+1 0.590220 0.500000 0.500010 1.034276
H1    H     H_    0.337608 0.593437 0.880775 0.199819
H2    H     H_    0.623551 0.638033 0.126873 0.203905
N1    N     N_1   0.725810 0.500000 0.500030 -0.154801
N2    N     N_1   0.274190 0.500000 0.499970 -0.156054
O1    O     O_R   0.423830 0.620920 0.499990 -0.569016
O2    O     O_R   0.576170 0.379080 0.500010 -0.570324
O3    O     O_R   0.576200 0.620920 0.500000 -0.564682
O4    O     O_R   0.423800 0.379080 0.500000 -0.582806
O5    O     O_R   0.414980 0.500010 0.613590 -0.537034
O6    O     O_R   0.585020 0.499990 0.386410 -0.549907
O7    O     O_R   0.567350 0.500010 0.613600 -0.540751
O8    O     O_R   0.432650 0.499990 0.386400 -0.556876
O9    O     O_3   0.617067 0.426925 0.742776 -0.538408
C41   C     C_3   0.586729 0.344545 0.724973 -0.307558
H3    H     H_    0.548134 0.313132 0.775899 0.120149
H4    H     H_    0.647767 0.305768 0.707493 0.187406
H5    H     H_    0.543767 0.344675 0.675434 0.165930
O10   O     O_3   0.415889 0.390900 0.253834 -0.535772
C42   C     C_3   0.470815 0.323409 0.274555 -0.368458
H6    H     H_    0.530189 0.311152 0.230765 0.135436
H7    H     H_    0.427793 0.265136 0.278578 0.174075
H8    H     H_    0.495643 0.334426 0.332374 0.166205
O11   O     O_3   0.048734 0.399477 0.619432 -0.579157
C43   C     C_3   0.971424 0.359563 0.659697 -0.273036
H9    H     H_    0.950341 0.302667 0.628129 0.178368
H10   H     H_    0.911707 0.401944 0.670911 0.199181
H11   H     H_    0.990676 0.338431 0.716956 0.173273
O12   O     O_3   0.951166 0.597964 0.380063 -0.573211
C44   C     C_3   0.028222 0.638557 0.340142 -0.265348
H12   H     H_    0.088352 0.596629 0.329007 0.190547
H13   H     H_    0.048425 0.695540 0.372033 0.181758
H14   H     H_    0.009062 0.659653 0.282836 0.172349
O13   O     O_3   0.074704 0.657332 0.517961 -0.607489
C45   C     C_3   0.007896 0.720084 0.532997 0.071942
H15   H     H_    0.972801 0.712711 0.592393 0.183413
H16   H     H_    0.955386 0.717683 0.490457 0.175654
C46   C     C_3   0.056088 0.806416 0.527908 -0.321945
H17   H     H_    0.108849 0.809248 0.570120 0.237826
H18   H     H_    0.091237 0.815428 0.468573 0.228769
C47   C     C_3   0.988405 0.877680 0.545687 -0.965243
H19   H     H_    0.936824 0.877931 0.502515 0.258514
H20   H     H_    0.026041 0.939111 0.542836 0.261609
H21   H     H_    0.952765 0.870160 0.604973 0.262104
O14   O     O_3   0.924640 0.340863 0.481073 -0.607680
C48   C     C_3   0.990476 0.277010 0.467717 0.063862
H22   H     H_    0.040234 0.277620 0.512516 0.172123
H23   H     H_    0.029059 0.284524 0.409654 0.180879
C49   C     C_3   0.939821 0.191840 0.469857 -0.323148
H24   H     H_    0.896527 0.185340 0.525930 0.223917
H25   H     H_    0.893981 0.189159 0.422150 0.232573
C50   C     C_3   0.005990 0.118326 0.460998 -0.957136
H26   H     H_    0.051327 0.124125 0.405915 0.262601
H27   H     H_    0.966251 0.058170 0.459797 0.261809
H28   H     H_    0.048413 0.116747 0.510915 0.252671
O15   O     O_3   0.630498 0.624210 0.276057 -0.549182
C51   C     C_3   0.584978 0.701328 0.290541 -0.252194
H29   H     H_    0.623680 0.739541 0.330682 0.200005
H30   H     H_    0.514227 0.691231 0.319240 0.141832
H31   H     H_    0.582866 0.738292 0.236179 0.147950
O16   O     O_3   0.334433 0.582360 0.731852 -0.543941
C52   C     C_3   0.354016 0.668632 0.717497 -0.262155
H32   H     H_    0.301830 0.693714 0.681455 0.200549
H33   H     H_    0.422514 0.678085 0.684408 0.139923
H34   H     H_    0.349987 0.705579 0.772521 0.136989
O17   O     O_3   0.608773 0.598187 0.988273 -0.573211
C53   C     C_3   0.594415 0.682441 0.966082 0.025849
H35   H     H_    0.561711 0.719557 0.015938 0.108954
H36   H     H_    0.550148 0.684311 0.917256 0.140369
C54   C     C_3   0.686956 0.723532 0.938935 -0.277402
H37   H     H_    0.731450 0.724082 0.987595 0.214159
H38   H     H_    0.721211 0.686067 0.890310 0.240505
C55   C     C_3   0.675390 0.813837 0.911462 -0.944380
H39   H     H_    0.633080 0.814428 0.861419 0.255839
H40   H     H_    0.743798 0.842111 0.892733 0.258910
H41   H     H_    0.641865 0.852737 0.959325 0.256503
O18   O     O_3   0.364715 0.547316 0.017028 -0.572047
C56   C     C_3   0.340647 0.627240 0.048654 0.029461
H42   H     H_    0.349520 0.676943 0.002967 0.109858
H43   H     H_    0.383183 0.644289 0.096543 0.136867
C57   C     C_3   0.240093 0.623918 0.081840 -0.272224
H44   H     H_    0.196078 0.609053 0.034464 0.215886
H45   H     H_    0.230222 0.573081 0.126142 0.242487
C58   C     C_3   0.210510 0.707600 0.119497 -0.950886
H46   H     H_    0.252469 0.722764 0.168133 0.259903
H47   H     H_    0.137239 0.702988 0.142891 0.254192
H48   H     H_    0.218493 0.759255 0.076008 0.257370
O19   O     O_3   0.409613 0.427106 0.098275 -0.541972
C59   C     C_3   0.439211 0.344342 0.080788 0.080738
H49   H     H_    0.421415 0.302546 0.131359 0.182361
H50   H     H_    0.514300 0.342148 0.064051 0.110737
C60   C     C_3   0.387850 0.310594 0.013851 -0.301019
H51   H     H_    0.312746 0.311615 0.031324 0.236978
H52   H     H_    0.402125 0.352027 0.962278 0.219726
C61   C     C_3   0.415176 0.220389 0.992071 -0.976961
H53   H     H_    0.489490 0.217584 0.972388 0.253710
H54   H     H_    0.375827 0.197889 0.943983 0.263714
H55   H     H_    0.399670 0.177823 0.042658 0.266429
O20   O     O_3   0.618162 0.472630 0.897932 -0.544466
C62   C     C_3   0.628989 0.385884 0.911660 0.082114
H56   H     H_    0.664822 0.355705 0.859643 0.186571
H57   H     H_    0.562211 0.353053 0.927208 0.109341
C63   C     C_3   0.690260 0.376541 0.977928 -0.304085
H58   H     H_    0.757493 0.408444 0.961546 0.237474
H59   H     H_    0.658138 0.407845 0.031089 0.222286
C64   C     C_3   0.706954 0.284043 0.995487 -0.975389
H60   H     H_    0.641261 0.250902 0.014181 0.253307
H61   H     H_    0.752567 0.279965 0.043073 0.264917
H62   H     H_    0.740592 0.252148 0.943235 0.260790
O21   O     O_3   0.517066 0.935107 0.348734 -0.609124
C65   C     C_3   0.528315 0.998452 0.290955 0.120788
H63   H     H_    0.598445 0.993354 0.260610 0.145897
H64   H     H_    0.521760 0.064235 0.313612 0.141901
C66   C     C_3   0.458256 0.983545 0.231984 -0.328579
H65   H     H_    0.470160 0.920994 0.203852 0.213267
H66   H     H_    0.387822 0.983186 0.262336 0.248110
C67   C     C_3   0.465319 0.051949 0.169661 -0.974419
H67   H     H_    0.450738 0.114768 0.196359 0.247472
H68   H     H_    0.414379 0.038640 0.127366 0.261607
H69   H     H_    0.535090 0.053201 0.138065 0.262272
O22   O     O_3   0.468369 0.064314 0.645244 -0.611906
C68   C     C_3   0.452319 0.000536 0.701963 0.071179
H70   H     H_    0.500973 0.947353 0.691667 0.166050
H71   H     H_    0.380959 0.975612 0.702203 0.182818
C69   C     C_3   0.463876 0.038571 0.781881 -0.349931
H72   H     H_    0.534208 0.065967 0.782336 0.215215
H73   H     H_    0.413744 0.090075 0.793997 0.226253
C70   C     C_3   0.448670 0.972310 0.845841 -0.940106
H74   H     H_    0.378188 0.944897 0.847355 0.254333
H75   H     H_    0.457202 0.002083 0.902988 0.263067
H76   H     H_    0.499481 0.921116 0.835831 0.256033
O23   O     O_3   0.345239 0.035156 0.415646 -0.594477
C71   C     C_3   0.338853 0.118766 0.389236 0.062085
H77   H     H_    0.307749 0.115752 0.333120 0.164760
H78   H     H_    0.406487 0.150877 0.376053 0.117417
C72   C     C_3   0.275075 0.169416 0.446857 -0.405492
H79   H     H_    0.208498 0.135097 0.457763 0.221625
H80   H     H_    0.305257 0.175627 0.503115 0.226240
C73   C     C_3   0.257557 0.257111 0.415755 -0.803709
H81   H     H_    0.323207 0.292633 0.403579 0.281219
H82   H     H_    0.212884 0.292583 0.459634 0.252620
H83   H     H_    0.222638 0.252183 0.361585 0.254362
O24   O     O_3   0.638483 0.947654 0.575132 -0.609416
C74   C     C_3   0.681801 0.015706 0.610898 0.084762
H84   H     H_    0.639749 0.034711 0.664694 0.171969
H85   H     H_    0.692687 0.071548 0.571922 0.176791
C75   C     C_3   0.775320 0.987491 0.632698 -0.352290
H86   H     H_    0.766670 0.929349 0.668600 0.234516
H87   H     H_    0.819921 0.972958 0.578889 0.222900
C76   C     C_3   0.821912 0.055774 0.678173 -0.938676
H88   H     H_    0.830404 0.114922 0.643896 0.253255
H89   H     H_    0.890780 0.034218 0.690866 0.261394
H90   H     H_    0.780354 0.068666 0.734007 0.254920
O25   O     O_3   0.652078 0.070199 0.423882 -0.579134
C77   C     C_3   0.718792 0.009085 0.402336 -0.295315
H91   H     H_    0.690810 0.955009 0.370499 0.179823
H92   H     H_    0.750660 0.985946 0.453717 0.190398
H93   H     H_    0.774127 0.039098 0.362986 0.172113
O26   O     O_3   0.336072 0.927726 0.568174 -0.574493
C78   C     C_3   0.264190 0.985794 0.581088 -0.289484
H94   H     H_    0.228652 0.993180 0.527681 0.211716
H95   H     H_    0.287659 0.048313 0.601910 0.165348
H96   H     H_    0.213005 0.959988 0.626695 0.165015
O27   O     O_3   0.919650 0.564298 0.637221 -0.579525
C79   C     C_3   0.984279 0.578262 0.691724 -0.252811
H97   H     H_    0.050130 0.606526 0.665601 0.183245
H98   H     H_    0.997946 0.518904 0.721985 0.199157
H99   H     H_    0.954666 0.623084 0.736356 0.169035
O28   O     O_3   0.081038 0.433360 0.362607 -0.579946
C80   C     C_3   0.016800 0.418924 0.307917 -0.268119
H100  H     H_    0.001782 0.478376 0.278367 0.197748
H101  H     H_    0.951659 0.389114 0.333736 0.181387
H102  H     H_    0.047475 0.375203 0.262777 0.173106

loop_
_geom_bond_atom_site_label_1
_geom_bond_atom_site_label_2
_ccdc_geom_bond_type
C24   O6    A    
C7    C13   T    
C43   H10   S    
C48   H22   S    
C67   H68   S    
C16   C21   S    
C66   H66   S    
C78   H95   S    
Cu1   Cu2   S    
C68   H70   S    
C45   C46   S    
C64   H60   S    
O9    C41   S    
C19   O14   S    
C6    C9    S    
O15   C51   S    
C74   H84   S    
O27   C79   S    
O24   C74   S    
O11   C43   S    
C15   C19   S    
C68   H71   S    
C33   C39   S    
C49   C50   S    
C75   C76   S    
C34   C40   S    
C53   C54   S    
C18   O28   S    
C45   H16   S    
C5    C11   S    
C62   H57   S    
Cu2   O7    S    
C6    C12   S    
C37   O16   S    
C79   H98   S    
C74   H85   S    
C43   H11   S    
C27   C29   A    
C24   O8    A    
C15   O11   S    
C17   C20   S    
C53   H35   S    
C75   H87   S    
C18   C19   S    
C78   H94   S    
C42   H7    S    
O18   C56   S    
C3    C12   S    
C2    O4    A    
C67   H69   S    
C33   C35   A    
C71   H77   S    
C49   H25   S    
C3    O23   S    
C15   C22   S    
C6    O22   S    
C53   H36   S    
O26   C78   S    
C72   H80   S    
C30   O10   S    
C60   C61   S    
O21   C65   S    
C31   C33   A    
O12   C44   S    
C23   C27   S    
C52   H34   S    
C35   H1    S    
C9    O26   S    
C16   C20   S    
C43   H9    S    
C50   H27   S    
C1    C7    S    
C66   C67   S    
C69   H73   S    
C70   H75   S    
C69   H72   S    
C42   H6    S    
C63   C64   S    
C32   O19   S    
C73   H82   S    
C23   O7    A    
C56   H43   S    
C64   H61   S    
C76   H88   S    
C55   H41   S    
C70   H74   S    
C64   H62   S    
C16   O12   S    
C45   H15   S    
C63   H59   S    
C62   C63   S    
C39   C40   D    
C46   H18   S    
C79   H97   S    
C1    O1    A    
C74   C75   S    
C29   O9    S    
C2    O2    A    
O23   C71   S    
C39   O18   S    
C17   C21   S    
O25   C77   S    
C20   O13   S    
C52   H33   S    
O10   C42   S    
Cu2   N1    S    
C32   C34   A    
C42   H8    S    
C59   H50   S    
O13   C45   S    
C76   H89   S    
C3    C9    S    
C58   H48   S    
C60   H51   S    
C23   O5    A    
C80   H100  S    
C65   C66   S    
C28   C38   A    
Cu1   N2    S    
C72   C73   S    
C68   C69   S    
Cu1   O1    S    
C54   H38   S    
C50   H26   S    
Cu2   O2    S    
O20   C62   S    
C4    C11   S    
C58   H47   S    
C9    C11   S    
C71   C72   S    
C44   H14   S    
C10   C12   S    
C72   H79   S    
C40   O17   S    
C4    C6    S    
C80   H101  S    
C12   C14   S    
C47   H19   S    
C50   H28   S    
C47   H20   S    
C48   H23   S    
C58   H46   S    
C78   H96   S    
C36   H2    S    
C59   C60   S    
C38   O15   S    
C41   H3    S    
O17   C53   S    
C4    C10   S    
C51   H31   S    
C25   N1    T    
Cu1   O4    S    
C66   H65   S    
C73   H81   S    
O14   C48   S    
C61   H54   S    
C44   H13   S    
O19   C59   S    
C65   H64   S    
C56   C57   S    
C35   C37   A    
C15   C17   S    
C21   C25   S    
C8    C14   T    
C54   H37   S    
C77   H93   S    
C18   C22   S    
C2    C8    S    
C24   C28   S    
C20   C22   S    
C77   H91   S    
C3    C5    S    
C46   C47   S    
C55   H40   S    
C56   H42   S    
C73   H83   S    
C28   C30   A    
C55   H39   S    
O22   C68   S    
C47   H21   S    
C51   H30   S    
C5    O21   S    
C41   H5    S    
C63   H58   S    
C57   C58   S    
C36   C38   A    
C59   H49   S    
C57   H44   S    
C76   H90   S    
C5    C10   S    
C29   C31   A    
C62   H56   S    
C61   H55   S    
C30   C32   A    
C11   C13   S    
C79   H99   S    
C49   H24   S    
C67   H67   S    
C1    O3    A    
C27   C37   A    
C17   O27   S    
C70   H76   S    
C41   H4    S    
C54   C55   S    
C34   C36   A    
O28   C80   S    
O16   C52   S    
C71   H78   S    
Cu1   O8    S    
C4    O24   S    
C77   H92   S    
C26   N2    T    
Cu2   O3    S    
C46   H17   S    
C44   H12   S    
C80   H102  S    
C65   H63   S    
C69   C70   S    
C16   C18   S    
C51   H29   S    
C22   C26   S    
C48   C49   S    
C52   H32   S    
C60   H52   S    
C61   H53   S    
C31   O20   S    
C10   O25   S    
C57   H45   S    
Cu1   O5    S    
C75   H86   S    
Cu2   O6    S    
C19   C21   S    
