data_mof_unit_67626.cif
_audit_creation_date              2012-12-10T18:19:58-0500
_audit_creation_method            fapswitch 2.2
_symmetry_space_group_name_H-M    P1
_symmetry_Int_Tables_number       1
_space_group_crystal_system       triclinic
_cell_length_a                    10.940781
_cell_length_b                    10.995475
_cell_length_c                    9.609527
_cell_angle_alpha                 91.112667
_cell_angle_beta                  91.86283
_cell_angle_gamma                 91.12533
_cell_volume                      1154.95079894

loop_
_atom_site_label
_atom_site_type_symbol
_atom_type_description
_atom_site_fract_x
_atom_site_fract_y
_atom_site_fract_z
_atom_type_partial_charge
C1    C     C_R   0.514958 0.260999 0.499328 0.850030
C2    C     C_R   0.489446 0.740093 0.500869 0.836924
C3    C     C_3   0.423713 0.975283 0.599506 0.365411
C4    C     C_3   0.586412 0.027705 0.403292 0.357764
C5    C     C_3   0.581848 0.573653 0.054791 0.260451
C6    C     C_3   0.419558 0.425611 0.944929 0.277840
C7    C     C_3   0.477194 0.605322 0.952006 0.211758
C8    C     C_3   0.522795 0.394494 0.047653 0.229853
C9    C     C_3   0.604710 0.468029 0.953038 0.251768
C10   C     C_3   0.395615 0.531011 0.045695 0.202807
C11   C     C_R   0.259763 0.484345 0.497750 0.888434
C12   C     C_R   0.739321 0.517694 0.502951 0.891216
C13   C     C_3   0.029956 0.418105 0.597888 0.242519
C14   C     C_3   0.967633 0.584100 0.408181 0.240231
C15   C     C_3   0.934941 0.401079 0.476472 0.131799
C16   C     C_3   0.062697 0.600694 0.530289 0.126082
C17   C     C_3   0.878192 0.524219 0.509348 -0.312257
C18   C     C_3   0.119834 0.477328 0.495128 -0.325043
C19   C     C_3   0.973335 0.541325 0.631512 0.257650
C20   C     C_3   0.023211 0.460268 0.373075 0.245671
C21   C     C_3   0.547695 0.042732 0.626086 -0.004648
C22   C     C_3   0.463248 0.960194 0.374960 0.004270
C23   C     C_3   0.609901 0.947674 0.531432 -0.000726
C24   C     C_3   0.400602 0.054330 0.469694 -0.019475
C25   C     C_3   0.486644 0.878981 0.503158 -0.167559
C26   C     C_3   0.522586 0.122658 0.497489 -0.174675
Cu1   Cu    Cu3+1 0.500030 0.499990 0.643150 1.085241
Cu2   Cu    Cu3+1 0.499970 0.500010 0.356850 1.079825
N1    N     N_3   0.500090 0.499970 0.858290 -0.278958
N2    N     N_3   0.499910 0.500030 0.141710 -0.279327
O1    O     O_R   0.500060 0.316850 0.620870 -0.584808
O2    O     O_R   0.499940 0.683150 0.379130 -0.583532
O3    O     O_R   0.500000 0.316860 0.379090 -0.529945
O4    O     O_R   0.500000 0.683140 0.620910 -0.529789
O5    O     O_R   0.316880 0.499960 0.620870 -0.500358
O6    O     O_R   0.683120 0.500040 0.379130 -0.499450
O7    O     O_R   0.316830 0.499970 0.379090 -0.550822
O8    O     O_R   0.683170 0.500030 0.620910 -0.543247
Br1   Br    Br    0.826774 0.260810 0.450393 -0.481092
Br2   Br    Br    0.168140 0.740946 0.569776 -0.484546
Br3   Br    Br    0.038971 0.287600 0.729210 -0.349485
Br4   Br    Br    0.955733 0.721723 0.287847 -0.392937
Br5   Br    Br    0.958871 0.609101 0.818145 -0.274225
Br6   Br    Br    0.014754 0.384144 0.188675 -0.236391
C27   C     C_3   0.725292 0.873990 0.559498 -0.362155
C28   C     C_3   0.838942 0.954847 0.584132 -0.354298
C29   C     C_3   0.928786 0.898117 0.685456 -0.692068
H1    H     H_    0.889876 0.888000 0.789483 0.267262
H2    H     H_    0.947597 0.806733 0.644826 0.299351
H3    H     H_    0.014410 0.953802 0.695010 0.298695
H4    H     H_    0.883452 0.963515 0.483544 0.281851
H5    H     H_    0.816425 0.046698 0.622501 0.267684
H6    H     H_    0.710425 0.812575 0.647792 0.208963
H7    H     H_    0.739386 0.812943 0.468106 0.230009
C30   C     C_3   0.285081 0.127095 0.439859 -0.367570
C31   C     C_3   0.178655 0.047960 0.385584 -0.380499
C32   C     C_3   0.060937 0.113290 0.398378 -0.684204
H8    H     H_    0.989768 0.069702 0.328096 0.295457
H9    H     H_    0.033435 0.111245 0.508014 0.286875
H10   H     H_    0.074108 0.208517 0.368370 0.285917
H11   H     H_    0.189762 0.031205 0.273904 0.254249
H12   H     H_    0.172308 0.962306 0.442876 0.290400
H13   H     H_    0.261300 0.176461 0.537085 0.248641
H14   H     H_    0.303544 0.195951 0.359776 0.218230
C33   C     C_3   0.601400 0.103603 0.760936 -0.309063
C34   C     C_3   0.655158 0.016585 0.869221 -0.309887
C35   C     C_3   0.776908 0.064995 0.934084 -0.621631
H15   H     H_    0.841892 0.092191 0.853851 0.258496
H16   H     H_    0.762778 0.145791 0.001404 0.330345
H17   H     H_    0.820036 0.993311 0.997677 0.277277
H18   H     H_    0.589166 0.003528 0.953138 0.286014
H19   H     H_    0.669856 0.925722 0.824072 0.253167
H20   H     H_    0.672500 0.170304 0.730041 0.235266
H21   H     H_    0.528670 0.156623 0.809620 0.263298
C36   C     C_3   0.420937 0.933552 0.223417 -0.330444
C37   C     C_3   0.316119 0.839704 0.207722 -0.345051
C38   C     C_3   0.222887 0.867897 0.088980 -0.587973
H22   H     H_    0.128532 0.855921 0.125594 0.269974
H23   H     H_    0.232022 0.962222 0.051046 0.261865
H24   H     H_    0.231466 0.805599 0.998420 0.321134
H25   H     H_    0.358518 0.751612 0.187436 0.274630
H26   H     H_    0.267987 0.829069 0.306207 0.246624
H27   H     H_    0.395150 0.021384 0.177441 0.245113
H28   H     H_    0.499235 0.899734 0.164596 0.263107
Br7   Br    Br    0.299497 0.978724 0.739304 -0.424807
Br8   Br    Br    0.712332 0.029487 0.266432 -0.471876
Br9   Br    Br    0.458552 0.768803 0.894104 -0.470292
Br10  Br    Br    0.541116 0.230544 0.105524 -0.453924
Br11  Br    Br    0.690555 0.699147 0.128966 -0.348405
Br12  Br    Br    0.311605 0.300288 0.868400 -0.320687
Br13  Br    Br    0.753897 0.394823 0.895834 -0.306673
Br14  Br    Br    0.229463 0.562699 0.089200 -0.312637

loop_
_geom_bond_atom_site_label_1
_geom_bond_atom_site_label_2
_ccdc_geom_bond_type
C7    C10   S    
C30   C31   S    
C11   C18   S    
C7    N1    S    
C3    Br7   S    
C21   C26   S    
C9    Br13  S    
C13   Br3   S    
C1    O3    A    
C29   H2    S    
C38   H22   S    
C24   C30   S    
C13   C18   S    
C23   C27   S    
C24   C26   S    
C36   H28   S    
C32   H9    S    
C4    Br8   S    
Cu1   O8    S    
C28   H5    S    
C1    O1    A    
C33   H20   S    
C31   C32   S    
C2    O2    A    
C11   O7    A    
C11   O5    A    
C7    Br9   S    
C29   H1    S    
C8    C9    S    
C22   C25   S    
C30   H13   S    
C12   C17   S    
C14   C16   S    
C12   O6    A    
C18   C20   S    
C9    N1    S    
C14   Br4   S    
C2    O4    A    
C34   C35   S    
C10   Br14  S    
C14   C17   S    
C3    C24   S    
C22   C36   S    
C20   Br6   S    
C19   Br5   S    
C29   H3    S    
C38   H23   S    
Cu1   O4    S    
C15   C20   S    
C34   H19   S    
C13   C19   S    
Cu1   O1    S    
C35   H15   S    
C14   C20   S    
Cu2   O2    S    
C37   C38   S    
C37   H26   S    
C5    C7    S    
C4    C23   S    
C32   H10   S    
C6    C8    S    
Cu1   O5    S    
C6    Br12  S    
C28   H4    S    
C33   H21   S    
C8    Br10  S    
C36   C37   S    
C5    C9    S    
C4    C22   S    
C10   N2    S    
C34   H18   S    
C3    C25   S    
C30   H14   S    
C15   Br1   S    
C16   Br2   S    
C27   H7    S    
C13   C15   S    
C1    C26   S    
C22   C24   S    
C3    C21   S    
C5    N2    S    
C38   H24   S    
C15   C17   S    
C28   C29   S    
C21   C33   S    
C37   H25   S    
Cu2   O3    S    
C4    C26   S    
C35   H17   S    
C8    N2    S    
C21   C23   S    
C36   H27   S    
C32   H8    S    
Cu1   N1    S    
Cu2   O7    S    
C16   C19   S    
Cu2   N2    S    
C17   C19   S    
C2    C25   S    
C31   H12   S    
C23   C25   S    
C12   O8    A    
C6    C10   S    
C27   H6    S    
C27   C28   S    
C6    N1    S    
Cu2   O6    S    
C16   C18   S    
C33   C34   S    
Cu1   Cu2   S    
C31   H11   S    
C35   H16   S    
C5    Br11  S    
