data_mof_unit_20480.cif
_audit_creation_date              2012-12-11T14:42:22-0500
_audit_creation_method            fapswitch 2.2
_symmetry_space_group_name_H-M    P1
_symmetry_Int_Tables_number       1
_space_group_crystal_system       triclinic
_cell_length_a                    18.874636
_cell_length_b                    11.006221
_cell_length_c                    18.785979
_cell_angle_alpha                 89.923364
_cell_angle_beta                  90.425224
_cell_angle_gamma                 89.91262
_cell_volume                      3902.45393979

loop_
_atom_site_label
_atom_site_type_symbol
_atom_type_description
_atom_site_fract_x
_atom_site_fract_y
_atom_site_fract_z
_atom_type_partial_charge
C1    C     C_R   0.728158 0.952364 0.852612 0.565486
C2    C     C_R   0.251351 0.393916 0.919550 0.026027
C3    C     C_3   0.952770 0.117743 0.617127 -0.358942
C4    C     C_1   0.608436 0.442988 0.943819 0.250372
C5    C     C_1   0.392248 0.439858 0.055939 0.247790
C6    C     C_1   0.107642 0.939785 0.944053 0.247249
C7    C     C_1   0.891414 0.943218 0.056204 0.251120
C8    C     C_3   0.909959 0.260900 0.058486 0.009440
C9    C     C_3   0.965437 0.255666 0.117895 -0.332195
C10   C     C_3   0.088564 0.254825 0.949396 0.002940
C11   C     C_3   0.029754 0.263543 0.893553 -0.331328
C12   C     C_3   0.411812 0.755121 0.050649 0.003071
C13   C     C_R   0.248760 0.894151 0.080439 0.025830
C14   C     C_3   0.470668 0.763457 0.106436 -0.331746
C15   C     C_3   0.590480 0.760327 0.941640 0.009251
C16   C     C_3   0.535003 0.755479 0.882235 -0.331978
C17   C     C_R   0.752161 0.893654 0.918940 0.026366
C18   C     C_R   0.790819 0.304858 0.048431 0.263707
C19   C     C_R   0.207726 0.306428 0.952940 0.264933
C20   C     C_R   0.292558 0.806731 0.047122 0.265037
C21   C     C_R   0.709518 0.804492 0.951623 0.263699
C22   C     C_R   0.779211 0.276105 0.976952 -0.140186
C23   C     C_R   0.220800 0.275871 0.023941 -0.140391
C24   C     C_R   0.279512 0.776185 0.976164 -0.140359
C25   C     C_R   0.272099 0.952716 0.147074 0.560334
C26   C     C_R   0.721156 0.775727 0.023143 -0.140258
C27   C     C_R   0.725070 0.332715 0.937764 -0.034254
C28   C     C_R   0.275379 0.331460 0.062504 -0.033868
C29   C     C_R   0.224769 0.831646 0.937553 -0.033615
C30   C     C_R   0.775095 0.832524 0.062291 -0.034530
C31   C     C_R   0.518331 0.278860 0.530492 -0.108512
C32   C     C_R   0.518008 0.275157 0.458207 -0.123244
C33   C     C_R   0.018319 0.778865 0.530496 -0.108649
C34   C     C_R   0.017995 0.775161 0.458211 -0.123146
C35   C     C_R   0.502884 0.166248 0.423681 0.033703
C36   C     C_R   0.227913 0.452656 0.852909 0.561221
C37   C     C_R   0.511164 0.171447 0.569969 0.049141
C38   C     C_R   0.002876 0.666250 0.423684 0.033938
C39   C     C_R   0.011155 0.671451 0.569972 0.048813
C40   C     C_R   0.497840 0.057115 0.462045 -0.143396
C41   C     C_R   0.501942 0.059797 0.535636 -0.148315
C42   C     C_R   0.997827 0.557117 0.462048 -0.143334
C43   C     C_R   0.001928 0.559801 0.535639 -0.148356
C44   C     C_R   0.815007 0.393258 0.543548 -0.159348
C45   C     C_R   0.184848 0.406609 0.454926 -0.164225
C46   C     C_R   0.315013 0.893333 0.543559 -0.159432
C47   C     C_R   0.771857 0.452426 0.147372 0.564541
C48   C     C_R   0.684841 0.906556 0.454929 -0.164158
C49   C     C_R   0.819700 0.399929 0.470799 -0.184176
C50   C     C_R   0.178729 0.415429 0.527616 -0.186821
C51   C     C_R   0.319715 0.900007 0.470810 -0.184205
C52   C     C_R   0.678730 0.915366 0.527620 -0.186804
C53   C     C_R   0.528942 0.178371 0.850059 0.549496
C54   C     C_R   0.469555 0.177727 0.148943 0.545979
C55   C     C_R   0.030432 0.677705 0.851050 0.548544
C56   C     C_R   0.971046 0.678380 0.149932 0.546821
C57   C     C_R   0.760644 0.433764 0.429121 0.053811
C58   C     C_R   0.687792 0.437059 0.045336 -0.195366
C59   C     C_R   0.238812 0.435380 0.570842 0.051451
C60   C     C_R   0.260651 0.933775 0.429122 0.053590
C61   C     C_R   0.738811 0.935398 0.570836 0.051669
C62   C     C_R   0.696221 0.465058 0.461766 0.252997
C63   C     C_R   0.305661 0.452520 0.540036 0.252896
C64   C     C_R   0.196215 0.965006 0.461756 0.252891
C65   C     C_R   0.805649 0.952635 0.540015 0.253042
C66   C     C_R   0.691246 0.451501 0.535861 -0.129550
C67   C     C_R   0.311764 0.436680 0.466338 -0.128087
C68   C     C_R   0.191232 0.951453 0.535849 -0.129465
C69   C     C_R   0.312312 0.435161 0.954617 -0.195003
C70   C     C_R   0.811744 0.936783 0.466315 -0.128186
C71   C     C_R   0.750046 0.412772 0.576134 -0.004932
C72   C     C_R   0.251575 0.411372 0.424326 -0.008055
C73   C     C_R   0.250039 0.912781 0.576133 -0.004924
C74   C     C_R   0.751561 0.911393 0.424317 -0.008071
C75   C     C_R   0.723194 0.311224 0.860085 0.566098
C76   C     C_R   0.277028 0.310743 0.140156 0.564864
C77   C     C_R   0.223035 0.810744 0.859931 0.565154
C78   C     C_R   0.776872 0.811221 0.140003 0.565803
C79   C     C_R   0.726424 0.959019 0.645758 0.586016
C80   C     C_R   0.187704 0.935365 0.045327 -0.195038
C81   C     C_R   0.273422 0.958595 0.354223 0.583037
C82   C     C_R   0.226426 0.459011 0.645762 0.586091
C83   C     C_R   0.773420 0.458592 0.354222 0.582975
C84   C     C_R   0.531220 0.176787 0.643706 0.556600
C85   C     C_R   0.471768 0.175714 0.354075 0.552341
C86   C     C_R   0.031217 0.676788 0.643707 0.556844
C87   C     C_R   0.971767 0.675714 0.354076 0.552032
C88   C     C_R   0.739624 0.363814 0.646876 0.564349
C89   C     C_R   0.260718 0.363036 0.353389 0.563754
C90   C     C_R   0.239622 0.863814 0.646875 0.564205
C91   C     C_R   0.812223 0.936891 0.954612 -0.195346
C92   C     C_R   0.760714 0.863044 0.353385 0.563905
C93   C     C_2   0.493235 0.174486 0.918701 -0.102482
C94   C     C_2   0.499110 0.167517 0.077535 -0.102646
C95   C     C_2   0.000908 0.667387 0.922466 -0.102534
C96   C     C_2   0.006742 0.674561 0.081279 -0.102720
C97   C     C_2   0.474456 0.080033 0.034151 -0.179085
C98   C     C_2   0.491899 0.074202 0.958381 -0.176177
C99   C     C_2   0.008411 0.574237 0.041789 -0.175841
C100  C     C_2   0.025869 0.580067 0.966013 -0.179514
C101  C     C_R   0.674763 0.404377 0.974690 -0.029943
C102  C     C_R   0.747970 0.393900 0.081046 0.026133
C103  C     C_R   0.325725 0.402190 0.025224 -0.030730
C104  C     C_R   0.174301 0.902328 0.974770 -0.030172
C105  C     C_R   0.825258 0.904291 0.025312 -0.030569
C106  C     C_3   0.600650 0.595958 0.447790 -0.013832
C107  C     C_3   0.552813 0.649723 0.390316 -0.360019
C108  C     C_3   0.405838 0.569412 0.557543 -0.006642
C109  C     C_3   0.452748 0.617461 0.617325 -0.359791
C110  C     C_3   0.100693 0.095957 0.447692 -0.013329
C111  C     C_3   0.052846 0.149605 0.390186 -0.360867
C112  C     C_3   0.905903 0.069445 0.557384 -0.007178
Cr1   Cr    Cr6+3 0.769270 0.163730 0.750710 1.019249
Cr2   Cr    Cr6+3 0.385840 0.322500 0.252290 1.042283
Cr3   Cr    Cr6+3 0.114160 0.822500 0.747710 1.040099
Cr4   Cr    Cr6+3 0.885840 0.822500 0.252290 1.039813
Cr5   Cr    Cr6+3 0.230730 0.163730 0.249290 1.019946
Cr6   Cr    Cr6+3 0.269270 0.663730 0.750710 1.017411
Cr7   Cr    Cr6+3 0.730730 0.663730 0.249290 1.021772
Cr8   Cr    Cr6+3 0.612620 0.009790 0.748780 1.003405
Cr9   Cr    Cr6+3 0.387380 0.009790 0.251220 1.005622
Cr10  Cr    Cr6+3 0.112620 0.509790 0.748780 1.006732
Cr11  Cr    Cr6+3 0.887380 0.509790 0.251220 1.002265
Cr12  Cr    Cr6+3 0.614160 0.322500 0.747710 1.037629
H1    H     H_    0.438661 0.012377 0.054582 0.155360
H2    H     H_    0.363864 0.436198 0.442689 0.130055
H3    H     H_    0.140703 0.963361 0.561523 0.114827
H4    H     H_    0.863835 0.936360 0.442649 0.129968
H5    H     H_    0.533283 0.239065 0.057573 0.126371
H6    H     H_    0.476368 0.260377 0.941629 0.139658
H7    H     H_    0.023377 0.760486 0.058203 0.139630
H8    H     H_    0.966503 0.738800 0.942301 0.126424
H9    H     H_    0.651807 0.498743 0.071931 0.130373
H10   H     H_    0.348512 0.495907 0.927636 0.128868
H11   H     H_    0.151387 0.996046 0.072249 0.128432
H12   H     H_    0.503347 0.986833 0.935139 0.137324
H13   H     H_    0.848070 0.998683 0.927966 0.130824
H14   H     H_    0.813646 0.210722 0.951618 0.125046
H15   H     H_    0.186724 0.210491 0.049727 0.123850
H16   H     H_    0.313702 0.710827 0.950455 0.123560
H17   H     H_    0.686862 0.710285 0.048556 0.125244
H18   H     H_    0.526737 0.366584 0.555022 0.135646
H19   H     H_    0.522701 0.360306 0.429753 0.169497
H20   H     H_    0.026722 0.866591 0.555025 0.135618
H21   H     H_    0.022683 0.860312 0.429758 0.169505
H22   H     H_    0.487000 0.971665 0.435682 0.115383
H23   H     H_    0.997226 0.486838 0.065189 0.137465
H24   H     H_    0.498346 0.975671 0.565392 0.110462
H25   H     H_    0.986983 0.471669 0.435686 0.115252
H26   H     H_    0.998330 0.475675 0.565395 0.110668
H27   H     H_    0.861252 0.364745 0.573804 0.131849
H28   H     H_    0.137902 0.388351 0.423166 0.133311
H29   H     H_    0.361263 0.864871 0.573824 0.131697
H30   H     H_    0.637896 0.888242 0.423178 0.133448
H31   H     H_    0.637364 0.668174 0.466818 0.146574
H32   H     H_    0.566291 0.566431 0.492224 0.099160
H33   H     H_    0.513905 0.580681 0.371988 0.147756
H34   H     H_    0.061924 0.512589 0.945713 0.154866
H35   H     H_    0.523598 0.729004 0.411981 0.071763
H36   H     H_    0.584906 0.679940 0.344310 0.183304
H37   H     H_    0.372355 0.645987 0.537712 0.133942
H38   H     H_    0.440700 0.537393 0.514054 0.107018
H39   H     H_    0.488103 0.544168 0.637505 0.160655
H40   H     H_    0.485799 0.693383 0.597237 0.070402
H41   H     H_    0.419497 0.651252 0.661651 0.175443
H42   H     H_    0.137446 0.168189 0.466621 0.146728
H43   H     H_    0.066354 0.066609 0.492181 0.099188
H44   H     H_    0.013915 0.080543 0.371934 0.147131
H45   H     H_    0.870644 0.379922 0.447459 0.135404
H46   H     H_    0.023658 0.228964 0.411789 0.071563
H47   H     H_    0.084927 0.179678 0.344139 0.182858
H48   H     H_    0.872486 0.145968 0.537369 0.133720
H49   H     H_    0.940801 0.037130 0.514000 0.107057
H50   H     H_    0.988067 0.044501 0.637476 0.161149
H51   H     H_    0.985880 0.193509 0.596936 0.070752
H52   H     H_    0.919487 0.151818 0.661354 0.175913
H53   H     H_    0.915220 0.349626 0.030389 0.111460
H54   H     H_    0.920863 0.187298 0.019855 0.141742
H55   H     H_    0.958117 0.173436 0.151188 0.186578
H56   H     H_    0.126201 0.407609 0.549848 0.142081
H57   H     H_    0.019406 0.254032 0.094919 0.069811
H58   H     H_    0.960748 0.336311 0.152834 0.171747
H59   H     H_    0.084162 0.333302 0.986211 0.094586
H60   H     H_    0.080561 0.172415 0.982154 0.147762
H61   H     H_    0.031773 0.184344 0.857148 0.179509
H62   H     H_    0.977257 0.266195 0.919396 0.071724
H63   H     H_    0.035925 0.347387 0.861489 0.179907
H64   H     H_    0.416079 0.833747 0.013819 0.094806
H65   H     H_    0.419873 0.672838 0.017889 0.147898
H66   H     H_    0.468890 0.683925 0.142720 0.179690
H67   H     H_    0.370668 0.880052 0.447476 0.135471
H68   H     H_    0.523125 0.766442 0.080528 0.071540
H69   H     H_    0.464328 0.846990 0.138646 0.179624
H70   H     H_    0.585051 0.848850 0.969808 0.111010
H71   H     H_    0.579723 0.686481 0.980234 0.141666
H72   H     H_    0.542528 0.673545 0.848834 0.186342
H73   H     H_    0.481044 0.753550 0.905220 0.070128
H74   H     H_    0.539481 0.836426 0.847402 0.171942
H75   H     H_    0.626208 0.907479 0.549859 0.142062
H76   H     H_    0.640731 0.463458 0.561552 0.114724
N1    N     N_1   0.554442 0.473606 0.920450 -0.313771
N2    N     N_1   0.446292 0.469917 0.079331 -0.305853
N3    N     N_1   0.053494 0.969698 0.920663 -0.306336
N4    N     N_1   0.945273 0.974071 0.079600 -0.313108
O1    O     O_R   0.784320 0.290430 0.830510 -0.521427
O2    O     O_R   0.456080 0.282180 0.333210 -0.526782
O3    O     O_R   0.043920 0.782180 0.666790 -0.524839
O4    O     O_R   0.956080 0.782180 0.333210 -0.526954
O5    O     O_R   0.679040 0.374160 0.674430 -0.505087
O6    O     O_R   0.320960 0.374160 0.325570 -0.502290
O7    O     O_R   0.179040 0.874160 0.674430 -0.504885
O8    O     O_R   0.820960 0.874160 0.325570 -0.502493
O9    O     O_3   0.665350 0.165340 0.749070 -0.281577
O10   O     O_3   0.334650 0.165340 0.250930 -0.281712
O11   O     O_3   0.165350 0.665340 0.749070 -0.283039
O12   O     O_R   0.215680 0.290430 0.169490 -0.523750
O13   O     O_3   0.834650 0.665340 0.250930 -0.280246
O14   O     O_R   0.762640 0.040960 0.825200 -0.536132
O15   O     O_R   0.237360 0.040960 0.174800 -0.536511
O16   O     O_R   0.262640 0.540960 0.825200 -0.535973
O17   O     O_R   0.737360 0.540960 0.174800 -0.536669
O18   O     O_R   0.667400 0.923970 0.829950 -0.469396
O19   O     O_R   0.332600 0.923970 0.170050 -0.469068
O20   O     O_R   0.167400 0.423970 0.829950 -0.468871
O21   O     O_R   0.832600 0.423970 0.170050 -0.469615
O22   O     O_R   0.553960 0.081340 0.821780 -0.513226
O23   O     O_R   0.284320 0.790430 0.830510 -0.522911
O24   O     O_R   0.446040 0.081340 0.178220 -0.518752
O25   O     O_R   0.053960 0.581340 0.821780 -0.517285
O26   O     O_R   0.946040 0.581340 0.178220 -0.514631
O27   O     O_R   0.543180 0.283240 0.826740 -0.495496
O28   O     O_R   0.456820 0.283240 0.173260 -0.490332
O29   O     O_R   0.043180 0.783240 0.826740 -0.489391
O30   O     O_R   0.956820 0.783240 0.173260 -0.496424
O31   O     O_R   0.678360 0.375140 0.822710 -0.469753
O32   O     O_R   0.321640 0.375140 0.177290 -0.469744
O33   O     O_R   0.178360 0.875140 0.822710 -0.469852
O34   O     O_R   0.715680 0.790430 0.169490 -0.522223
O35   O     O_R   0.821640 0.875140 0.177290 -0.469646
O36   O     O_R   0.785050 0.289380 0.670560 -0.521341
O37   O     O_R   0.214950 0.289380 0.329440 -0.520803
O38   O     O_R   0.285050 0.789380 0.670560 -0.521580
O39   O     O_R   0.714950 0.789380 0.329440 -0.520560
O40   O     O_R   0.763320 0.039990 0.676930 -0.457064
O41   O     O_R   0.236680 0.039990 0.323070 -0.451365
O42   O     O_R   0.263320 0.539990 0.676930 -0.457013
O43   O     O_R   0.736680 0.539990 0.323070 -0.451460
O44   O     O_R   0.668130 0.922920 0.670000 -0.538235
O45   O     O_R   0.554640 0.080370 0.673500 -0.513053
O46   O     O_R   0.331870 0.922920 0.330000 -0.537717
O47   O     O_R   0.168130 0.422920 0.670000 -0.536950
O48   O     O_R   0.831870 0.422920 0.330000 -0.538994
O49   O     O_3   0.638000 0.495776 0.419495 -0.555662
O50   O     O_3   0.364457 0.472142 0.583524 -0.542791
O51   O     O_3   0.137987 0.995645 0.419480 -0.555735
O52   O     O_3   0.864439 0.972381 0.583497 -0.542726
O53   O     O_3   0.842022 0.243528 0.087960 -0.526167
O54   O     O_3   0.154676 0.247935 0.914448 -0.524484
O55   O     O_3   0.345743 0.748233 0.085665 -0.524509
O56   O     O_R   0.445360 0.080370 0.326500 -0.510544
O57   O     O_3   0.658449 0.743179 0.912149 -0.526114
O58   O     O_R   0.054640 0.580370 0.673500 -0.511792
O59   O     O_R   0.945360 0.580370 0.326500 -0.511779
O60   O     O_R   0.543920 0.282180 0.666790 -0.525048

loop_
_geom_bond_atom_site_label_1
_geom_bond_atom_site_label_2
_ccdc_geom_bond_type
C44   C49   A    
C62   O49   S    
C21   C26   A    
C5    C103  S    
C69   H10   S    
Cr3   O3    S    
C83   O48   A    
C11   H62   S    
C10   H60   S    
Cr2   O10   S    
C19   C23   A    
C17   C91   A    
C59   C82   S    
Cr1   O9    S    
C81   O46   A    
C45   C50   A    
C56   O30   A    
Cr6   O38   S    
C36   O16   A    
C19   O54   S    
C97   C98   S    
Cr9   O46   S    
C51   H67   S    
C57   C62   A    
C108  C109  S    
C109  H40   S    
C12   H65   S    
Cr11  O26   S    
Cr4   O35   S    
C33   C39   A    
Cr9   O24   S    
C52   H75   S    
C80   C104  A    
C11   H63   S    
C50   C59   A    
C64   C68   A    
C23   H15   S    
C73   C90   S    
C38   C42   A    
C6    N3    T    
C52   C61   A    
Cr2   O28   S    
C90   O7    A    
Cr3   O7    S    
C92   O39   A    
C112  O52   S    
C63   O50   S    
C106  C107  S    
Cr12  O60   S    
C70   H4    S    
C65   C70   A    
C12   H64   S    
C96   C99   D    
C98   H12   S    
Cr7   O17   S    
C49   C57   A    
Cr10  O11   S    
C111  H44   S    
C44   C71   A    
C67   C72   A    
C18   C102  A    
C74   C92   S    
C8    O53   S    
Cr10  O25   S    
C42   H25   S    
C91   C105  A    
C24   C29   A    
Cr5   O37   S    
C32   H19   S    
Cr7   O43   S    
C9    H58   S    
C8    H54   S    
Cr10  O47   S    
C91   H13   S    
Cr12  O31   S    
C8    H53   S    
Cr1   O36   S    
C20   C24   A    
Cr11  O59   S    
C8    C9    S    
C18   O53   S    
C70   C74   A    
C57   C83   S    
C37   C84   S    
C75   O31   A    
Cr6   O11   S    
C58   C102  A    
C12   O55   S    
C6    C104  S    
C65   O52   S    
C2    C69   A    
C36   O20   A    
C9    H55   S    
C64   O51   S    
C14   H68   S    
C112  H49   S    
C47   O17   A    
C13   C80   A    
C58   H9    S    
C47   C102  S    
C11   H61   S    
C45   C72   A    
C77   O33   A    
C10   H59   S    
C15   H70   S    
C106  O49   S    
C13   C25   S    
C55   O29   A    
C27   C75   S    
C54   O28   A    
C107  H33   S    
C85   O2    A    
C107  H36   S    
Cr12  O9    S    
C69   C103  A    
C33   H20   S    
Cr2   O32   S    
C63   C67   A    
C44   H27   S    
C82   O42   A    
C53   C93   S    
C94   H5    S    
C32   C35   A    
C48   C74   A    
C82   O47   A    
C9    H57   S    
Cr8   O45   S    
C55   C95   S    
C76   O32   A    
C109  H39   S    
C67   H2    S    
C5    N2    T    
Cr3   O33   S    
C62   C66   A    
C95   C100  D    
Cr10  O58   S    
C39   C43   A    
Cr9   O56   S    
C94   C97   D    
C68   C73   A    
C79   O40   A    
C108  H38   S    
C46   C51   A    
C27   C101  A    
C17   C21   A    
Cr2   O2    S    
C29   C104  A    
C31   C37   A    
C1    O18   A    
C60   C64   A    
C30   C78   S    
Cr5   O12   S    
C50   H56   S    
C66   C71   A    
C7    N4    T    
C15   O57   S    
C81   O41   A    
C53   O22   A    
C84   O45   A    
C60   C81   S    
C76   O12   A    
C3    H50   S    
C31   C32   A    
C47   O21   A    
C3    C112  S    
C3    H51   S    
Cr1   O40   S    
C4    C101  S    
C10   O54   S    
C33   C34   A    
Cr9   O19   S    
Cr3   O11   S    
C110  C111  S    
C58   C101  A    
Cr4   O4    S    
C23   C28   A    
C80   H11   S    
C68   H3    S    
C54   O24   A    
C1    O14   A    
C43   H26   S    
C109  H41   S    
C53   O27   A    
C96   H7    S    
Cr11  O21   S    
C85   O56   A    
C21   O57   S    
C40   C41   A    
C14   H69   S    
C12   C14   S    
C77   O23   A    
C106  H32   S    
C22   C27   A    
C90   O38   A    
C30   C105  A    
Cr6   O16   S    
C95   H8    S    
C89   O37   A    
C92   O8    A    
C24   H16   S    
C42   C43   A    
Cr4   O30   S    
C93   H6    S    
C26   H17   S    
C87   O59   A    
Cr1   O14   S    
Cr3   O29   S    
C16   H74   S    
C2    C36   S    
C3    H52   S    
C56   C96   S    
C46   H29   S    
C48   H30   S    
C28   C76   S    
C35   C85   S    
Cr8   O18   S    
C13   C20   A    
C108  O50   S    
C2    C19   A    
C34   C38   A    
Cr5   O15   S    
C1    C17   S    
C110  H43   S    
C86   O3    A    
C107  H35   S    
Cr6   O42   S    
Cr7   O34   S    
C26   C30   A    
C89   O6    A    
C56   O26   A    
Cr5   O41   S    
Cr6   O23   S    
C108  H37   S    
C22   H14   S    
Cr8   O22   S    
C59   C63   A    
C15   H71   S    
C78   O35   A    
C40   H22   S    
C38   C87   S    
C88   O5    A    
C111  H46   S    
C79   O44   A    
C45   H28   S    
C31   H18   S    
C18   C22   A    
C35   C40   A    
Cr8   O9    S    
C99   H23   S    
Cr11  O48   S    
Cr4   O8    S    
C99   C100  S    
Cr9   O10   S    
C49   H45   S    
C72   C89   S    
C110  H42   S    
C28   C103  A    
Cr2   O6    S    
C4    N1    T    
C112  H48   S    
C41   H24   S    
C55   O25   A    
C61   C79   S    
C75   O1    A    
C16   H72   S    
C34   H21   S    
C110  O51   S    
C7    C105  S    
C25   O19   A    
C111  H47   S    
C61   C65   A    
C37   C41   A    
Cr5   O10   S    
Cr11  O13   S    
C87   O4    A    
C54   C94   S    
Cr12  O27   S    
C25   O15   A    
C10   C11   S    
C20   O55   S    
C71   C88   S    
C14   H66   S    
C100  H34   S    
C97   H1    S    
C48   C52   A    
C29   C77   S    
C78   O34   A    
C106  H31   S    
Cr12  O5    S    
C83   O43   A    
Cr7   O13   S    
C84   O60   A    
Cr10  O20   S    
C51   C60   A    
Cr8   O44   S    
C39   C86   S    
Cr4   O13   S    
Cr7   O39   S    
C93   C98   D    
C86   O58   A    
C46   C73   A    
C66   H76   S    
C16   H73   S    
C15   C16   S    
Cr1   O1    S    
C88   O36   A    
