data_mof_unit_38083.cif
_audit_creation_date              2012-12-10T16:59:18-0500
_audit_creation_method            fapswitch 2.2
_symmetry_space_group_name_H-M    P1
_symmetry_Int_Tables_number       1
_space_group_crystal_system       triclinic
_cell_length_a                    7.726787
_cell_length_b                    8.540115
_cell_length_c                    27.686976
_cell_angle_alpha                 90.645212
_cell_angle_beta                  86.423778
_cell_angle_gamma                 93.787096
_cell_volume                      1819.41225973

loop_
_atom_site_label
_atom_site_type_symbol
_atom_type_description
_atom_site_fract_x
_atom_site_fract_y
_atom_site_fract_z
_atom_type_partial_charge
C1    C     C_R   0.546018 0.794895 0.498724 0.977142
C2    C     C_R   0.541336 0.646519 0.125527 -0.075446
C3    C     C_R   0.510498 0.488082 0.646412 -0.041083
C4    C     C_R   0.489263 0.506378 0.353502 -0.039523
C5    C     C_R   0.565457 0.620587 0.022932 0.000408
C6    C     C_R   0.429120 0.345125 0.976385 -0.000798
C7    C     C_R   0.423994 0.354297 0.027763 0.060034
C8    C     C_R   0.589303 0.603594 0.972032 0.059724
C9    C     C_R   0.489492 0.494002 0.050759 0.078235
C10   C     C_R   0.515047 0.468231 0.948805 0.075275
C11   C     C_R   0.614268 0.762125 0.046554 -0.229128
C12   C     C_R   0.453983 0.205105 0.501279 0.976616
C13   C     C_R   0.351558 0.215617 0.951853 -0.224415
C14   C     C_R   0.611636 0.776755 0.097054 0.102568
C15   C     C_R   0.364555 0.199508 0.901314 0.105530
C16   C     C_R   0.503137 0.498290 0.593958 0.874297
C17   C     C_R   0.496813 0.501075 0.406038 0.874670
C18   C     C_R   0.688796 0.716894 0.943511 -0.237055
C19   C     C_R   0.357626 0.227213 0.057158 -0.247944
C20   C     C_2   0.570342 0.958450 0.497997 -0.373746
C21   C     C_2   0.429660 0.041552 0.502013 -0.373277
C22   C     C_R   0.618508 0.574940 0.820185 0.486166
C23   C     C_R   0.525761 0.457435 0.897584 -0.069295
C24   C     C_R   0.406845 0.384844 0.179894 0.488696
C25   C     C_R   0.449374 0.330737 0.822152 0.497997
C26   C     C_R   0.529282 0.648735 0.176889 0.493803
C27   C     C_R   0.367960 0.491959 0.726627 -0.102618
C28   C     C_R   0.634804 0.508107 0.273638 -0.108852
C29   C     C_R   0.360649 0.505296 0.676843 -0.209285
C30   C     C_R   0.642309 0.502032 0.323543 -0.205892
C31   C     C_R   0.667276 0.456729 0.666410 -0.216060
C32   C     C_R   0.328908 0.517595 0.332871 -0.214784
C33   C     C_R   0.673946 0.442797 0.716147 -0.093215
C34   C     C_R   0.479629 0.506487 0.101958 -0.067152
C35   C     C_R   0.321864 0.523477 0.282920 -0.089362
C36   C     C_R   0.524484 0.460636 0.746236 0.328489
C37   C     C_R   0.474742 0.518469 0.253382 0.334929
C38   C     C_3   0.687320 0.928791 0.119988 -0.317452
C39   C     C_3   0.777763 0.053847 0.085575 -0.444834
C40   C     C_3   0.856869 0.192837 0.113740 -0.807527
C41   C     C_3   0.294328 0.046866 0.877617 -0.319971
C42   C     C_3   0.238081 0.907749 0.911318 -0.442079
C43   C     C_3   0.191517 0.759441 0.882273 -0.814511
C44   C     C_R   0.615784 0.579672 0.870430 -0.014387
C45   C     C_R   0.410021 0.376733 0.129660 -0.013463
C46   C     C_R   0.699113 0.706180 0.893710 -0.149224
C47   C     C_R   0.350255 0.238898 0.106965 -0.157532
C48   C     C_R   0.446235 0.326349 0.873437 -0.073074
H1    H     H_    0.784548 0.442339 0.643709 0.163694
H2    H     H_    0.238322 0.529302 0.662275 0.163826
H3    H     H_    0.752879 0.503292 0.250581 0.134109
H4    H     H_    0.252684 0.507186 0.750083 0.143388
H5    H     H_    0.650663 0.864735 0.025502 0.138988
H6    H     H_    0.274707 0.126857 0.971761 0.139374
H7    H     H_    0.763668 0.814571 0.958520 0.139424
H8    H     H_    0.315803 0.113738 0.043252 0.141561
H9    H     H_    0.703067 0.009866 0.494172 0.180345
H10   H     H_    0.296935 0.990135 0.505838 0.180370
H11   H     H_    0.754571 0.248795 0.136550 0.266644
H12   H     H_    0.209063 0.521273 0.355215 0.160556
H13   H     H_    0.956823 0.153609 0.137228 0.268467
H14   H     H_    0.919478 0.281390 0.088029 0.252995
H15   H     H_    0.883577 0.001744 0.062945 0.225175
H16   H     H_    0.682562 0.099106 0.061687 0.239988
H17   H     H_    0.580983 0.984604 0.141294 0.250176
H18   H     H_    0.787564 0.896444 0.144514 0.243927
H19   H     H_    0.082671 0.778786 0.859184 0.268297
H20   H     H_    0.304863 0.726348 0.858726 0.265529
H21   H     H_    0.151781 0.661114 0.907340 0.253830
H22   H     H_    0.345539 0.883521 0.934513 0.242490
H23   H     H_    0.014110 0.383454 0.463493 0.191997
H24   H     H_    0.121330 0.935269 0.934580 0.218593
H25   H     H_    0.180473 0.072498 0.857093 0.240302
H26   H     H_    0.399395 0.005731 0.852249 0.252424
H27   H     H_    0.985891 0.616551 0.536505 0.192643
H28   H     H_    0.795192 0.419253 0.731422 0.142517
H29   H     H_    0.198006 0.530969 0.267091 0.135397
H30   H     H_    0.771805 0.799235 0.873462 0.187101
H31   H     H_    0.299486 0.137313 0.127709 0.188477
H32   H     H_    0.767474 0.493796 0.338569 0.161558
N1    N     N_R   0.533065 0.453916 0.797443 -0.348541
N2    N     N_R   0.467674 0.518244 0.202095 -0.350039
N3    N     N_2   0.950320 0.457960 0.486880 -0.176167
N4    N     N_2   0.049680 0.542040 0.513120 -0.175914
O1    O     O_R   0.389250 0.738570 0.503220 -0.611278
O2    O     O_2   0.345916 0.259404 0.206636 -0.556592
O3    O     O_2   0.576679 0.778742 0.202106 -0.573102
O4    O     O_2   0.367592 0.216070 0.796648 -0.582263
O5    O     O_R   0.610750 0.261430 0.496780 -0.611589
O6    O     O_R   0.678390 0.711630 0.494810 -0.629126
O7    O     O_R   0.321610 0.288370 0.505190 -0.629351
O8    O     O_R   0.355440 0.513440 0.575450 -0.620423
O9    O     O_R   0.644560 0.486560 0.424550 -0.620890
O10   O     O_R   0.644590 0.486500 0.567040 -0.631230
O11   O     O_R   0.355410 0.513500 0.432960 -0.630594
O12   O     O_2   0.701866 0.692795 0.794017 -0.565688
Zn1   Zn    Zn3+2 0.306940 0.517990 0.505620 0.948774
Zn2   Zn    Zn3+2 0.693060 0.482010 0.494380 0.948252

loop_
_geom_bond_atom_site_label_1
_geom_bond_atom_site_label_2
_ccdc_geom_bond_type
C19   H8    S    
C1    O6    A    
C27   C29   A    
C41   C42   S    
C12   O7    A    
C47   H31   S    
N4    Zn1   S    
C39   H16   S    
C24   C45   A    
C35   C37   A    
C5    C11   A    
C38   C39   S    
C28   H3    S    
C19   C47   A    
H27   N4    S    
O10   Zn2   S    
C42   H22   S    
C33   C36   A    
C40   H14   S    
C3    C29   A    
C24   N2    A    
C41   H26   S    
C22   C44   A    
C38   H18   S    
C43   H20   S    
N3    Zn2   S    
C31   C33   A    
C17   O11   A    
C11   H5    S    
C30   H32   S    
C2    C34   A    
C26   N2    A    
C40   H11   S    
C25   N1    A    
C15   C48   A    
C31   H1    S    
C18   C46   A    
C44   C46   A    
O8    Zn1   S    
H23   N3    S    
C29   H2    S    
C45   C47   A    
C1    O1    A    
C22   N1    A    
C12   O5    A    
C15   C41   S    
C39   C40   S    
C46   H30   S    
C26   O3    S    
C12   C21   S    
C35   H29   S    
C25   O4    S    
C8    C18   A    
C40   H13   S    
C32   C35   A    
C5    C9    A    
C14   C38   S    
C33   H28   S    
N3    N4    D    
C38   H17   S    
C36   N1    S    
C42   H24   S    
C2    C26   A    
C34   C45   A    
O7    Zn1   S    
C3    C31   A    
C25   C48   A    
C4    C32   A    
C18   H7    S    
C4    C17   S    
C43   H19   S    
C16   O8    A    
C7    C19   A    
C13   C15   A    
C9    C34   A    
C10   C23   A    
C37   N2    S    
C17   O9    A    
C42   C43   S    
C32   H12   S    
C27   H4    S    
C13   H6    S    
C7    C9    A    
C1    C20   S    
C23   C48   A    
C22   O12   S    
C6    C10   A    
C5    C8    A    
O11   Zn1   S    
C6    C7    A    
C27   C36   A    
C39   H15   S    
C16   O10   A    
O5    Zn2   S    
C28   C30   A    
C21   H10   S    
C6    C13   A    
C28   C37   A    
C11   C14   A    
C2    C14   A    
O1    Zn1   S    
C23   C44   A    
C41   H25   S    
C20   C21   D    
C8    C10   A    
C20   H9    S    
C43   H21   S    
C24   O2    S    
O9    Zn2   S    
O6    Zn2   S    
C4    C30   A    
C3    C16   S    
