data_mof_unit_55012.cif
_audit_creation_date              2012-12-11T15:14:43-0500
_audit_creation_method            fapswitch 2.2
_symmetry_space_group_name_H-M    P1
_symmetry_Int_Tables_number       1
_space_group_crystal_system       triclinic
_cell_length_a                    22.254772
_cell_length_b                    7.226472
_cell_length_c                    19.284047
_cell_angle_alpha                 90.010164
_cell_angle_beta                  99.201609
_cell_angle_gamma                 90.006321
_cell_volume                      3061.41901549

loop_
_atom_site_label
_atom_site_type_symbol
_atom_type_description
_atom_site_fract_x
_atom_site_fract_y
_atom_site_fract_z
_atom_type_partial_charge
O1    O     O_R   0.448470 0.506130 0.415700 -0.529685
O2    O     O_R   0.551530 0.006130 0.584300 -0.529699
O3    O     O_R   0.436320 0.174490 0.555800 -0.533845
O4    O     O_R   0.563680 0.674490 0.444200 -0.533842
C1    C     C_R   0.421334 0.344361 0.575266 0.699052
C2    C     C_R   0.578665 0.844357 0.424733 0.699170
O5    O     O_R   0.441350 0.176340 0.414480 -0.539172
O6    O     O_R   0.558650 0.676340 0.585520 -0.539149
O7    O     O_R   0.556600 0.007100 0.441970 -0.533537
O8    O     O_R   0.443400 0.507100 0.558030 -0.533534
C3    C     C_R   0.427524 0.344825 0.388834 0.684764
C4    C     C_R   0.572474 0.844872 0.611165 0.684782
O9    O     O_3   0.537810 0.339550 0.509190 -0.371333
O10   O     O_3   0.462190 0.839550 0.490810 -0.371329
V1    V     V_3+5 0.492990 0.064280 0.498300 1.420442
V2    V     V_3+5 0.507010 0.564280 0.501700 1.420419
C5    C     C_R   0.867679 0.947147 0.695022 -0.163680
C6    C     C_R   0.132414 0.449344 0.304957 -0.163700
H1    H     H_    0.955332 0.974553 0.758957 0.104918
H2    H     H_    0.044771 0.476873 0.241020 0.104910
H3    H     H_    0.785545 0.924871 0.579704 0.119243
H4    H     H_    0.214572 0.427984 0.420274 0.119268
H5    H     H_    0.886559 0.959020 0.646766 0.110624
H6    H     H_    0.113573 0.462266 0.353204 0.110628
C7    C     C_R   0.884423 0.940101 0.822069 -0.034485
C8    C     C_R   0.115594 0.440349 0.177926 -0.034535
C9    C     C_R   0.587142 0.842126 0.741989 0.286996
C10   C     C_R   0.412808 0.340680 0.258009 0.287097
C11   C     C_R   0.624480 0.852953 0.807292 -0.127638
C12   C     C_R   0.375453 0.350976 0.192705 -0.127570
C13   C     C_R   0.687227 0.874227 0.812663 -0.229947
C14   C     C_R   0.312727 0.372779 0.187333 -0.229936
C15   C     C_R   0.715476 0.886102 0.752256 0.078753
C16   C     C_R   0.284516 0.385783 0.247739 0.078752
C17   C     C_R   0.677466 0.876363 0.684953 0.032098
C18   C     C_R   0.322547 0.376707 0.315043 0.032095
C19   C     C_R   0.780140 0.908339 0.756478 0.087895
C20   C     C_R   0.219872 0.408530 0.243516 0.087895
C21   C     C_R   0.804814 0.923183 0.693124 0.137161
C22   C     C_R   0.195248 0.424677 0.306862 0.137167
C23   C     C_R   0.766777 0.913987 0.628079 -0.202949
C24   C     C_R   0.233305 0.416122 0.371905 -0.202974
C25   C     C_R   0.704337 0.890346 0.623943 -0.169952
C26   C     C_R   0.295719 0.391889 0.376049 -0.169976
C27   C     C_R   0.821491 0.916285 0.821061 -0.213330
C28   C     C_R   0.178496 0.415785 0.178941 -0.213351
C29   C     C_R   0.906999 0.956030 0.758854 -0.167120
C30   C     C_R   0.093075 0.457673 0.241127 -0.167069
C31   C     C_R   0.613245 0.853062 0.679983 -0.151394
C32   C     C_R   0.386745 0.352807 0.320017 -0.151417
H7    H     H_    0.806509 0.904290 0.871309 0.095313
H8    H     H_    0.193438 0.402768 0.128703 0.095363
H9    H     H_    0.712333 0.881512 0.865171 0.128123
H10   H     H_    0.287607 0.379578 0.134823 0.128106
H11   H     H_    0.604561 0.843551 0.854885 0.135863
H12   H     H_    0.395339 0.340702 0.145111 0.135818
H13   H     H_    0.677192 0.883616 0.572143 0.108084
H14   H     H_    0.322880 0.385689 0.427849 0.108172
C33   C     C_3   0.771575 0.785731 0.305725 -0.183075
C34   C     C_3   0.228427 0.285649 0.694266 -0.183093
C35   C     C_3   0.799520 0.969160 0.284193 0.265137
C36   C     C_3   0.200473 0.469066 0.715796 0.265140
H15   H     H_    0.790064 0.697273 0.351208 0.115675
H16   H     H_    0.209943 0.197131 0.648782 0.115690
C37   C     C_1   0.875025 0.939935 0.120550 -0.185340
C38   C     C_1   0.124970 0.439921 0.879443 -0.185329
C39   C     C_1   0.624425 0.854088 0.379092 -0.189775
C40   C     C_1   0.375575 0.354099 0.620907 -0.189828
C41   C     C_3   0.761499 0.730492 0.227201 0.269809
C42   C     C_3   0.238499 0.230487 0.772788 0.269828
C43   C     C_3   0.790925 0.910526 0.206480 -0.009244
C44   C     C_3   0.209065 0.410508 0.793508 -0.009203
C45   C     C_3   0.697451 0.819434 0.214816 -0.185528
C46   C     C_3   0.302544 0.319505 0.785182 -0.185537
C47   C     C_3   0.708257 0.881336 0.292981 0.030275
C48   C     C_3   0.291741 0.381330 0.707016 0.030314
C49   C     C_3   0.727744 0.001726 0.196409 0.275040
C50   C     C_3   0.272243 0.501780 0.803586 0.274986
C51   C     C_3   0.736924 0.067066 0.273753 -0.161567
C52   C     C_3   0.263066 0.567047 0.726243 -0.161614
C53   C     C_1   0.836949 0.927876 0.158992 -0.040392
C54   C     C_1   0.163042 0.427857 0.840997 -0.040332
C55   C     C_1   0.662329 0.865398 0.340436 -0.014283
C56   C     C_1   0.337671 0.365404 0.659563 -0.014317
H17   H     H_    0.655374 0.756460 0.185589 0.121117
H18   H     H_    0.344622 0.256593 0.814409 0.121057
O11   O     O_R   0.056650 0.288730 0.942060 -0.533390
O12   O     O_R   0.943350 0.788730 0.057940 -0.533376
O13   O     O_R   0.058660 0.616870 0.085540 -0.535927
O14   O     O_R   0.941340 0.116870 0.914460 -0.535922
C57   C     C_R   0.072872 0.448603 0.110982 0.682481
C58   C     C_R   0.927134 0.948558 0.889016 0.682485
O15   O     O_R   0.063700 0.618520 0.944220 -0.535578
O16   O     O_R   0.936300 0.118520 0.055780 -0.535580
O17   O     O_R   0.948460 0.787610 0.915680 -0.532656
O18   O     O_R   0.051540 0.287610 0.084320 -0.532657
C59   C     C_R   0.078936 0.449979 0.924798 0.712996
C60   C     C_R   0.921062 0.949983 0.075200 0.712981
O19   O     O_3   0.962230 0.453430 0.990860 -0.372879
O20   O     O_3   0.037770 0.953430 0.009140 -0.372890
V3    V     V_3+5 0.007010 0.728750 0.001700 1.422025
V4    V     V_3+5 0.992990 0.228750 0.998300 1.421988
H19   H     H_    0.727100 0.207385 0.292540 0.138588
H20   H     H_    0.272887 0.707358 0.707457 0.138590
N1    N     N_2   0.704423 0.116548 0.136717 -0.509267
H21   H     H_    0.736208 0.208014 0.123412 0.263733
C61   C     C_3   0.646136 0.201683 0.139727 -0.527831
H22   H     H_    0.629745 0.272649 0.089193 0.193830
H23   H     H_    0.650495 0.305628 0.182720 0.196554
H24   H     H_    0.612063 0.095296 0.148376 0.207047
N2    N     N_2   0.295548 0.616693 0.863278 -0.509318
H25   H     H_    0.263767 0.708233 0.876535 0.263736
C62   C     C_3   0.353864 0.701734 0.860315 -0.527458
H26   H     H_    0.370184 0.773089 0.910799 0.193751
H27   H     H_    0.349585 0.805340 0.817225 0.196611
H28   H     H_    0.387950 0.595225 0.851846 0.206944
N3    N     N_2   0.773080 0.548810 0.200729 -0.523196
H29   H     H_    0.761049 0.539116 0.146976 0.255217
C63   C     C_3   0.832551 0.472814 0.226395 -0.519505
H30   H     H_    0.836104 0.332348 0.204152 0.211746
H31   H     H_    0.839506 0.460754 0.284513 0.215956
H32   H     H_    0.868715 0.561348 0.210304 0.188090
N4    N     N_2   0.226919 0.048817 0.799257 -0.523186
H33   H     H_    0.238948 0.039183 0.853010 0.255199
C64   C     C_3   0.167447 0.972759 0.773589 -0.519566
H34   H     H_    0.163900 0.832291 0.795817 0.211754
H35   H     H_    0.160486 0.960687 0.715470 0.215934
H36   H     H_    0.131284 0.061255 0.789697 0.188101
N5    N     N_2   0.523273 0.817631 0.739885 -0.528823
H37   H     H_    0.501171 0.745253 0.697235 0.255024
C65   C     C_3   0.490974 0.983043 0.754661 -0.545431
H38   H     H_    0.442322 0.949247 0.754907 0.192724
H39   H     H_    0.493785 0.089387 0.713658 0.198091
H40   H     H_    0.510298 0.039644 0.807057 0.200710
N6    N     N_2   0.476650 0.315551 0.260114 -0.528810
H41   H     H_    0.498720 0.243620 0.302884 0.255209
C66   C     C_3   0.509083 0.480365 0.244965 -0.545836
H42   H     H_    0.557713 0.446099 0.244824 0.192748
H43   H     H_    0.506334 0.587518 0.285707 0.198059
H44   H     H_    0.489820 0.536133 0.192427 0.200819
N7    N     N_2   0.855356 0.048834 0.320733 -0.517172
H45   H     H_    0.893075 0.969288 0.316626 0.256244
C67   C     C_3   0.853016 0.108837 0.391738 -0.567879
H46   H     H_    0.896983 0.174364 0.414106 0.194288
H47   H     H_    0.844918 0.988757 0.425037 0.190264
H48   H     H_    0.816337 0.212810 0.392206 0.204744
N8    N     N_2   0.144634 0.548638 0.679251 -0.517150
H49   H     H_    0.106924 0.468997 0.683322 0.256246
C68   C     C_3   0.146991 0.608711 0.608266 -0.567940
H50   H     H_    0.103012 0.674096 0.585884 0.194269
H51   H     H_    0.155138 0.488689 0.574949 0.190286
H52   H     H_    0.183643 0.712818 0.607841 0.204726

loop_
_geom_bond_atom_site_label_1
_geom_bond_atom_site_label_2
_ccdc_geom_bond_type
C67   H48   S    
C20   C22   A    
C39   C55   T    
O18   V4    S    
C9    C11   A    
C10   N6    S    
C61   H23   S    
N2    H25   S    
O1    C3    A    
C65   H40   S    
O2    C4    A    
C48   C56   S    
C2    O7    A    
O12   V3    S    
O3    V1    S    
N4    H33   S    
C21   C23   A    
O5    C3    A    
C66   H43   S    
C5    H5    S    
C46   C48   S    
C52   H20   S    
C6    H6    S    
C38   C59   S    
C36   C52   S    
N8    C68   S    
C37   C60   S    
C62   H26   S    
C68   H51   S    
H1    C29   S    
N4    C64   S    
C27   H7    S    
C67   H46   S    
C28   H8    S    
C67   H47   S    
C5    C21   A    
C41   C43   S    
C6    C22   A    
O14   V4    S    
C44   C50   S    
C57   O18   A    
C10   C32   A    
C42   N4    S    
N8    H49   S    
C26   H14   S    
C17   C31   A    
C64   H36   S    
C61   H22   S    
C13   C15   A    
C41   C45   S    
C50   N2    S    
O13   C57   A    
C17   C25   A    
C7    C29   A    
C16   C18   A    
C8    C30   A    
C62   H28   S    
C35   C43   S    
O5    V1    S    
O6    V2    S    
C45   C47   S    
C51   H19   S    
C33   C47   S    
C24   C26   A    
C1    C40   S    
C14   H10   S    
C4    C31   S    
C49   C51   S    
C66   H44   S    
C33   C35   S    
C40   C56   T    
C5    C29   A    
N6    H41   S    
O4    C2    A    
C68   H52   S    
O15   V3    S    
N3    C63   S    
O11   C59   A    
C11   H11   S    
C65   H39   S    
C8    C57   S    
C12   H12   S    
C34   C48   S    
C58   O17   A    
C46   H18   S    
N7    C67   S    
C14   C16   A    
O4    V2    S    
C42   C46   S    
C38   C54   T    
O11   V4    S    
N1    C61   S    
O15   C59   A    
O14   C58   A    
O10   V1    S    
C34   C42   S    
O6    C4    A    
C25   H13   S    
C36   C44   S    
N2    C62   S    
O1    V2    S    
C13   H9    S    
O2    V1    S    
C45   H17   S    
H2    C30   S    
C63   H31   S    
C33   C41   S    
H3    C23   S    
C35   N7    S    
C2    C39   S    
C36   N8    S    
N7    H45   S    
C64   H34   S    
C9    N5    S    
C61   H24   S    
C18   C26   A    
C19   C27   A    
C65   H38   S    
C7    C27   A    
C43   C49   S    
C18   C32   A    
N5    H37   S    
N1    H21   S    
C63   H32   S    
N6    C66   S    
C7    C58   S    
C45   C49   S    
O13   V3    S    
C16   C20   A    
C23   C25   A    
C48   C52   S    
C22   C24   A    
O3    C1    A    
C6    C30   A    
C63   H30   S    
C66   H42   S    
C33   H15   S    
C49   N1    S    
C34   H16   S    
C10   C12   A    
O7    V1    S    
C1    O8    A    
C11   C13   A    
C3    C32   S    
O8    V2    S    
N3    H29   S    
C34   C36   S    
C12   C14   A    
C47   C55   S    
H4    C24   S    
C35   C51   S    
C41   N3    S    
O20   V3    S    
C15   C17   A    
C50   C52   S    
C15   C19   A    
C20   C28   A    
C8    C28   A    
O12   C60   A    
O17   V3    S    
N5    C65   S    
O19   V4    S    
O16   V4    S    
C19   C21   A    
C46   C50   S    
O9    V2    S    
C64   H35   S    
O16   C60   A    
C37   C53   T    
C42   C44   S    
C43   C53   S    
C68   H50   S    
C47   C51   S    
C44   C54   S    
C9    C31   A    
C62   H27   S    
