data_mof_unit_24588.cif
_audit_creation_date              2012-12-10T18:59:18-0500
_audit_creation_method            fapswitch 2.2
_symmetry_space_group_name_H-M    P1
_symmetry_Int_Tables_number       1
_space_group_crystal_system       triclinic
_cell_length_a                    10.771714
_cell_length_b                    10.81626
_cell_length_c                    9.548143
_cell_angle_alpha                 90.18651
_cell_angle_beta                  90.025835
_cell_angle_gamma                 90.031436
_cell_volume                      1112.44471217

loop_
_atom_site_label
_atom_site_type_symbol
_atom_type_description
_atom_site_fract_x
_atom_site_fract_y
_atom_site_fract_z
_atom_type_partial_charge
C1    C     C_R   0.495365 0.262662 0.499729 0.850387
C2    C     C_R   0.065840 0.393340 0.573358 0.104442
C3    C     C_R   0.128941 0.487549 0.499546 -0.094702
C4    C     C_R   0.063944 0.575577 0.422254 -0.170832
C5    C     C_R   0.935918 0.575458 0.422351 -0.205027
C6    C     C_R   0.871128 0.487463 0.499961 -0.096369
C7    C     C_R   0.566039 0.064118 0.590516 0.046382
C8    C     C_R   0.491147 0.129363 0.497723 -0.236205
C9    C     C_R   0.419205 0.064414 0.397888 0.317584
C10   C     C_R   0.420056 0.934589 0.397331 0.319215
C11   C     C_R   0.491780 0.870640 0.497831 -0.243344
C12   C     C_R   0.262611 0.496163 0.499944 0.812505
C13   C     C_R   0.566560 0.936903 0.590448 0.050223
C14   C     C_3   0.572590 0.930768 0.746613 -0.405940
C15   C     C_3   0.570990 0.070917 0.746783 -0.407670
C16   C     C_R   0.571023 0.582979 0.073955 0.299599
C17   C     C_R   0.421062 0.426768 0.074010 -0.028991
C18   C     C_R   0.421326 0.426386 0.925184 -0.065699
C19   C     C_R   0.571052 0.582931 0.926582 0.259164
C20   C     C_3   0.708909 0.595059 0.921019 -0.492357
C21   C     C_3   0.708829 0.595466 0.079833 -0.506423
C22   C     C_R   0.495943 0.737355 0.499937 0.878443
C23   C     C_R   0.737395 0.495824 0.500025 0.781511
C24   C     C_R   0.129982 0.296849 0.642078 -0.152369
C25   C     C_R   0.065286 0.203995 0.711836 -0.105063
C26   C     C_R   0.936180 0.204265 0.712852 -0.124488
C27   C     C_R   0.870886 0.297346 0.643953 -0.191848
C28   C     C_R   0.934552 0.393461 0.573961 0.096209
Cu1   Cu    Cu3+1 0.499990 0.499980 0.640670 0.942614
Cu2   Cu    Cu3+1 0.500010 0.500020 0.359330 1.002920
H1    H     H_    0.112732 0.646469 0.364053 0.196412
H2    H     H_    0.661998 0.891631 0.783916 0.186206
H3    H     H_    0.485089 0.110585 0.793367 0.211625
H4    H     H_    0.658868 0.112543 0.785376 0.186594
H5    H     H_    0.358456 0.366241 0.129396 0.196960
H6    H     H_    0.359505 0.364835 0.869131 0.143250
H7    H     H_    0.755211 0.512089 0.876112 0.227494
H8    H     H_    0.738669 0.684584 0.875206 0.195420
H9    H     H_    0.755383 0.512908 0.124734 0.227391
H10   H     H_    0.738116 0.685411 0.125805 0.200624
H11   H     H_    0.230093 0.290455 0.640395 0.139418
H12   H     H_    0.115579 0.130651 0.763840 0.149884
H13   H     H_    0.886527 0.131020 0.765705 0.136191
H14   H     H_    0.770734 0.291483 0.643952 0.149132
H15   H     H_    0.886963 0.646215 0.364123 0.154348
H16   H     H_    0.488075 0.889160 0.793992 0.219103
N1    N     N_R   0.500790 0.500930 0.147930 -0.195244
N2    N     N_R   0.500790 0.500890 0.852020 -0.194214
O1    O     O_R   0.500000 0.319640 0.618810 -0.607317
O2    O     O_R   0.500010 0.319680 0.381230 -0.542956
O3    O     O_R   0.319640 0.499980 0.618820 -0.593561
O4    O     O_R   0.319650 0.500020 0.381230 -0.553197
O5    O     O_R   0.499990 0.680320 0.618770 -0.583349
O6    O     O_R   0.500000 0.680360 0.381190 -0.541072
O7    O     O_R   0.680350 0.499980 0.618770 -0.592325
O8    O     O_R   0.680360 0.500020 0.381180 -0.587777
Cl1   Cl    Cl    0.316531 0.143295 0.284391 -0.592734
Cl2   Cl    Cl    0.320892 0.854281 0.280103 -0.570179

loop_
_geom_bond_atom_site_label_1
_geom_bond_atom_site_label_2
_ccdc_geom_bond_type
C25   H12   S    
C18   N2    A    
C23   O7    A    
Cu1   Cu2   S    
C20   H7    S    
C1    C8    S    
C20   H8    S    
C9    C10   A    
C11   C22   S    
Cu1   O7    S    
C19   C20   S    
C21   H9    S    
Cu2   O8    S    
C7    C15   S    
C2    C3    A    
Cu2   O2    S    
C23   O8    A    
C22   O6    A    
Cu1   O1    S    
C13   C14   S    
C20   C21   S    
C24   H11   S    
Cu2   O6    S    
C26   C27   A    
C16   C21   S    
C21   H10   S    
C18   H6    S    
C16   C19   A    
C6    C23   S    
C16   N1    A    
C17   H5    S    
C12   O4    A    
Cu1   O3    S    
C26   H13   S    
C17   C18   A    
C22   O5    A    
C9    Cl1   S    
C2    C24   A    
C5    C6    A    
C11   C13   A    
C7    C8    A    
C10   C11   A    
Cu1   N2    S    
C3    C4    A    
C4    H1    S    
Cu2   N1    S    
C7    C13   A    
C12   O3    A    
C24   C25   A    
C14   H16   S    
C1    O2    A    
C27   C28   A    
Cu2   O4    S    
C14   C15   S    
C4    C5    A    
C2    C28   A    
C3    C12   S    
C15   H4    S    
C10   Cl2   S    
C25   C26   A    
C19   N2    A    
C5    H15   S    
C27   H14   S    
C15   H3    S    
C6    C28   A    
C17   N1    A    
C14   H2    S    
C8    C9    A    
Cu1   O5    S    
C1    O1    A    
