data_mof_unit_26454.cif
_audit_creation_date              2012-12-10T20:31:07-0500
_audit_creation_method            fapswitch 2.2
_symmetry_space_group_name_H-M    P1
_symmetry_Int_Tables_number       1
_space_group_crystal_system       triclinic
_cell_length_a                    14.916861
_cell_length_b                    10.650005
_cell_length_c                    9.863596
_cell_angle_alpha                 90.059026
_cell_angle_beta                  90.286545
_cell_angle_gamma                 90.874415
_cell_volume                      1566.77363659

loop_
_atom_site_label
_atom_site_type_symbol
_atom_type_description
_atom_site_fract_x
_atom_site_fract_y
_atom_site_fract_z
_atom_type_partial_charge
C1    C     C_R   0.505582 0.260227 0.500024 0.965833
C2    C     C_R   0.183341 0.380953 0.530355 0.391361
C3    C     C_R   0.231045 0.491768 0.497263 -0.199089
C4    C     C_R   0.326872 0.496072 0.499390 1.023827
C5    C     C_R   0.187565 0.601634 0.461162 -0.327748
C6    C     C_R   0.536853 0.064857 0.620214 0.116515
C7    C     C_R   0.523554 0.129503 0.499121 -0.102959
C8    C     C_R   0.529726 0.065477 0.375205 -0.239718
C9    C     C_R   0.528734 0.935773 0.375108 -0.225039
C10   C     C_R   0.521652 0.871705 0.498934 -0.087808
C11   C     C_R   0.535667 0.936594 0.620048 0.124353
C12   C     C_R   0.908155 0.607270 0.456760 0.121076
C13   C     C_3   0.487755 0.928964 0.752542 -0.466941
C14   C     C_3   0.489409 0.071383 0.753140 -0.459167
C15   C     C_R   0.457905 0.405511 0.070994 0.197381
C16   C     C_R   0.503809 0.740240 0.499929 0.864578
C17   C     C_R   0.548372 0.586810 0.072435 -0.123968
C18   C     C_R   0.548406 0.586785 0.928421 -0.124007
C19   C     C_R   0.457904 0.405435 0.928464 0.191317
C20   C     C_3   0.360576 0.371552 0.922930 -0.476299
C21   C     C_3   0.360786 0.371714 0.076758 -0.464347
C22   C     C_R   0.672933 0.501990 0.500455 0.865179
C23   C     C_R   0.948191 0.295973 0.617215 -0.239118
C24   C     C_R   0.815182 0.605653 0.451112 -0.265705
C25   C     C_R   0.768088 0.502524 0.502702 -0.039044
C26   C     C_R   0.811206 0.401124 0.561331 -0.255018
C27   C     C_R   0.903890 0.399143 0.563411 0.127175
C28   C     C_R   0.952836 0.502095 0.510217 0.086967
C29   C     C_R   0.040938 0.290926 0.611135 -0.108604
C30   C     C_R   0.090665 0.389005 0.550574 -0.019959
C31   C     C_R   0.046256 0.498853 0.508171 -0.001939
C32   C     C_R   0.094916 0.604228 0.460220 0.133351
C33   C     C_R   0.050292 0.710523 0.413019 -0.170604
C34   C     C_R   0.957072 0.711260 0.409294 -0.216374
H1    H     H_    0.779316 0.684519 0.408822 0.136234
H2    H     H_    0.348782 0.276489 0.879944 0.237684
H3    H     H_    0.319651 0.447498 0.121094 0.231211
H4    H     H_    0.772362 0.322921 0.602051 0.137333
H5    H     H_    0.349167 0.276985 0.121089 0.227805
H6    H     H_    0.911065 0.218359 0.662084 0.152658
H7    H     H_    0.073037 0.210934 0.656660 0.212007
H8    H     H_    0.226249 0.684121 0.431152 0.163712
H9    H     H_    0.087470 0.791836 0.376567 0.169868
H10   H     H_    0.923293 0.792869 0.369623 0.154681
H11   H     H_    0.527215 0.114068 0.278839 0.174140
H12   H     H_    0.525824 0.887074 0.278660 0.170190
H13   H     H_    0.332296 0.146259 0.389341 0.374154
H14   H     H_    0.419045 0.887756 0.742977 0.224211
H15   H     H_    0.529989 0.887731 0.833733 0.192205
H16   H     H_    0.421749 0.112218 0.744682 0.256925
H17   H     H_    0.532656 0.112369 0.834477 0.191654
H18   H     H_    0.586022 0.658357 0.127133 0.141077
H19   H     H_    0.586178 0.658165 0.874431 0.143047
H20   H     H_    0.319034 0.446821 0.877993 0.228629
N1    N     N_R   0.499390 0.499140 0.142800 -0.107258
N2    N     N_R   0.499390 0.499180 0.857150 -0.105954
O1    O     O_R   0.500010 0.316790 0.614690 -0.611572
O2    O     O_2   0.170260 0.130546 0.482164 -0.327025
O3    O     O_3   0.317891 0.235459 0.405772 -0.580754
O4    O     O_R   0.500000 0.316760 0.385350 -0.608578
O5    O     O_R   0.367850 0.499990 0.614680 -0.616111
O6    O     O_R   0.367840 0.499950 0.385340 -0.593887
O7    O     O_R   0.500000 0.683240 0.614650 -0.625833
O8    O     O_R   0.499990 0.683210 0.385310 -0.635198
O9    O     O_R   0.632160 0.500050 0.614660 -0.624942
O10   O     O_R   0.632150 0.500010 0.385320 -0.623442
O11   O     O_2   0.275321 0.201858 0.658668 -0.362375
S1    S     S_3+6 0.236340 0.232148 0.522385 -0.020802
Zn1   Zn    Zn3+2 0.500010 0.500020 0.653130 0.963455
Zn2   Zn    Zn3+2 0.499990 0.499980 0.346870 0.965394

loop_
_geom_bond_atom_site_label_1
_geom_bond_atom_site_label_2
_ccdc_geom_bond_type
C19   N2    A    
C2    C3    A    
C13   H14   S    
C5    H8    S    
C22   O9    A    
C29   C30   A    
C16   O7    A    
C1    O1    A    
O3    S1    S    
C6    C14   S    
C9    C10   A    
C17   N1    A    
C2    S1    S    
C31   C32   A    
C21   H5    S    
O4    Zn2   S    
C2    C30   A    
C5    C32   A    
O1    Zn1   S    
C32   C33   A    
C17   C18   A    
C21   H3    S    
C9    H12   S    
O10   Zn2   S    
C13   C14   S    
C24   C25   A    
C15   C19   A    
C18   N2    A    
C11   C13   S    
C4    O6    A    
C26   C27   A    
C14   H16   S    
C15   C21   S    
C12   C28   A    
O11   S1    D    
O9    Zn1   S    
C23   C29   A    
C17   H18   S    
O2    S1    D    
C33   C34   A    
C6    C7    A    
O8    Zn2   S    
C23   C27   A    
C6    C11   A    
C14   H17   S    
C30   C31   A    
C13   H15   S    
C24   H1    S    
C10   C11   A    
C12   C34   A    
C3    C4    S    
N1    Zn2   S    
O7    Zn1   S    
C7    C8    A    
C34   H10   S    
C20   C21   S    
O6    Zn2   S    
C20   H20   S    
N2    Zn1   S    
C1    O4    A    
O5    Zn1   S    
C27   C28   A    
C23   H6    S    
C12   C24   A    
C8    H11   S    
C26   H4    S    
C20   H2    S    
C10   C16   S    
C16   O8    A    
C18   H19   S    
C29   H7    S    
C25   C26   A    
C1    C7    S    
H13   O3    S    
C4    O5    A    
C28   C31   A    
C22   O10   A    
C19   C20   S    
C15   N1    A    
C8    C9    A    
C3    C5    A    
C22   C25   S    
C33   H9    S    
