data_mof_unit_51669.cif
_audit_creation_date              2012-12-10T18:50:50-0500
_audit_creation_method            fapswitch 2.2
_symmetry_space_group_name_H-M    P1
_symmetry_Int_Tables_number       1
_space_group_crystal_system       triclinic
_cell_length_a                    10.725992
_cell_length_b                    9.919245
_cell_length_c                    15.729132
_cell_angle_alpha                 90.138867
_cell_angle_beta                  90.839508
_cell_angle_gamma                 89.401483
_cell_volume                      1673.20597648

loop_
_atom_site_label
_atom_site_type_symbol
_atom_type_description
_atom_site_fract_x
_atom_site_fract_y
_atom_site_fract_z
_atom_type_partial_charge
C1    C     C_R   0.259929 0.500579 0.500222 0.913194
C2    C     C_3   0.610248 0.435664 0.951153 -0.450186
C3    C     C_3   0.614965 0.440991 0.049145 -0.357045
C4    C     C_1   0.493481 0.503292 0.825648 -0.039464
C5    C     C_1   0.494515 0.500273 0.174346 -0.059859
C6    C     C_1   0.497069 0.499683 0.249641 -0.086938
C7    C     C_R   0.066061 0.377778 0.494112 -0.194959
C8    C     C_R   0.062974 0.621165 0.478905 -0.181636
C9    C     C_R   0.939394 0.373620 0.480680 -0.040892
C10   C     C_R   0.935926 0.619519 0.465676 -0.041944
C11   C     C_R   0.871971 0.496670 0.475265 -0.175909
C12   C     C_R   0.127236 0.500764 0.494068 -0.074838
C13   C     C_R   0.558421 0.071183 0.563459 -0.067114
C14   C     C_R   0.558312 0.927986 0.563505 -0.065142
C15   C     C_R   0.499551 0.499860 0.338464 0.920969
C16   C     C_R   0.442590 0.928541 0.435439 -0.022000
C17   C     C_R   0.442574 0.072254 0.435434 -0.028292
C18   C     C_R   0.739156 0.499056 0.490810 0.880632
C19   C     C_R   0.500036 0.500194 0.661582 0.899779
C20   C     C_3   0.475709 0.648802 0.051092 -0.396495
C21   C     C_3   0.381204 0.417414 0.049263 -0.447175
C22   C     C_3   0.376553 0.422617 0.950539 -0.182516
C23   C     C_3   0.490306 0.654172 0.953247 -0.182395
C24   C     C_1   0.497019 0.501122 0.750401 -0.098634
C25   C     C_3   0.491827 0.501848 0.082962 0.259814
C26   C     C_3   0.489278 0.506126 0.917269 0.165980
H1    H     H_    0.382335 0.687780 0.070065 0.206380
H2    H     H_    0.292867 0.454649 0.077730 0.201654
H3    H     H_    0.392993 0.310808 0.070257 0.199963
H4    H     H_    0.546583 0.715031 0.081800 0.199007
H5    H     H_    0.388844 0.317057 0.927394 0.148009
H6    H     H_    0.584315 0.696064 0.940946 0.127695
H7    H     H_    0.695146 0.503506 0.070611 0.192689
H8    H     H_    0.630263 0.337440 0.074683 0.201350
H9    H     H_    0.694479 0.485365 0.925663 0.191592
H10   H     H_    0.613750 0.328608 0.929704 0.197899
H11   H     H_    0.117180 0.283710 0.502117 0.227649
H12   H     H_    0.111504 0.716086 0.475184 0.224538
H13   H     H_    0.605576 0.124490 0.614428 0.156594
H14   H     H_    0.605384 0.874003 0.614509 0.158261
N1    N     N_R   0.499970 0.857200 0.499980 -0.123150
N2    N     N_R   0.499970 0.142800 0.499980 -0.124778
O1    O     O_R   0.316750 0.614620 0.499990 -0.597697
O2    O     O_R   0.316750 0.385380 0.499990 -0.602060
O3    O     O_R   0.499990 0.614720 0.377140 -0.599488
O4    O     O_R   0.499990 0.385280 0.377140 -0.596852
O5    O     O_R   0.683220 0.614710 0.500000 -0.612958
O6    O     O_R   0.683220 0.385290 0.500000 -0.606472
O7    O     O_R   0.499980 0.614620 0.622860 -0.612989
O8    O     O_R   0.499980 0.385380 0.622860 -0.622114
Zn1   Zn    Zn3+2 0.499980 0.653120 0.500000 1.021090
Zn2   Zn    Zn3+2 0.499980 0.346880 0.500000 1.010636
C27   C     C_2   0.400471 0.756284 0.913444 0.959734
O9    O     O_2   0.337137 0.728719 0.850657 -0.594243
O10   O     O_R   0.394639 0.886345 0.947765 -0.794849
H15   H     H_    0.333275 0.947084 0.916074 0.354879
C28   C     C_2   0.250492 0.468946 0.916349 0.976783
O11   O     O_2   0.192766 0.560212 0.951076 -0.605509
O12   O     O_R   0.199636 0.405133 0.844700 -0.793113
H16   H     H_    0.115387 0.444236 0.827295 0.353793
C29   C     C_2   0.379958 0.857134 0.364833 0.969666
O13   O     O_2   0.279450 0.803900 0.375832 -0.635819
O14   O     O_R   0.433948 0.855553 0.284468 -0.756770
H17   H     H_    0.381916 0.804871 0.240838 0.339303
C30   C     C_2   0.378675 0.144509 0.365304 0.971443
O15   O     O_2   0.427510 0.150079 0.295651 -0.590964
O16   O     O_R   0.260025 0.199634 0.377244 -0.801971
H18   H     H_    0.225537 0.245652 0.324305 0.338664
C31   C     C_2   0.883473 0.239266 0.468790 0.964201
O17   O     O_2   0.908700 0.149018 0.519076 -0.614151
O18   O     O_R   0.804585 0.215636 0.398793 -0.763231
H19   H     H_    0.770079 0.121037 0.397583 0.342057
C32   C     C_2   0.873693 0.746759 0.440425 0.965240
O19   O     O_2   0.811579 0.751960 0.374637 -0.598070
O20   O     O_R   0.881452 0.858577 0.493891 -0.755407
H20   H     H_    0.820388 0.931615 0.475714 0.354947

loop_
_geom_bond_atom_site_label_1
_geom_bond_atom_site_label_2
_ccdc_geom_bond_type
C2    H9    S    
C4    C26   S    
O20   H20   S    
C11   C18   S    
C23   C27   S    
C20   H1    S    
C9    C11   A    
C32   O19   D    
C19   O7    A    
C1    O2    A    
C17   C30   S    
C21   C22   S    
C15   O4    A    
C20   C23   S    
C3    C25   S    
C8    C12   A    
C18   O5    A    
O2    Zn2   S    
O10   H15   S    
C2    C3    S    
C7    H11   S    
O12   H16   S    
C2    C26   S    
C20   H4    S    
C27   O9    D    
C23   H6    S    
C6    C15   S    
C32   O20   S    
C19   O8    A    
O1    Zn1   S    
C28   O11   D    
C31   O17   D    
C1    C12   S    
C8    H12   S    
C22   C28   S    
C14   N1    A    
C5    C25   S    
C5    C6    T    
C16   C29   S    
C8    C10   A    
C13   N2    A    
C21   H2    S    
N1    Zn1   S    
C19   C24   S    
C7    C9    A    
C27   O10   S    
C22   C26   S    
C29   O13   D    
C4    C24   T    
C10   C32   S    
C7    C12   A    
C13   H13   S    
C28   O12   S    
C20   C25   S    
C3    H7    S    
C9    C31   S    
C14   H14   S    
O14   H17   S    
O4    Zn2   S    
O6    Zn2   S    
O18   H19   S    
C31   O18   S    
C30   O15   D    
C10   C11   A    
C23   C26   S    
C2    H10   S    
O8    Zn2   S    
C29   O14   S    
O3    Zn1   S    
C17   N2    A    
C21   C25   S    
C3    H8    S    
C30   O16   S    
C22   H5    S    
C13   C14   A    
C21   H3    S    
C16   N1    A    
C1    O1    A    
O5    Zn1   S    
O16   H18   S    
N2    Zn2   S    
C16   C17   A    
O7    Zn1   S    
C15   O3    A    
C18   O6    A    
