data_mof_unit_65592.cif
_audit_creation_date              2012-10-26T18:01:27-0400
_audit_creation_method            fapswitch 2.2
_symmetry_space_group_name_H-M    P1
_symmetry_Int_Tables_number       1
_space_group_crystal_system       triclinic
_cell_length_a                    30.799181
_cell_length_b                    30.624518
_cell_length_c                    24.688654
_cell_angle_alpha                 89.972005
_cell_angle_beta                  128.076988
_cell_angle_gamma                 90.022025
_cell_volume                      18330.7981528

loop_
_atom_site_label
_atom_site_type_symbol
_atom_type_description
_atom_site_fract_x
_atom_site_fract_y
_atom_site_fract_z
_atom_type_partial_charge
C1    C     C_R   0.809014 0.809506 0.499557 0.548613
C2    C     C_R   0.535054 0.749509 0.069950 0.344403
C3    C     C_R   0.908332 0.092859 0.501004 0.006939
C4    C     C_R   0.648604 0.589953 0.540006 0.058736
C5    C     C_R   0.351370 0.590014 0.459868 0.058816
C6    C     C_R   0.148398 0.086103 0.533196 0.011003
C7    C     C_R   0.851374 0.090007 0.459887 0.058681
C8    C     C_3   0.696996 0.562465 0.592063 0.126769
C9    C     C_3   0.302955 0.562588 0.407702 0.126826
C10   C     C_3   0.194134 0.074101 0.606234 0.137085
C11   C     C_3   0.802960 0.062575 0.407735 0.126834
C12   C     C_3   0.732529 0.597661 0.590804 0.129599
C13   C     C_R   0.964868 0.249508 0.930057 0.344366
C14   C     C_3   0.267435 0.597767 0.408969 0.129530
C15   C     C_3   0.229139 0.108391 0.603963 0.132890
C16   C     C_3   0.767441 0.097754 0.409003 0.129566
C17   C     C_R   0.440598 0.559364 0.500171 0.550430
C18   C     C_R   0.559396 0.559360 0.499816 0.550532
C19   C     C_R   0.940599 0.059364 0.500171 0.551557
C20   C     C_R   0.059237 0.059673 0.499798 0.554093
C21   C     C_R   0.940566 0.940552 0.500277 0.539845
C22   C     C_R   0.059435 0.940538 0.499738 0.538979
C23   C     C_R   0.440562 0.440554 0.500277 0.539015
C24   C     C_R   0.035054 0.249509 0.069953 0.344376
C25   C     C_R   0.559442 0.440550 0.499736 0.538927
C26   C     C_R   0.816517 0.750335 0.632586 0.591645
C27   C     C_R   0.183484 0.750342 0.367406 0.591668
C28   C     C_R   0.316489 0.250310 0.632579 0.593344
C29   C     C_R   0.683478 0.250344 0.367404 0.591626
C30   C     C_R   0.611975 0.786002 0.254777 -0.127614
C31   C     C_R   0.387958 0.786016 0.745202 -0.127757
C32   C     C_R   0.112012 0.286018 0.254779 -0.127437
C33   C     C_R   0.887973 0.286010 0.745202 -0.127452
C34   C     C_R   0.576377 0.786062 0.182859 -0.113009
C35   C     C_R   0.899070 0.844070 0.551319 0.016123
C36   C     C_R   0.423536 0.786077 0.817119 -0.113138
C37   C     C_R   0.076415 0.286078 0.182861 -0.112804
C38   C     C_R   0.923551 0.286072 0.817120 -0.112801
C39   C     C_R   0.573184 0.749566 0.146074 0.034134
C40   C     C_R   0.426750 0.749564 0.853932 0.034075
C41   C     C_R   0.073185 0.249567 0.146076 0.034095
C42   C     C_R   0.926749 0.249565 0.853933 0.034095
C43   C     C_R   0.606760 0.713184 0.182700 -0.111982
C44   C     C_R   0.393213 0.713162 0.817333 -0.112042
C45   C     C_R   0.106724 0.213169 0.182702 -0.112046
C46   C     C_R   0.101004 0.844344 0.448297 0.015778
C47   C     C_R   0.893196 0.213170 0.817335 -0.112035
C48   C     C_R   0.643167 0.713472 0.254643 -0.125896
C49   C     C_R   0.356823 0.713449 0.745389 -0.125946
C50   C     C_R   0.143131 0.213456 0.254646 -0.125893
C51   C     C_R   0.856807 0.213457 0.745390 -0.125950
C52   C     C_R   0.399029 0.344183 0.551485 0.016405
C53   C     C_R   0.600961 0.344182 0.448568 0.015984
C54   C     C_R   0.842002 0.843608 0.500615 0.020567
C55   C     C_R   0.158009 0.843594 0.499412 0.020458
C56   C     C_R   0.341990 0.343607 0.500603 0.020628
C57   C     C_R   0.190976 0.809505 0.500428 0.548490
C58   C     C_R   0.658009 0.343609 0.499408 0.020573
C59   C     C_R   0.816455 0.879187 0.455150 -0.149858
C60   C     C_R   0.183571 0.878897 0.545409 -0.148839
C61   C     C_R   0.316437 0.379090 0.454939 -0.149871
C62   C     C_R   0.683566 0.379088 0.545054 -0.149752
C63   C     C_R   0.848670 0.911321 0.454848 -0.153154
C64   C     C_R   0.151360 0.911014 0.545719 -0.151817
C65   C     C_R   0.348652 0.411228 0.454646 -0.153059
C66   C     C_R   0.651358 0.411213 0.545362 -0.153025
C67   C     C_R   0.906486 0.908711 0.501646 0.016639
C68   C     C_R   0.309013 0.309505 0.499557 0.548830
C69   C     C_R   0.093540 0.908688 0.498413 0.016945
C70   C     C_R   0.406468 0.408720 0.501642 0.016501
C71   C     C_R   0.593536 0.408706 0.498396 0.016477
C72   C     C_R   0.930790 0.876458 0.552401 0.027016
C73   C     C_R   0.069303 0.876721 0.447244 0.027456
C74   C     C_R   0.430744 0.376574 0.552564 0.027155
C75   C     C_R   0.569254 0.376560 0.447501 0.027172
C76   C     C_3   0.976018 0.845242 0.573541 -0.274472
C77   C     C_3   0.023751 0.845603 0.425212 -0.274123
C78   C     C_3   0.476107 0.345406 0.574075 -0.274359
C79   C     C_R   0.690984 0.309509 0.500445 0.548555
C80   C     C_3   0.523903 0.345373 0.426036 -0.274242
C81   C     C_3   0.940982 0.809611 0.572158 -0.250731
C82   C     C_3   0.058762 0.809989 0.426561 -0.250898
C83   C     C_3   0.441077 0.309771 0.572697 -0.250476
C84   C     C_3   0.558920 0.309757 0.427398 -0.250857
C85   C     C_R   0.683774 0.749928 0.367397 0.535438
C86   C     C_R   0.316221 0.749924 0.632610 0.535390
C87   C     C_R   0.183774 0.249927 0.367398 0.534406
C88   C     C_R   0.816221 0.249924 0.632610 0.535495
C89   C     C_R   0.837498 0.766784 0.745557 -0.194950
C90   C     C_R   0.645895 0.749793 0.291364 0.016596
C91   C     C_R   0.162521 0.766811 0.254429 -0.194847
C92   C     C_R   0.337243 0.266294 0.745529 -0.197504
C93   C     C_R   0.662415 0.266931 0.254393 -0.194970
C94   C     C_R   0.873472 0.767289 0.817384 -0.189319
C95   C     C_R   0.126554 0.767314 0.182600 -0.189289
C96   C     C_R   0.373200 0.266770 0.817358 -0.193585
C97   C     C_R   0.626428 0.267419 0.182563 -0.189230
C98   C     C_R   0.928153 0.752758 0.853892 -0.019107
C99   C     C_R   0.071872 0.752772 0.146099 -0.019097
C100  C     C_R   0.428032 0.252619 0.853866 -0.020949
C101  C     C_R   0.354077 0.749788 0.708642 0.016527
C102  C     C_R   0.571802 0.252737 0.146086 -0.019128
C103  C     C_R   0.946065 0.737404 0.816862 0.429582
C104  C     C_R   0.053951 0.737413 0.183137 0.429636
C105  C     C_R   0.446099 0.237651 0.816829 0.427844
C106  C     C_R   0.553958 0.237262 0.183156 0.429144
C107  C     C_R   0.909850 0.736437 0.744956 0.407136
C108  C     C_R   0.090158 0.736448 0.255042 0.407052
C109  C     C_R   0.409904 0.236714 0.744925 0.402552
C110  C     C_R   0.590183 0.236319 0.255059 0.407105
C111  C     C_R   0.855125 0.751131 0.708585 -0.029186
C112  C     C_R   0.145896 0.249793 0.291366 0.016684
C113  C     C_R   0.144885 0.751150 0.291407 -0.029185
C114  C     C_R   0.355048 0.251055 0.708565 -0.034162
C115  C     C_R   0.644858 0.251151 0.291401 -0.029231
C116  C     C_R   0.034340 0.753394 0.069938 0.360177
C117  C     C_R   0.965689 0.753384 0.930052 0.360170
C118  C     C_R   0.534251 0.253330 0.069920 0.360010
C119  C     C_R   0.465574 0.253260 0.930030 0.359440
C120  C     C_R   0.679522 0.620386 0.538420 0.055777
C121  C     C_R   0.320457 0.620434 0.461460 0.055783
C122  C     C_R   0.179811 0.117238 0.531323 0.026709
C123  C     C_R   0.854077 0.249789 0.708643 0.016576
C124  C     C_R   0.820462 0.120428 0.461480 0.055835
C125  C     C_R   0.656615 0.657550 0.498041 0.009613
C126  C     C_R   0.343377 0.657548 0.501934 0.009592
C127  C     C_R   0.156323 0.156600 0.496504 0.053797
C128  C     C_R   0.843380 0.157549 0.501937 0.009493
C129  C     C_R   0.598758 0.662224 0.456035 -0.157591
C130  C     C_R   0.401248 0.662177 0.544022 -0.157552
C131  C     C_R   0.098802 0.161647 0.455412 -0.150294
C132  C     C_R   0.901249 0.162184 0.544009 -0.157508
C133  C     C_R   0.690592 0.690626 0.499704 0.570732
C134  C     C_R   0.464868 0.749507 0.930055 0.344361
C135  C     C_R   0.309408 0.690622 0.500287 0.570702
C136  C     C_R   0.190574 0.190486 0.499714 0.580886
C137  C     C_R   0.809408 0.190622 0.500288 0.570747
C138  C     C_R   0.566287 0.629579 0.455605 -0.155572
C139  C     C_R   0.433709 0.629540 0.544449 -0.155501
C140  C     C_R   0.066626 0.129248 0.455288 -0.144997
C141  C     C_R   0.933711 0.129547 0.544434 -0.155009
C142  C     C_R   0.591657 0.592848 0.498961 0.007250
C143  C     C_R   0.408330 0.592858 0.501003 0.007172
C144  C     C_R   0.092091 0.092539 0.498213 0.053095
Cu1   Cu    Cu3+1 0.780910 0.719090 0.500000 1.018377
Cu2   Cu    Cu3+1 0.534240 0.500000 0.568430 0.999035
Cu3   Cu    Cu3+1 0.965760 1.000000 0.431570 0.998772
Cu4   Cu    Cu3+1 0.034240 0.000000 0.568430 0.987493
Cu5   Cu    Cu3+1 0.219090 0.719090 0.500000 1.018428
Cu6   Cu    Cu3+1 0.280910 0.219090 0.500000 1.014902
Cu7   Cu    Cu3+1 0.719090 0.219090 0.500000 1.018210
Cu8   Cu    Cu3+1 0.719070 0.780890 0.500010 0.958529
Cu9   Cu    Cu3+1 0.280930 0.780890 0.499990 0.959510
Cu10  Cu    Cu3+1 0.219070 0.280890 0.500010 0.964382
Cu11  Cu    Cu3+1 0.780930 0.280890 0.499990 0.959510
Cu12  Cu    Cu3+1 0.465760 0.500000 0.431570 0.998667
F1    F     F_    0.998289 0.722456 0.849971 -0.553054
F2    F     F_    0.001726 0.722455 0.150036 -0.552940
F3    F     F_    0.498469 0.223067 0.849927 -0.553673
F4    F     F_    0.501794 0.222169 0.150091 -0.554159
F5    F     F_    0.928819 0.721765 0.711113 -0.574992
F6    F     F_    0.071180 0.721769 0.288892 -0.575020
F7    F     F_    0.429018 0.222445 0.711061 -0.576142
F8    F     F_    0.571269 0.221522 0.288927 -0.575155
H1    H     H_    0.613384 0.814514 0.281763 0.132932
H2    H     H_    0.204410 0.778247 0.281053 0.166800
H3    H     H_    0.295236 0.277423 0.718891 0.170452
H4    H     H_    0.704261 0.278471 0.280993 0.166890
H5    H     H_    0.858522 0.779429 0.844370 0.171167
H6    H     H_    0.141510 0.779458 0.155608 0.171082
H7    H     H_    0.358118 0.278598 0.844342 0.171771
H8    H     H_    0.641327 0.279657 0.155551 0.171307
H9    H     H_    0.578798 0.690586 0.423254 0.139667
H10   H     H_    0.421227 0.690496 0.576879 0.139639
H11   H     H_    0.079047 0.190808 0.424700 0.134120
H12   H     H_    0.386533 0.814542 0.718194 0.133012
H13   H     H_    0.921227 0.190508 0.576853 0.140128
H14   H     H_    0.521880 0.633364 0.422623 0.143062
H15   H     H_    0.478124 0.633295 0.577508 0.143132
H16   H     H_    0.022439 0.133847 0.424498 0.136494
H17   H     H_    0.978124 0.133307 0.577480 0.145769
H18   H     H_    0.696646 0.529841 0.571891 0.058219
H19   H     H_    0.303231 0.529933 0.427777 0.058281
H20   H     H_    0.208480 0.039828 0.611950 0.064332
H21   H     H_    0.803245 0.029922 0.427822 0.058048
H22   H     H_    0.550849 0.814499 0.156050 0.140920
H23   H     H_    0.113451 0.314541 0.281766 0.133132
H24   H     H_    0.449035 0.814530 0.843907 0.141007
H25   H     H_    0.050916 0.314528 0.156052 0.141358
H26   H     H_    0.949063 0.314519 0.843907 0.141341
H27   H     H_    0.754301 0.586560 0.570323 0.084764
H28   H     H_    0.245598 0.586624 0.429358 0.084817
H29   H     H_    0.264547 0.094904 0.607862 0.086233
H30   H     H_    0.745611 0.086613 0.429405 0.084593
H31   H     H_    0.605365 0.684671 0.155735 0.141246
H32   H     H_    0.394627 0.684635 0.844321 0.141214
H33   H     H_    0.105299 0.184643 0.155738 0.141164
H34   H     H_    0.886561 0.314531 0.718194 0.133163
H35   H     H_    0.894597 0.184648 0.844322 0.141167
H36   H     H_    0.668701 0.685050 0.281549 0.134160
H37   H     H_    0.331318 0.685012 0.718502 0.134136
H38   H     H_    0.168636 0.185021 0.281552 0.134392
H39   H     H_    0.831290 0.185025 0.718504 0.134056
H40   H     H_    0.771932 0.880923 0.417841 0.127241
H41   H     H_    0.228078 0.880421 0.583087 0.127008
H42   H     H_    0.271919 0.380743 0.417484 0.127204
H43   H     H_    0.728085 0.380751 0.582486 0.127247
H44   H     H_    0.828628 0.937523 0.417461 0.131551
H45   H     H_    0.959180 0.796068 0.623925 0.183779
H46   H     H_    0.171405 0.936984 0.583495 0.128293
H47   H     H_    0.328614 0.437350 0.417114 0.131826
H48   H     H_    0.671410 0.437329 0.582877 0.131823
H49   H     H_    0.981680 0.841151 0.533503 0.127305
H50   H     H_    0.017679 0.841255 0.464851 0.127240
H51   H     H_    0.481940 0.341225 0.534204 0.127173
H52   H     H_    0.518097 0.341167 0.465934 0.127235
H53   H     H_    0.014399 0.852244 0.626109 0.158060
H54   H     H_    0.985616 0.852908 0.372580 0.158654
H55   H     H_    0.514386 0.352526 0.626673 0.158739
H56   H     H_    0.040799 0.796763 0.374709 0.183965
H57   H     H_    0.485609 0.352496 0.373447 0.158453
H58   H     H_    0.926240 0.784874 0.531199 0.159004
H59   H     H_    0.073082 0.785004 0.467100 0.159176
H60   H     H_    0.426511 0.284942 0.531909 0.159013
H61   H     H_    0.573504 0.284915 0.468202 0.159078
H62   H     H_    0.737063 0.542270 0.685265 0.325083
H63   H     H_    0.262939 0.542525 0.314463 0.325094
H64   H     H_    0.213643 0.075266 0.696819 0.326716
H65   H     H_    0.762936 0.042503 0.314499 0.324899
H66   H     H_    0.799452 0.604890 0.683148 0.334741
H67   H     H_    0.459172 0.296346 0.624497 0.184761
H68   H     H_    0.200578 0.605109 0.316597 0.334743
H69   H     H_    0.276568 0.136164 0.692693 0.330493
H70   H     H_    0.700576 0.105087 0.316636 0.334475
H71   H     H_    0.540802 0.296350 0.375597 0.183575
H72   H     H_    0.795610 0.778214 0.718932 0.166814
N1    N     N_R   0.517275 0.711363 0.034297 -0.221346
N2    N     N_R   0.978751 0.753546 0.033885 -0.119242
N3    N     N_R   0.521161 0.253701 0.966070 -0.118671
N4    N     N_R   0.478662 0.253202 0.033879 -0.119941
N5    N     N_R   0.054910 0.753644 0.034612 -0.218955
N6    N     N_R   0.945119 0.753638 0.965378 -0.218834
N7    N     N_R   0.554803 0.253829 0.034577 -0.219159
N8    N     N_R   0.445018 0.253263 0.965373 -0.221482
N9    N     N_R   0.482699 0.711362 0.965747 -0.221291
N10   N     N_R   0.017238 0.211364 0.034300 -0.221464
N11   N     N_R   0.982662 0.211363 0.965749 -0.221525
N12   N     N_R   0.482836 0.787641 0.965715 -0.221770
N13   N     N_R   0.517032 0.787642 0.034252 -0.221623
N14   N     N_R   0.982873 0.287642 0.965716 -0.221110
N15   N     N_R   0.017069 0.287643 0.034254 -0.221133
N16   N     N_R   0.021279 0.753544 0.966105 -0.119398
O1    O     O_R   0.821190 0.768980 0.500000 -0.505273
O2    O     O_R   0.074010 0.954920 0.557790 -0.517266
O3    O     O_R   0.425990 0.454920 0.442210 -0.511978
O4    O     O_R   0.574010 0.454920 0.557790 -0.511858
O5    O     O_R   0.983760 0.954940 0.557800 -0.507350
O6    O     O_R   0.016240 0.954940 0.442200 -0.506205
O7    O     O_R   0.483760 0.454940 0.557800 -0.507398
O8    O     O_R   0.516240 0.454940 0.442200 -0.507479
O9    O     O_R   0.768960 0.821170 0.500020 -0.513705
O10   O     O_R   0.231040 0.821170 0.499980 -0.513219
O11   O     O_R   0.268960 0.321170 0.500020 -0.513972
O12   O     O_R   0.178810 0.768980 0.500000 -0.505391
O13   O     O_R   0.731040 0.321170 0.499980 -0.513625
O14   O     O_R   0.726180 0.723900 0.400140 -0.516525
O15   O     O_R   0.273820 0.723900 0.599860 -0.516589
O16   O     O_R   0.226180 0.223900 0.400140 -0.516471
O17   O     O_R   0.773820 0.223900 0.599860 -0.516586
O18   O     O_R   0.673950 0.776090 0.400160 -0.517667
O19   O     O_R   0.326050 0.776090 0.599840 -0.517600
O20   O     O_R   0.173950 0.276090 0.400160 -0.518641
O21   O     O_R   0.826050 0.276090 0.599840 -0.517550
O22   O     O_R   0.731010 0.678810 0.499990 -0.511455
O23   O     O_R   0.321190 0.268980 0.500000 -0.504794
O24   O     O_R   0.268990 0.678810 0.500010 -0.511511
O25   O     O_R   0.231010 0.178810 0.499990 -0.516029
O26   O     O_R   0.768990 0.178810 0.500010 -0.511590
O27   O     O_R   0.678790 0.731000 0.500010 -0.506585
O28   O     O_R   0.321210 0.731000 0.499990 -0.506571
O29   O     O_R   0.178790 0.231000 0.500010 -0.502636
O30   O     O_R   0.821210 0.231000 0.499990 -0.506320
O31   O     O_R   0.826030 0.723890 0.599860 -0.428707
O32   O     O_R   0.173970 0.723890 0.400140 -0.428828
O33   O     O_R   0.326030 0.223890 0.599860 -0.433202
O34   O     O_R   0.678810 0.268980 0.500000 -0.505335
O35   O     O_R   0.673970 0.223890 0.400140 -0.428777
O36   O     O_R   0.773800 0.776080 0.599870 -0.520424
O37   O     O_R   0.226200 0.776080 0.400130 -0.520374
O38   O     O_R   0.273800 0.276080 0.599870 -0.516321
O39   O     O_R   0.726200 0.276080 0.400130 -0.520363
O40   O     O_R   0.425940 0.545090 0.442170 -0.466426
O41   O     O_R   0.574060 0.545090 0.557830 -0.466354
O42   O     O_R   0.925940 0.045090 0.442170 -0.466162
O43   O     O_R   0.074060 0.045090 0.557830 -0.461687
O44   O     O_3   0.704433 0.561173 0.654040 -0.619012
O45   O     O_R   0.483700 0.545120 0.557760 -0.519205
O46   O     O_3   0.295591 0.561390 0.345770 -0.619053
O47   O     O_3   0.181793 0.085385 0.650439 -0.619851
O48   O     O_3   0.795587 0.061371 0.345798 -0.619062
O49   O     O_3   0.765226 0.622123 0.651589 -0.629267
O50   O     O_3   0.234822 0.622308 0.348236 -0.629374
O51   O     O_3   0.242540 0.144464 0.646723 -0.643310
O52   O     O_3   0.734818 0.122289 0.348265 -0.629407
O53   O     O_R   0.516300 0.545120 0.442240 -0.519248
O54   O     O_R   0.983700 0.045120 0.557760 -0.517815
O55   O     O_R   0.016300 0.045120 0.442240 -0.522727
O56   O     O_R   0.925990 0.954920 0.442210 -0.511491

loop_
_geom_bond_atom_site_label_1
_geom_bond_atom_site_label_2
_ccdc_geom_bond_type
Cu8   O9    S    
C81   H45   S    
C19   O42   A    
C10   H20   S    
C20   C144  S    
C91   H2    S    
C80   H52   S    
C130  H10   S    
C31   C101  A    
C89   H72   S    
C4    C142  A    
C95   C99   A    
C60   H41   S    
C5    C143  A    
N4    N8    A    
C51   C123  A    
C89   C94   A    
C34   H22   S    
Cu5   Cu9   S    
C131  C140  A    
C80   H57   S    
C25   O8    A    
C76   H49   S    
C38   H26   S    
C46   C55   A    
C70   C74   A    
C3    C19   S    
Cu1   O14   S    
Cu6   O33   S    
Cu7   Cu11  S    
C22   C69   S    
C30   C90   A    
C61   H42   S    
C31   H12   S    
C79   O34   A    
C14   C121  S    
H64   O47   S    
C24   C41   S    
C19   O54   A    
C64   H46   S    
Cu9   O19   S    
Cu10  O20   S    
C134  N12   A    
C13   C42   S    
C25   O4    A    
C77   H50   S    
C49   H37   S    
C50   H38   S    
C57   O10   A    
C44   H32   S    
C135  O28   A    
C84   H71   S    
C127  C136  S    
C109  F7    S    
C99   C116  S    
C30   C34   A    
C120  C125  A    
Cu7   O17   S    
H68   O50   S    
C87   C112  S    
H62   O44   S    
C36   H24   S    
C85   O18   A    
C78   H55   S    
C18   C142  S    
C76   H53   S    
C85   C90   S    
C16   O52   S    
N1    N9    A    
C14   O50   S    
H66   O49   S    
C9    O46   S    
Cu11  O13   S    
C58   C79   S    
C18   O41   A    
C137  O30   A    
C20   O55   A    
C63   H44   S    
C55   C57   S    
Cu5   O15   S    
C66   H48   S    
C24   N15   A    
Cu7   O35   S    
C53   C58   A    
Cu8   O36   S    
C64   C69   A    
Cu12  O53   S    
C59   C63   A    
C33   C38   A    
C133  O27   A    
C60   C64   A    
Cu3   O6    S    
C16   C124  S    
C49   C101  A    
C21   O5    A    
C45   C50   A    
C140  H16   S    
C141  H17   S    
C127  C131  A    
C139  H15   S    
C61   C65   A    
C88   O17   A    
C20   O43   A    
C126  C130  A    
C31   C36   A    
C103  C107  A    
C26   C111  S    
C57   O12   A    
Cu4   O2    S    
Cu3   Cu4   S    
C3    C141  A    
C128  C137  S    
C81   H58   S    
C53   C84   S    
C77   C82   S    
C86   O19   A    
C52   C74   A    
C45   H33   S    
C65   C70   A    
C92   C96   A    
C43   H31   S    
C67   C72   A    
C122  C127  A    
C10   O47   S    
C46   C82   S    
C139  C143  A    
C59   H40   S    
Cu10  O11   S    
C4    C8    S    
C14   H28   S    
C29   C115  S    
C48   C90   A    
C23   C70   S    
C47   H35   S    
C84   H61   S    
C117  N16   A    
C54   C59   A    
C17   O45   A    
C62   C66   A    
C34   C39   A    
Cu5   O24   S    
C2    N13   A    
C27   O32   A    
H63   O46   S    
C56   C68   S    
C40   C134  S    
Cu3   O56   S    
C88   O21   A    
C5    C9    S    
Cu8   O27   S    
C125  C129  A    
C87   O20   A    
C15   O51   S    
C8    C12   S    
C100  C119  S    
C32   C37   A    
C109  C114  A    
C27   C113  S    
C1    O9    A    
C6    C144  A    
Cu1   O31   S    
C93   C97   A    
C118  N4    A    
C132  C141  A    
Cu4   O43   S    
C105  C109  A    
N10   N11   A    
C41   C45   A    
C32   H23   S    
C107  C111  A    
C85   O14   A    
C30   H1    S    
C104  F2    S    
C78   H51   S    
N3    N7    A    
C2    N1    A    
Cu3   O42   S    
C87   O16   A    
Cu1   O22   S    
Cu6   O25   S    
C119  N3    A    
C68   O23   A    
C83   H67   S    
C33   H34   S    
C96   C100  A    
C37   C41   A    
C95   H6    S    
Cu1   Cu8   S    
C16   H30   S    
C91   C95   A    
C40   C44   A    
H69   O51   S    
H70   O52   S    
C46   C73   A    
C58   C62   A    
C15   C122  S    
Cu6   O16   S    
Cu4   O5    S    
C80   C84   S    
C129  H9    S    
C53   C75   A    
C22   O6    A    
C97   H8    S    
C48   H36   S    
Cu7   O26   S    
C3    C7    A    
C106  C110  A    
C94   C98   A    
C98   C103  A    
Cu12  O40   S    
H65   O48   S    
C73   C77   S    
C78   C83   S    
C107  F5    S    
C93   H4    S    
Cu9   O37   S    
C12   O49   S    
C96   H7    S    
C69   C73   A    
C119  N8    A    
C97   C102  A    
Cu12  O3    S    
C72   C76   S    
C124  C128  A    
Cu2   O4    S    
C117  N6    A    
C99   C104  A    
C29   O35   A    
C55   C60   A    
C35   C54   A    
Cu1   O1    S    
C86   O15   A    
C130  C139  A    
C1    O1    A    
C51   H39   S    
Cu6   O23   S    
C138  C142  A    
C47   C51   A    
C82   H59   S    
C8    O44   S    
N14   N15   A    
C21   O56   A    
C18   O53   A    
C52   C83   S    
C9    C14   S    
C26   O36   A    
C9    H19   S    
C11   C16   S    
C66   C71   A    
C27   O37   A    
C136  O29   A    
C83   H60   S    
C13   N11   A    
C35   C72   A    
Cu9   O28   S    
C62   H43   S    
C104  C108  A    
N12   N13   A    
C8    H18   S    
C12   H27   S    
N2    N6    A    
C116  N5    A    
C110  F8    S    
C32   C112  A    
C103  F1    S    
C140  C144  A    
C6    C10   S    
Cu4   O54   S    
C17   O40   A    
C17   C143  S    
C92   H3    S    
C105  F3    S    
C106  F4    S    
C131  H11   S    
C15   H29   S    
C82   H56   S    
C74   C78   S    
C56   C61   A    
Cu10  O29   S    
C110  C115  A    
C44   C49   A    
C108  C113  A    
C37   H25   S    
C116  N2    A    
C24   N10   A    
C7    C124  A    
Cu11  O21   S    
C35   C81   S    
C11   O48   S    
C7    C11   S    
C13   N14   A    
C100  C105  A    
C38   C42   A    
C10   C15   S    
C94   H5    S    
C77   H54   S    
Cu3   O55   S    
C135  O24   A    
C93   C115  A    
C12   C120  S    
C2    C39   S    
C129  C138  A    
Cu8   O18   S    
C43   C48   A    
C29   O39   A    
Cu5   O12   S    
C102  C118  S    
C132  H13   S    
C23   O7    A    
C21   C67   S    
Cu2   O7    S    
N5    N16   A    
C88   C123  S    
C128  C132  A    
Cu2   O41   S    
C63   C67   A    
C137  O26   A    
C22   O2    A    
C36   C40   A    
C23   O3    A    
C39   C43   A    
C108  F6    S    
Cu10  O38   S    
C91   C113  A    
C1    C54   S    
C50   C112  A    
Cu9   O10   S    
C26   O31   A    
C28   C114  S    
C25   C71   S    
C28   O33   A    
C6    C122  A    
C138  H14   S    
Cu7   O34   S    
C118  N7    A    
C98   C117  S    
C75   C80   S    
Cu2   O45   S    
C125  C133  S    
C5    C121  A    
C133  O22   A    
C134  N9    A    
Cu11  O39   S    
C11   H21   S    
C76   C81   S    
C126  C135  S    
C89   C111  A    
Cu11  O30   S    
C136  O25   A    
C28   O38   A    
C121  C126  A    
C71   C75   A    
C79   O13   A    
Cu5   O32   S    
C102  C106  A    
C42   C47   A    
C65   H47   S    
Cu2   Cu12  S    
Cu6   Cu10  S    
C33   C123  A    
C4    C120  A    
C86   C101  S    
C92   C114  A    
C68   O11   A    
C52   C56   A    
Cu12  O8    S    
