data_mof_unit_42781.cif
_audit_creation_date              2012-12-10T17:39:00-0500
_audit_creation_method            fapswitch 2.2
_symmetry_space_group_name_H-M    P1
_symmetry_Int_Tables_number       1
_space_group_crystal_system       triclinic
_cell_length_a                    12.171651
_cell_length_b                    12.895373
_cell_length_c                    22.85041
_cell_angle_alpha                 90.456712
_cell_angle_beta                  84.301753
_cell_angle_gamma                 93.835083
_cell_volume                      3560.83674174

loop_
_atom_site_label
_atom_site_type_symbol
_atom_type_description
_atom_site_fract_x
_atom_site_fract_y
_atom_site_fract_z
_atom_type_partial_charge
C1    C     C_R   0.521930 0.701372 0.501799 0.940358
C2    C     C_R   0.490522 0.432843 0.287130 -0.049747
C3    C     C_R   0.461927 0.654803 0.749989 0.413709
C4    C     C_R   0.472527 0.451617 0.227838 0.367315
C5    C     C_R   0.453743 0.576962 0.793302 -0.040775
C6    C     C_R   0.446106 0.552426 0.212061 -0.016908
C7    C     C_R   0.459880 0.186321 0.512583 -0.120626
C8    C     C_R   0.534317 0.814615 0.512562 -0.091487
C9    C     C_R   0.648782 0.975631 0.521715 0.172328
C10   C     C_R   0.361962 0.035536 0.562956 0.122930
C11   C     C_R   0.641517 0.866774 0.515950 0.071756
C12   C     C_R   0.476799 0.298793 0.501463 0.939276
C13   C     C_R   0.364904 0.141905 0.547999 0.115529
C14   C     C_R   0.436812 0.871477 0.524864 0.054750
C15   C     C_R   0.550660 0.125823 0.497446 0.016358
C16   C     C_R   0.498529 0.500155 0.611440 1.053651
C17   C     C_R   0.501798 0.503459 0.388953 1.025094
C18   C     C_R   0.449996 0.976683 0.539856 0.057442
C19   C     C_R   0.551574 0.028138 0.522312 0.062878
C20   C     C_R   0.961962 0.514628 0.422960 0.387821
C21   C     C_R   0.037264 0.574180 0.565563 0.422411
C22   C     C_R   0.848044 0.483314 0.432721 0.361171
C23   C     C_R   0.473447 0.472142 0.778526 0.308744
C24   C     C_R   0.149813 0.553348 0.562746 0.332637
C25   C     C_R   0.856189 0.499625 0.535880 0.486100
C26   C     C_R   0.143935 0.496668 0.463713 0.508991
C27   C     C_R   0.972728 0.527513 0.524688 -0.301828
C28   C     C_R   0.027264 0.512889 0.469673 -0.316642
C29   C     C_R   0.336326 0.553386 0.129130 0.697590
C30   C     C_R   0.524300 0.652481 0.879366 0.705938
C31   C     C_R   0.521358 0.629179 0.120449 0.645279
C32   C     C_R   0.336791 0.582644 0.884713 0.656275
C33   C     C_R   0.511806 0.662211 0.062912 -0.058626
C34   C     C_R   0.447618 0.634681 0.252732 0.353843
C35   C     C_R   0.325392 0.589264 0.946837 -0.056676
C36   C     C_R   0.417532 0.625487 0.035853 -0.077610
C37   C     C_R   0.418313 0.631499 0.974381 -0.060685
C38   C     C_R   0.324321 0.579646 0.070274 -0.071456
C39   C     C_R   0.516098 0.671460 0.940409 -0.045955
C40   C     C_R   0.594977 0.726920 0.031045 0.171126
C41   C     C_R   0.227013 0.552983 0.982318 0.146752
C42   C     C_R   0.602490 0.725547 0.968864 0.149848
C43   C     C_R   0.224239 0.558895 0.044374 0.172161
C44   C     C_3   0.669177 0.803029 0.062831 -0.700366
C45   C     C_R   0.489487 0.443816 0.718038 0.240083
C46   C     C_3   0.128014 0.501285 0.955263 -0.692596
C47   C     C_3   0.701607 0.781265 0.933608 -0.690964
C48   C     C_3   0.114100 0.552346 0.082086 -0.704331
C49   C     C_3   0.533617 0.713515 0.647267 -0.674935
C50   C     C_3   0.497153 0.323117 0.309074 -0.642197
C51   C     C_3   0.631112 0.151861 0.444227 -0.661204
C52   C     C_3   0.321304 0.829177 0.511729 -0.656828
C53   C     C_3   0.268263 0.205904 0.568984 -0.654119
C54   C     C_3   0.747427 0.809604 0.510600 -0.665383
C55   C     C_3   0.756658 0.036638 0.531115 -0.797966
C56   C     C_R   0.494369 0.620618 0.305396 0.272722
C57   C     C_3   0.274902 0.987878 0.608825 -0.708149
C58   C     C_R   0.497193 0.523138 0.674764 -0.208810
C59   C     C_R   0.503467 0.518710 0.325438 -0.194888
C60   C     C_R   0.496119 0.628806 0.691616 0.022759
H1    H     H_    0.637450 0.815501 0.109240 0.297294
H2    H     H_    0.745456 0.464948 0.287620 0.385044
H3    H     H_    0.074700 0.564593 0.269667 0.403805
H4    H     H_    0.900744 0.675885 0.674880 0.411124
H5    H     H_    0.758102 0.828147 0.959881 0.217236
H6    H     H_    0.754158 0.723440 0.910678 0.272482
H7    H     H_    0.672818 0.835284 0.901632 0.282299
H8    H     H_    0.048872 0.585912 0.058853 0.222757
H9    H     H_    0.088862 0.470303 0.094039 0.273610
H10   H     H_    0.118044 0.600584 0.122371 0.273059
H11   H     H_    0.471334 0.382467 0.931406 0.396768
H12   H     H_    0.754224 0.776065 0.060744 0.251989
H13   H     H_    0.441381 0.890932 0.186115 0.394652
H14   H     H_    0.538680 0.224744 0.617893 0.388634
H15   H     H_    0.722827 0.748693 0.366499 0.397728
H16   H     H_    0.597280 0.686412 0.613797 0.206404
H17   H     H_    0.462105 0.738193 0.625737 0.247096
H18   H     H_    0.574821 0.781612 0.668014 0.279530
H19   H     H_    0.488680 0.317314 0.357623 0.200049
H20   H     H_    0.429154 0.271330 0.293933 0.234455
H21   H     H_    0.578393 0.293916 0.293059 0.285961
H22   H     H_    0.268576 0.764318 0.817449 0.383642
H23   H     H_    0.670915 0.881479 0.042964 0.229991
H24   H     H_    0.316102 0.285239 0.212080 0.364593
H25   H     H_    0.586977 0.188118 0.410356 0.245430
H26   H     H_    0.702031 0.202211 0.457205 0.281655
H27   H     H_    0.663992 0.081090 0.422867 0.243605
H28   H     H_    0.323607 0.792124 0.467807 0.289093
H29   H     H_    0.284706 0.773823 0.546401 0.262457
H30   H     H_    0.262979 0.890564 0.508063 0.236972
H31   H     H_    0.230325 0.235083 0.530652 0.259976
H32   H     H_    0.200217 0.162744 0.596073 0.230687
H33   H     H_    0.297301 0.271383 0.596314 0.297432
H34   H     H_    0.154650 0.435441 0.926914 0.288796
H35   H     H_    0.758972 0.770657 0.467307 0.258503
H36   H     H_    0.823589 0.860223 0.512709 0.265567
H37   H     H_    0.745661 0.752581 0.546787 0.267565
H38   H     H_    0.743942 0.118832 0.543185 0.266404
H39   H     H_    0.793936 0.003449 0.568633 0.269049
H40   H     H_    0.815179 0.035140 0.490666 0.249030
H41   H     H_    0.293923 0.908806 0.621744 0.282248
H42   H     H_    0.272815 0.035437 0.649602 0.275585
H43   H     H_    0.192075 0.983248 0.592165 0.247684
H44   H     H_    0.063460 0.465289 0.987755 0.224941
H45   H     H_    0.088678 0.558925 0.929717 0.260886
H46   H     H_    0.280391 0.279428 0.386683 0.369662
H47   H     H_    0.742892 0.484412 0.690682 0.395891
H48   H     H_    0.113685 0.555014 0.723592 0.403323
N1    N     N_R   0.434141 0.577135 0.152098 -0.310076
N2    N     N_R   0.436806 0.606636 0.853910 -0.293259
N3    N     N_R   0.207800 0.519350 0.510590 -0.231919
N4    N     N_R   0.792200 0.480650 0.489410 -0.229245
O1    O     O_R   0.421690 0.658830 0.502820 -0.626424
O2    O     O_2   0.619912 0.673987 0.845332 -0.537170
O3    O     O_2   0.618933 0.642936 0.143813 -0.513684
O4    O     O_2   0.251009 0.550978 0.854494 -0.552661
O5    O     O_2   0.092545 0.355005 0.381318 -0.246696
O6    O     O_2   0.243598 0.483615 0.352762 -0.247826
O7    O     O_3   0.277427 0.329751 0.419679 -0.568923
O8    O     O_2   0.736700 0.345852 0.594696 -0.253555
O9    O     O_2   0.912573 0.402266 0.630958 -0.254178
O10   O     O_3   0.749913 0.520540 0.652274 -0.524947
O11   O     O_2   0.232396 0.436862 0.643700 -0.286027
O12   O     O_R   0.578310 0.341170 0.497180 -0.566510
O13   O     O_2   0.276972 0.627527 0.645046 -0.306712
O14   O     O_3   0.082358 0.554552 0.685191 -0.490347
O15   O     O_2   0.887825 0.358941 0.339277 -0.200623
O16   O     O_2   0.702842 0.342197 0.388062 -0.356872
O17   O     O_3   0.759634 0.505413 0.323438 -0.463032
O18   O     O_2   0.923265 0.661295 0.346363 -0.254855
O19   O     O_2   0.112804 0.657764 0.372038 -0.248905
O20   O     O_3   0.041758 0.515899 0.300911 -0.403665
O21   O     O_2   0.089690 0.751036 0.625342 -0.258284
O22   O     O_2   0.988429 0.764894 0.539665 -0.314273
O23   O     O_R   0.609320 0.646410 0.496030 -0.628338
O24   O     O_3   0.880802 0.692129 0.635140 -0.488292
O25   O     O_2   0.354028 0.328767 0.846491 -0.231726
O26   O     O_2   0.548188 0.294277 0.822264 -0.149576
O27   O     O_3   0.504275 0.431397 0.900287 -0.583870
O28   O     O_2   0.289694 0.731218 0.203059 -0.310637
O29   O     O_2   0.349964 0.807994 0.293086 -0.171941
O30   O     O_3   0.482276 0.831297 0.197077 -0.519860
O31   O     O_2   0.619562 0.284092 0.711707 -0.201431
O32   O     O_2   0.419606 0.241135 0.730150 -0.179921
O33   O     O_3   0.501077 0.290004 0.625504 -0.602160
O34   O     O_R   0.390680 0.353590 0.503970 -0.580928
O35   O     O_2   0.597335 0.812212 0.297437 -0.202890
O36   O     O_2   0.471581 0.772617 0.385548 -0.299438
O37   O     O_3   0.663326 0.693361 0.375572 -0.533273
O38   O     O_2   0.535546 0.846780 0.780105 -0.206257
O39   O     O_2   0.380319 0.835452 0.719935 -0.276180
O40   O     O_3   0.341089 0.789931 0.830072 -0.525717
O41   O     O_2   0.517917 0.392260 0.114376 -0.249464
O42   O     O_2   0.549217 0.266560 0.188532 -0.254187
O43   O     O_3   0.346711 0.296264 0.170650 -0.453487
O44   O     O_R   0.406170 0.506240 0.587240 -0.553588
O45   O     O_R   0.593830 0.493760 0.412760 -0.513521
O46   O     O_R   0.593790 0.493820 0.580450 -0.551014
O47   O     O_R   0.406210 0.506180 0.419550 -0.555103
O48   O     O_2   0.253805 0.500816 0.162609 -0.503013
S1    S     S_3+6 0.189896 0.416794 0.402554 0.089830
S2    S     S_3+6 0.555795 0.729067 0.341461 0.089344
S3    S     S_3+6 0.430350 0.785137 0.769203 0.087524
S4    S     S_3+6 0.475724 0.349858 0.174051 0.089152
S5    S     S_3+6 0.813632 0.438908 0.604582 0.103062
S6    S     S_3+6 0.191165 0.542162 0.634632 0.093719
S7    S     S_3+6 0.797617 0.418392 0.370706 0.105131
S8    S     S_3+6 0.011253 0.591297 0.359897 0.150559
S9    S     S_3+6 0.000917 0.698681 0.592025 0.062597
S10   S     S_3+6 0.469885 0.377905 0.836741 0.123072
S11   S     S_3+6 0.388000 0.753171 0.237206 0.115029
S12   S     S_3+6 0.507333 0.311782 0.697186 0.118277
Zn1   Zn    Zn3+2 0.374720 0.508290 0.504530 1.078477
Zn2   Zn    Zn3+2 0.625280 0.491710 0.495470 1.094191

loop_
_geom_bond_atom_site_label_1
_geom_bond_atom_site_label_2
_ccdc_geom_bond_type
N4    Zn2   S    
H4    O24   S    
O6    S1    D    
C34   C56   A    
C23   C45   A    
H46   O7    S    
O26   S10   D    
C1    C8    S    
C14   C18   A    
H14   O33   S    
C52   H30   S    
C5    C23   A    
C48   H9    S    
C44   H23   S    
C50   H19   S    
C51   H25   S    
C46   H45   S    
C15   C19   A    
O38   S3    D    
C49   C60   S    
C32   N2    A    
C30   N2    A    
O42   S4    D    
C36   C37   A    
C35   C37   A    
C10   C18   A    
O31   S12   D    
H24   O43   S    
O12   Zn2   S    
C5    N2    S    
C58   C60   A    
O34   Zn1   S    
C56   S2    S    
O29   S11   D    
C33   C36   A    
C49   H18   S    
O27   S10   S    
C18   C19   A    
C47   H7    S    
O21   S9    D    
C2    C50   S    
C25   N4    A    
O11   S6    D    
O46   Zn2   S    
C14   C52   S    
O22   S9    D    
C12   O12   A    
C55   H40   S    
C16   O44   A    
O16   S7    D    
C41   C46   S    
C4    S4    S    
C54   H37   S    
C9    C55   S    
C15   C51   S    
C29   O48   S    
C17   O45   A    
C43   C48   S    
C47   H6    S    
C54   H36   S    
C3    S3    S    
O45   Zn2   S    
O39   S3    D    
C3    C60   A    
C40   C42   A    
C21   C27   A    
O33   S12   S    
O10   S5    S    
C41   C43   A    
H2    O17   S    
O7    S1    S    
C52   H29   S    
C24   N3    A    
C1    O1    A    
C20   S8    S    
C51   H26   S    
C31   O3    S    
C9    C19   A    
O8    S5    D    
C39   C42   A    
C13   C53   S    
H13   O30   S    
C7    C12   S    
C57   H43   S    
C45   C58   A    
C33   C40   A    
O17   S7    S    
O41   S4    D    
C16   O46   A    
C32   C35   A    
C12   O34   A    
C52   H28   S    
C10   C57   S    
C4    C6    A    
C51   H27   S    
C2    C59   A    
H11   O27   S    
C20   C28   A    
C25   S5    S    
C53   H33   S    
O44   Zn1   S    
C10   C13   A    
C32   O4    S    
C6    C34   A    
C29   C38   A    
C24   S6    S    
O23   Zn2   S    
C53   H31   S    
C57   H42   S    
C46   H34   S    
C7    C13   A    
C53   H32   S    
C31   C33   A    
C31   N1    A    
C49   H16   S    
C16   C58   S    
H3    O20   S    
C48   H8    S    
C9    C11   A    
C54   H35   S    
C11   C54   S    
C17   C59   S    
C22   S7    S    
C20   C22   A    
O19   S8    D    
O28   S11   D    
C22   N4    A    
C44   H1    S    
C6    N1    S    
C45   S12   S    
C3    C5    A    
C57   H41   S    
O1    Zn1   S    
C30   O2    S    
C29   N1    A    
C8    C14   A    
N3    Zn1   S    
O20   S8    S    
C48   H10   S    
O14   S6    S    
O35   S2    D    
C50   H20   S    
O43   S4    S    
C25   C27   A    
O9    S5    D    
O32   S12   D    
C26   S1    S    
C26   C28   A    
C56   C59   A    
O5    S1    D    
C36   C38   A    
O13   S6    D    
O36   S2    D    
C38   C43   A    
C37   C39   A    
C23   S10   S    
C46   H44   S    
H15   O37   S    
C8    C11   A    
C21   S9    S    
C2    C4    A    
C55   H38   S    
C7    C15   A    
C49   H17   S    
C30   C39   A    
C44   H12   S    
C42   C47   S    
C35   C41   A    
O40   S3    S    
C17   O47   A    
O18   S8    D    
C40   C44   S    
O24   S9    S    
O15   S7    D    
O47   Zn1   S    
C21   C24   A    
C55   H39   S    
C27   C28   A    
O37   S2    S    
H47   O10   S    
H48   O14   S    
C1    O23   A    
C26   N3    A    
C47   H5    S    
H22   O40   S    
C34   S11   S    
C50   H21   S    
O30   S11   S    
O25   S10   D    
