data_mof_unit_21804.cif
_audit_creation_date              2012-12-10T17:47:03-0500
_audit_creation_method            fapswitch 2.2
_symmetry_space_group_name_H-M    P1
_symmetry_Int_Tables_number       1
_space_group_crystal_system       triclinic
_cell_length_a                    10.008683
_cell_length_b                    10.59828
_cell_length_c                    13.582048
_cell_angle_alpha                 92.150622
_cell_angle_beta                  83.027721
_cell_angle_gamma                 90.102192
_cell_volume                      1429.04641295

loop_
_atom_site_label
_atom_site_type_symbol
_atom_type_description
_atom_site_fract_x
_atom_site_fract_y
_atom_site_fract_z
_atom_type_partial_charge
C1    C     C_R   0.500107 0.739066 0.498963 0.845234
C2    C     C_1   0.457549 0.502502 0.789574 -0.201477
C3    C     C_R   0.463780 0.859607 0.316533 -0.172196
C4    C     C_R   0.446182 0.921209 0.230007 -0.137748
C5    C     C_R   0.446200 0.052608 0.229898 -0.134135
C6    C     C_R   0.463793 0.122786 0.316316 -0.183990
C7    C     C_R   0.481321 0.061600 0.404625 0.087337
C8    C     C_R   0.481382 0.929421 0.404761 0.096335
C9    C     C_R   0.500435 0.871371 0.493680 -0.083740
C10   C     C_R   0.518376 0.939977 0.580302 -0.230588
C11   C     C_R   0.519636 0.068939 0.579897 -0.190502
C12   C     C_R   0.475790 0.499971 0.685442 0.871313
C13   C     C_R   0.500657 0.128460 0.493296 -0.086100
C14   C     C_R   0.839703 0.609030 0.665775 0.217048
C15   C     C_R   0.889747 0.597147 0.757846 0.141710
C16   C     C_R   0.030298 0.587917 0.757448 0.134486
C17   C     C_R   0.110551 0.602028 0.666242 0.218972
C18   C     C_R   0.059147 0.551905 0.580522 0.029320
C19   C     C_R   0.915943 0.553369 0.580339 0.015120
C20   C     C_R   0.942589 0.446106 0.423592 0.223455
C21   C     C_R   0.084965 0.447873 0.423906 -0.100483
C22   C     C_R   0.500174 0.260996 0.498429 0.853929
C23   C     C_R   0.524042 0.497293 0.314558 0.859020
C24   C     C_1   0.540573 0.482690 0.210690 -0.198845
C25   C     C_2   0.544204 0.455091 0.019675 -0.168415
C26   C     C_2   0.442740 0.507872 0.981904 -0.161335
C27   C     C_1   0.445989 0.505206 0.877704 -0.014162
C28   C     C_1   0.547348 0.468377 0.123101 0.001273
H1    H     H_    0.362235 0.558349 0.028095 0.156824
H2    H     H_    0.149922 0.405257 0.362100 0.150605
H3    H     H_    0.624825 0.404817 0.973591 0.156785
H4    H     H_    0.529351 0.893817 0.648617 0.134428
H5    H     H_    0.463875 0.757619 0.313621 0.135278
H6    H     H_    0.432854 0.866834 0.162836 0.136775
H7    H     H_    0.432929 0.100303 0.162642 0.139266
H8    H     H_    0.464107 0.224598 0.313267 0.130008
H9    H     H_    0.533367 0.122691 0.647474 0.142660
N1    N     N_R   0.857120 0.501200 0.500900 -0.096985
N2    N     N_R   0.142720 0.501280 0.500940 -0.112310
O1    O     O_R   0.385310 0.683220 0.500000 -0.616517
O2    O     O_R   0.614640 0.683250 0.500010 -0.610160
O3    O     O_R   0.368830 0.499960 0.640340 -0.600486
O4    O     O_R   0.598160 0.499980 0.640350 -0.599293
O5    O     O_R   0.385360 0.316750 0.499990 -0.606819
O6    O     O_R   0.614690 0.316780 0.500000 -0.616055
O7    O     O_R   0.401840 0.500020 0.359650 -0.616410
O8    O     O_R   0.631170 0.500040 0.359660 -0.608868
Zn1   Zn    Zn3+2 0.346870 0.499980 0.499990 0.943896
Zn2   Zn    Zn3+2 0.653130 0.500020 0.500010 0.942773
C29   C     C_3   0.765585 0.730740 0.655982 -0.802963
H10   H     H_    0.655995 0.718371 0.674909 0.235656
H11   H     H_    0.796817 0.805390 0.708165 0.209245
H12   H     H_    0.791873 0.768973 0.581204 0.250312
C30   C     C_3   0.797958 0.619208 0.853383 -0.883279
H13   H     H_    0.692251 0.633176 0.839603 0.253131
H14   H     H_    0.801287 0.536165 0.900254 0.237262
H15   H     H_    0.829893 0.704874 0.893869 0.243761
C31   C     C_3   0.097335 0.586584 0.851221 -0.880097
H16   H     H_    0.025502 0.575154 0.918948 0.243606
H17   H     H_    0.167922 0.505437 0.845767 0.249069
H18   H     H_    0.154503 0.675079 0.860894 0.239488
C32   C     C_3   0.185490 0.725970 0.658906 -0.787402
H19   H     H_    0.289894 0.716020 0.676579 0.241712
H20   H     H_    0.182192 0.766888 0.585225 0.245957
H21   H     H_    0.136023 0.798126 0.712804 0.201329
C33   C     C_3   0.888710 0.381970 0.336411 -0.826501
H22   H     H_    0.966209 0.320818 0.292774 0.196363
H23   H     H_    0.802956 0.320199 0.361382 0.269148
H24   H     H_    0.859111 0.453907 0.285936 0.247972

loop_
_geom_bond_atom_site_label_1
_geom_bond_atom_site_label_2
_ccdc_geom_bond_type
C25   H3    S    
O3    Zn1   S    
C33   H23   S    
C23   C24   S    
C32   H19   S    
C19   N1    A    
C17   C32   S    
C20   N1    A    
C9    C10   A    
C29   H11   S    
C32   H21   S    
O6    Zn2   S    
C18   N2    A    
C2    C27   T    
C2    C12   S    
C31   H18   S    
C32   H20   S    
C17   C18   A    
C31   H16   S    
C7    C8    A    
O8    Zn2   S    
C23   O7    A    
C16   C31   S    
C25   C28   S    
C11   C13   A    
C26   C27   S    
C6    C7    A    
C4    C5    A    
C5    H7    S    
C1    O2    A    
C6    H8    S    
C13   C22   S    
C33   H22   S    
C12   O4    A    
O7    Zn1   S    
C4    H6    S    
C5    C6    A    
C30   H14   S    
C3    C8    A    
C33   H24   S    
C23   O8    A    
C10   C11   A    
C14   C29   S    
C31   H17   S    
C15   C16   A    
C29   H12   S    
C15   C30   S    
C10   H4    S    
C20   C33   S    
C7    C13   A    
C22   O6    A    
C1    C9    S    
C20   C21   A    
C26   H1    S    
C11   H9    S    
C18   C19   A    
C21   H2    S    
O2    Zn2   S    
N1    Zn2   S    
C3    H5    S    
O1    Zn1   S    
O4    Zn2   S    
C12   O3    A    
C14   C15   A    
C1    O1    A    
C29   H10   S    
C25   C26   D    
C30   H13   S    
C14   C19   A    
C22   O5    A    
C3    C4    A    
O5    Zn1   S    
C16   C17   A    
C24   C28   T    
C8    C9    A    
N2    Zn1   S    
C30   H15   S    
C21   N2    A    
