data_mof_unit_40653.cif
_audit_creation_date              2012-10-26T18:54:53-0400
_audit_creation_method            fapswitch 2.2
_symmetry_space_group_name_H-M    P1
_symmetry_Int_Tables_number       1
_space_group_crystal_system       triclinic
_cell_length_a                    10.912987
_cell_length_b                    9.532805
_cell_length_c                    10.811373
_cell_angle_alpha                 89.643397
_cell_angle_beta                  91.301883
_cell_angle_gamma                 89.951754
_cell_volume                      1124.40936621

loop_
_atom_site_label
_atom_site_type_symbol
_atom_type_description
_atom_site_fract_x
_atom_site_fract_y
_atom_site_fract_z
_atom_type_partial_charge
C1    C     C_R   0.262214 0.499114 0.503523 0.547778
C2    C     C_R   0.488082 0.617382 0.934766 0.012347
C3    C     C_R   0.526408 0.501819 0.129615 -0.033528
C4    C     C_R   0.528509 0.501324 0.870620 0.012766
C5    C     C_R   0.590741 0.393139 0.068533 -0.044442
C6    C     C_R   0.593594 0.394422 0.936686 0.001862
C7    C     C_3   0.371424 0.698042 0.922106 -0.265343
C8    C     C_3   0.370674 0.699673 0.062330 -0.241535
C9    C     C_R   0.063566 0.365753 0.506460 -0.032625
C10   C     C_R   0.936337 0.366162 0.490856 -0.023852
C11   C     C_R   0.871688 0.495132 0.495082 0.002511
C12   C     C_R   0.737767 0.499149 0.496975 0.565917
C13   C     C_R   0.128217 0.494897 0.506486 -0.011411
C14   C     C_R   0.936456 0.621663 0.502416 -0.125627
C15   C     C_R   0.063268 0.621636 0.505262 -0.129810
C16   C     C_2   0.659555 0.286163 0.143076 0.251207
C17   C     C_2   0.669872 0.292106 0.869506 0.254522
C18   C     C_1   0.123689 0.231232 0.528139 0.242914
C19   C     C_1   0.875915 0.232909 0.465751 0.243597
C20   C     C_1   0.324376 0.859689 0.354488 0.238667
C21   C     C_1   0.662892 0.854791 0.659649 0.244238
C22   C     C_R   0.421807 0.075991 0.424095 0.050314
C23   C     C_R   0.577879 0.074446 0.576366 0.026930
C24   C     C_R   0.419447 0.927669 0.425778 0.105192
C25   C     C_R   0.578935 0.925962 0.576126 0.088414
C26   C     C_R   0.506222 0.500283 0.262382 0.529210
C27   C     C_R   0.508040 0.499713 0.737471 0.585235
C28   C     C_R   0.487730 0.618363 0.061106 0.017998
Cu1   Cu    Cu3+1 0.500000 0.640660 0.500000 1.004417
Cu2   Cu    Cu3+1 0.500000 0.359340 0.500000 1.005807
H1    H     H_    0.385466 0.803487 0.880275 0.161437
H2    H     H_    0.669747 0.181795 0.893840 0.160272
H3    H     H_    0.293800 0.638664 0.101658 0.164095
H4    H     H_    0.295497 0.635513 0.879881 0.142378
H5    H     H_    0.384627 0.806692 0.100133 0.174379
H6    H     H_    0.889174 0.721537 0.504783 0.167018
H7    H     H_    0.110383 0.721529 0.508054 0.170282
H8    H     H_    0.358633 0.134012 0.364346 0.131741
H9    H     H_    0.640053 0.131109 0.637155 0.154239
H10   H     H_    0.708577 0.317411 0.226915 0.133269
N1    N     N_R   0.500000 0.852070 0.500000 -0.258072
N2    N     N_R   0.500000 0.147940 0.500000 -0.243535
N3    N     N_1   0.169783 0.123483 0.546437 -0.300492
N4    N     N_1   0.829259 0.126378 0.444946 -0.276989
N5    N     N_1   0.245731 0.807018 0.298294 -0.325390
N6    N     N_1   0.730637 0.798447 0.727310 -0.271812
O1    O     O_R   0.319640 0.618740 0.499990 -0.501260
O2    O     O_2   0.735917 0.331649 0.786570 -0.505121
O3    O     O_R   0.680360 0.618740 0.500010 -0.502438
O4    O     O_R   0.319620 0.381170 0.499990 -0.502118
O5    O     O_R   0.680380 0.381170 0.500010 -0.486091
O6    O     O_R   0.499990 0.618810 0.319660 -0.490143
O7    O     O_R   0.500010 0.618810 0.680340 -0.501227
O8    O     O_R   0.499960 0.381240 0.319650 -0.513346
O9    O     O_R   0.500040 0.381240 0.680350 -0.490255
O10   O     O_2   0.658061 0.162344 0.115209 -0.514491

loop_
_geom_bond_atom_site_label_1
_geom_bond_atom_site_label_2
_ccdc_geom_bond_type
C2    C4    A    
C11   C12   S    
C27   O7    A    
Cu1   Cu2   S    
C26   O6    A    
C2    C28   A    
Cu2   O9    S    
C20   N5    T    
C17   O2    D    
C10   C19   S    
Cu2   O5    S    
C4    C27   S    
C16   O10   D    
C12   O3    A    
Cu2   O4    S    
C7    C8    S    
Cu1   O3    S    
C18   N3    T    
C24   N1    A    
Cu2   O8    S    
C22   N2    A    
C23   N2    A    
Cu1   O7    S    
Cu1   O1    S    
C23   H9    S    
C26   O8    A    
C9    C10   A    
C1    O1    A    
C3    C28   A    
C7    H4    S    
C16   H10   S    
C21   N6    T    
C27   O9    A    
C8    H3    S    
C13   C15   A    
C14   H6    S    
C5    C6    A    
C8    C28   S    
C11   C14   A    
C22   C24   A    
C7    H1    S    
C10   C11   A    
C22   H8    S    
C20   C24   S    
C9    C18   S    
C12   O5    A    
C1    C13   S    
C19   N4    T    
C4    C6    A    
C23   C25   A    
C1    O4    A    
C25   N1    A    
C6    C17   S    
C17   H2    S    
C9    C13   A    
C14   C15   A    
C15   H7    S    
C5    C16   S    
C21   C25   S    
Cu1   N1    S    
Cu1   O6    S    
C3    C26   S    
Cu2   N2    S    
C2    C7    S    
C3    C5    A    
C8    H5    S    
