data_mof_unit_47518.cif
_audit_creation_date              2012-12-10T18:57:08-0500
_audit_creation_method            fapswitch 2.2
_symmetry_space_group_name_H-M    P1
_symmetry_Int_Tables_number       1
_space_group_crystal_system       triclinic
_cell_length_a                    8.787898
_cell_length_b                    10.845168
_cell_length_c                    9.583071
_cell_angle_alpha                 92.184113
_cell_angle_beta                  97.752534
_cell_angle_gamma                 90.730486
_cell_volume                      904.173435831

loop_
_atom_site_label
_atom_site_type_symbol
_atom_type_description
_atom_site_fract_x
_atom_site_fract_y
_atom_site_fract_z
_atom_type_partial_charge
C1    C     C_R   0.499779 0.263118 0.498023 0.805682
C2    C     C_R   0.396842 0.931324 0.394910 0.252091
C3    C     C_R   0.490517 0.870456 0.503324 -0.134105
C4    C     C_R   0.582166 0.944246 0.604412 0.000634
C5    C     C_3   0.700009 0.948610 0.734173 0.068977
C6    C     C_3   0.703882 0.090956 0.724200 0.038567
C7    C     C_R   0.600034 0.573857 0.089055 0.216486
C8    C     C_R   0.407604 0.420296 0.058170 0.331837
C9    C     C_R   0.405196 0.423984 0.909175 -0.134696
C10   C     C_R   0.602892 0.571451 0.942346 0.240447
C11   C     C_3   0.617130 0.707904 0.942676 -0.507700
C12   C     C_R   0.204625 0.495362 0.463742 0.799445
C13   C     C_3   0.609142 0.711273 0.099369 -0.505520
C14   C     C_R   0.498584 0.737365 0.501913 0.825219
C15   C     C_R   0.795857 0.498705 0.535342 0.887523
C16   C     C_2   0.039867 0.481095 0.442078 0.071224
C17   C     C_2   0.961539 0.503152 0.551864 -0.419447
C18   C     C_R   0.587410 0.068485 0.597884 -0.010707
C19   C     C_R   0.498576 0.130933 0.494942 -0.117000
C20   C     C_R   0.399895 0.061310 0.394120 -0.287428
Cu1   Cu    Cu3+1 0.499990 0.499980 0.640670 0.932686
Cu2   Cu    Cu3+1 0.500010 0.500020 0.359330 0.976566
H1    H     H_    0.324351 0.367202 0.838688 0.150199
H2    H     H_    0.515993 0.750396 0.881655 0.216944
H3    H     H_    0.651729 0.922516 0.829693 0.088238
H4    H     H_    0.656120 0.143285 0.810169 0.126338
N1    N     N_R   0.500980 0.500930 0.148050 -0.199712
N2    N     N_R   0.500990 0.500890 0.852140 -0.201755
O1    O     O_R   0.500000 0.319640 0.618810 -0.594862
O2    O     O_R   0.500020 0.319680 0.381230 -0.551783
O3    O     O_R   0.274830 0.499980 0.591380 -0.602754
O4    O     O_R   0.274850 0.500020 0.353800 -0.562142
O5    O     O_R   0.499980 0.680320 0.618770 -0.585709
O6    O     O_R   0.500000 0.680360 0.381190 -0.564236
O7    O     O_R   0.725150 0.499980 0.646200 -0.587020
O8    O     O_R   0.725170 0.500020 0.408620 -0.539002
N3    N     N_2   0.967682 0.431488 0.308917 -0.386911
H5    H     H_    0.014750 0.349439 0.279507 0.239870
C21   C     C_3   0.953520 0.517685 0.196575 -0.651024
H6    H     H_    0.885218 0.473886 0.101387 0.204408
H7    H     H_    0.067189 0.544242 0.168160 0.220070
H8    H     H_    0.896217 0.602167 0.229396 0.232154
H9    H     H_    0.731541 0.736495 0.916878 0.205209
H10   H     H_    0.715939 0.748068 0.163311 0.185407
H11   H     H_    0.501742 0.753229 0.126363 0.235205
H12   H     H_    0.020471 0.530804 0.655665 0.150123
H13   H     H_    0.320748 0.107618 0.319325 0.163059
N4    N     N_2   0.299706 0.863793 0.286856 -0.418975
H14   H     H_    0.285271 0.906637 0.191760 0.237978
C22   C     C_3   0.154828 0.824345 0.327181 -0.700888
H15   H     H_    0.087578 0.905849 0.354074 0.214497
H16   H     H_    0.173934 0.763851 0.418511 0.225591
H17   H     H_    0.087700 0.771528 0.237693 0.219314
N5    N     N_2   0.843744 0.886447 0.719215 -0.400902
H18   H     H_    0.931412 0.907359 0.799708 0.254692
C23   C     C_3   0.892709 0.867116 0.581651 -0.610027
H19   H     H_    0.005945 0.821764 0.593909 0.199741
H20   H     H_    0.903739 0.956031 0.530196 0.241276
H21   H     H_    0.810543 0.804987 0.513525 0.209684
N6    N     N_2   0.846474 0.142583 0.688624 -0.387828
H22   H     H_    0.831667 0.205373 0.609856 0.253059
C24   C     C_3   0.953237 0.188013 0.808158 -0.701456
H23   H     H_    0.063872 0.213638 0.772137 0.223300
H24   H     H_    0.975090 0.116068 0.887447 0.225966
H25   H     H_    0.906763 0.271159 0.857864 0.221600
N7    N     N_2   0.303869 0.339014 0.111961 -0.373043
H26   H     H_    0.192309 0.367913 0.090318 0.235695
C25   C     C_3   0.316285 0.210071 0.069737 -0.759401
H27   H     H_    0.301537 0.195568 0.953556 0.205643
H28   H     H_    0.222988 0.155685 0.106941 0.211290
H29   H     H_    0.429928 0.174804 0.114421 0.252100

loop_
_geom_bond_atom_site_label_1
_geom_bond_atom_site_label_2
_ccdc_geom_bond_type
C14   O6    A    
C7    C10   A    
C22   H16   S    
C8    N7    S    
N3    H5    S    
Cu1   O7    S    
C10   N2    A    
N3    C21   S    
C11   C13   S    
C11   H2    S    
N7    C25   S    
C19   C20   A    
C23   H21   S    
C16   N3    S    
C4    C18   A    
C14   O5    A    
N4    C22   S    
C2    C3    A    
C9    N2    A    
N7    H26   S    
C21   H7    S    
C6    H4    S    
Cu1   Cu2   S    
C1    O2    A    
C11   H9    S    
Cu1   O3    S    
C1    O1    A    
C24   H23   S    
C3    C14   S    
Cu2   O4    S    
Cu2   O8    S    
C25   H29   S    
C5    H3    S    
C4    C5    S    
N6    C24   S    
N4    H14   S    
Cu1   N2    S    
C23   H20   S    
C22   H15   S    
C21   H8    S    
Cu2   N1    S    
C12   O4    A    
C12   O3    A    
C5    C6    S    
Cu2   O6    S    
C6    C18   S    
N5    C23   S    
C1    C19   S    
C22   H17   S    
Cu1   O5    S    
C10   C11   S    
C2    C20   A    
C3    C4    A    
C20   H13   S    
C6    N6    S    
C5    N5    S    
C7    C13   S    
C7    N1    A    
C17   H12   S    
C13   H11   S    
C25   H28   S    
C18   C19   A    
C15   O7    A    
C21   H6    S    
C23   H19   S    
C8    N1    A    
N5    H18   S    
N6    H22   S    
C24   H24   S    
Cu2   O2    S    
C24   H25   S    
C2    N4    S    
C15   O8    A    
C15   C17   S    
Cu1   O1    S    
C25   H27   S    
C13   H10   S    
C9    H1    S    
C12   C16   S    
C16   C17   D    
C8    C9    A    
