data_mof_unit_16869.cif
_audit_creation_date              2012-12-10T17:24:42-0500
_audit_creation_method            fapswitch 2.2
_symmetry_space_group_name_H-M    P1
_symmetry_Int_Tables_number       1
_space_group_crystal_system       triclinic
_cell_length_a                    23.510094
_cell_length_b                    10.850627
_cell_length_c                    9.634819
_cell_angle_alpha                 91.137475
_cell_angle_beta                  90.452336
_cell_angle_gamma                 94.885164
_cell_volume                      2448.31090245

loop_
_atom_site_label
_atom_site_type_symbol
_atom_type_description
_atom_site_fract_x
_atom_site_fract_y
_atom_site_fract_z
_atom_type_partial_charge
C1    C     C_R   0.504017 0.263875 0.498927 0.824454
C2    C     C_R   0.962174 0.280654 0.563637 -0.150102
C3    C     C_R   0.021512 0.280583 0.561739 -0.143545
C4    C     C_R   0.055809 0.388871 0.531135 -0.024052
C5    C     C_R   0.029915 0.498077 0.502303 -0.014457
C6    C     C_R   0.063905 0.607289 0.471847 -0.025260
C7    C     C_R   0.037642 0.715647 0.443192 -0.139012
C8    C     C_R   0.978297 0.715540 0.444358 -0.153222
C9    C     C_R   0.115540 0.391008 0.528344 0.588403
C10   C     C_R   0.123474 0.605072 0.470994 0.603775
C11   C     C_R   0.239110 0.502847 0.623089 -0.142596
C12   C     C_R   0.391020 0.499415 0.499545 0.867128
C13   C     C_R   0.298391 0.503335 0.624005 -0.152656
C14   C     C_R   0.328317 0.499011 0.498545 -0.122878
C15   C     C_R   0.297770 0.493984 0.372229 -0.205768
C16   C     C_R   0.238344 0.493129 0.371164 0.434580
C17   C     C_R   0.208869 0.497960 0.497151 0.259632
C18   C     C_R   0.760838 0.492799 0.629548 -0.097965
C19   C     C_R   0.701529 0.493056 0.628387 -0.238769
C20   C     C_R   0.671537 0.497546 0.501956 -0.020806
C21   C     C_R   0.701987 0.500738 0.376876 -0.174280
C22   C     C_R   0.761279 0.501072 0.378388 -0.107389
C23   C     C_R   0.498922 0.737989 0.502897 0.837554
C24   C     C_R   0.790863 0.497221 0.504621 0.358908
C25   C     C_R   0.564930 0.142225 0.719146 -0.125253
C26   C     C_R   0.576427 0.089179 0.845390 -0.110284
C27   C     C_R   0.554524 0.969139 0.870759 -0.122952
C28   C     C_R   0.525578 0.898551 0.765664 -0.174066
C29   C     C_R   0.518870 0.946092 0.630678 0.108726
C30   C     C_R   0.531849 0.074426 0.615298 0.113759
C31   C     C_R   0.510523 0.131634 0.497594 -0.127560
C32   C     C_R   0.488870 0.060168 0.383991 -0.162403
C33   C     C_R   0.485611 0.932721 0.388609 -0.148360
C34   C     C_R   0.608919 0.498865 0.500556 0.812473
C35   C     C_R   0.499624 0.873514 0.510597 -0.095972
C36   C     C_R   0.593795 0.642155 0.137194 0.417264
C37   C     C_R   0.640838 0.680001 0.055920 -0.210256
C38   C     C_R   0.635024 0.686457 0.915077 -0.286145
C39   C     C_R   0.584132 0.643631 0.853469 -0.114541
C40   C     C_R   0.541762 0.572063 0.925715 0.054223
C41   C     C_R   0.543565 0.572215 0.075571 0.034180
C42   C     C_R   0.461413 0.426814 0.071614 0.384991
C43   C     C_R   0.461628 0.426331 0.924014 0.403800
C44   C     C_R   0.884241 0.604696 0.475885 0.538171
C45   C     C_R   0.876310 0.391092 0.535195 0.537115
C46   C     C_R   0.935900 0.388963 0.534748 -0.016314
C47   C     C_R   0.969890 0.498069 0.503904 -0.011452
C48   C     C_R   0.943992 0.607129 0.474467 -0.017906
Cu1   Cu    Cu3+1 0.500000 0.499990 0.640660 0.990240
Cu2   Cu    Cu3+1 0.500000 0.500010 0.359340 1.035908
H1    H     H_    0.937001 0.195573 0.587545 0.193835
H2    H     H_    0.679270 0.489558 0.726350 0.168112
H3    H     H_    0.680131 0.503077 0.277826 0.161823
H4    H     H_    0.784310 0.503934 0.281455 0.140411
H5    H     H_    0.473537 0.102788 0.291730 0.205830
H6    H     H_    0.582586 0.236187 0.703374 0.142768
H7    H     H_    0.600591 0.142754 0.925260 0.141532
H8    H     H_    0.560132 0.930125 0.972067 0.165429
H9    H     H_    0.506228 0.810696 0.797327 0.175585
H10   H     H_    0.470220 0.880172 0.297034 0.175893
H11   H     H_    0.040378 0.195462 0.584273 0.193621
H12   H     H_    0.679872 0.723821 0.102263 0.200370
H13   H     H_    0.668782 0.732449 0.854286 0.186893
H14   H     H_    0.580000 0.668513 0.748123 0.216289
H15   H     H_    0.062822 0.800790 0.419555 0.198591
H16   H     H_    0.959431 0.800604 0.421562 0.191863
H17   H     H_    0.216530 0.506518 0.720419 0.184161
H18   H     H_    0.320701 0.507374 0.722959 0.207690
H19   H     H_    0.319862 0.490328 0.274231 0.220817
H20   H     H_    0.783545 0.489681 0.727464 0.142721
N1    N     N_R   0.851838 0.497765 0.505729 -0.471942
N2    N     N_R   0.147901 0.497905 0.498323 -0.456560
N3    N     N_R   0.500540 0.501210 0.147910 -0.246671
N4    N     N_R   0.500560 0.501290 0.852040 -0.252911
O1    O     O_R   0.500000 0.319640 0.618810 -0.539904
O2    O     O_2   0.843029 0.287308 0.563644 -0.526028
O3    O     O_2   0.141144 0.287193 0.554862 -0.494842
O4    O     O_2   0.156795 0.709019 0.443427 -0.494350
O5    O     O_R   0.500000 0.319660 0.381240 -0.549269
O6    O     O_R   0.417880 0.499950 0.618810 -0.541828
O7    O     O_R   0.417880 0.499980 0.381240 -0.544824
O8    O     O_R   0.500000 0.680340 0.618760 -0.634263
O9    O     O_R   0.500000 0.680360 0.381190 -0.524720
O10   O     O_R   0.582120 0.500020 0.618760 -0.621712
O11   O     O_R   0.582120 0.500050 0.381190 -0.553535
O12   O     O_2   0.858666 0.708332 0.448303 -0.522619
Cl1   Cl    Cl    0.411930 0.323688 0.156436 -0.528354
Cl2   Cl    Cl    0.602395 0.732741 0.290398 -0.642633
Cl3   Cl    Cl    0.412080 0.322546 0.833610 -0.500849
Cl4   Cl    Cl    0.201553 0.484220 0.211122 -0.535484

loop_
_geom_bond_atom_site_label_1
_geom_bond_atom_site_label_2
_ccdc_geom_bond_type
C18   H20   S    
C16   Cl4   S    
C23   O8    A    
C45   N1    A    
C19   C20   A    
C25   H6    S    
Cu2   O5    S    
C37   H12   S    
C10   O4    S    
C7    C8    A    
C22   H4    S    
C45   C46   A    
C2    C46   A    
C8    H16   S    
C39   H14   S    
C5    C47   A    
C26   C27   A    
C29   C30   A    
C23   O9    A    
C45   O2    S    
C18   C24   A    
Cu1   O10   S    
C28   C29   A    
C30   C31   A    
C15   C16   A    
C1    C31   S    
C44   N1    A    
C18   C19   A    
Cu2   O11   S    
C19   H2    S    
C11   C17   A    
C47   C48   A    
C16   C17   A    
C9    N2    A    
C32   H5    S    
C20   C34   S    
C43   N4    A    
C21   C22   A    
C36   C41   A    
C34   O10   A    
C44   O12   S    
C11   H17   S    
Cu2   O9    S    
C3    H11   S    
C38   C39   A    
C15   H19   S    
C1    O1    A    
Cu2   N3    S    
C39   C40   A    
C25   C26   A    
C36   Cl2   S    
C34   O11   A    
Cu1   O8    S    
C8    C48   A    
C37   C38   A    
C7    H15   S    
C31   C32   A    
Cu1   O1    S    
C9    O3    S    
C40   C41   A    
C12   C14   S    
C33   H10   S    
C23   C35   S    
C1    O5    A    
C22   C24   A    
C42   C43   A    
C3    C4    A    
C38   H13   S    
C28   H9    S    
C25   C30   A    
C46   C47   A    
C36   C37   A    
C42   N3    A    
Cu1   N4    S    
C4    C5    A    
C27   H8    S    
C6    C10   A    
C6    C7    A    
C29   C35   A    
Cu1   O6    S    
C32   C33   A    
C2    C3    A    
C21   H3    S    
C11   C13   A    
C5    C6    A    
C12   O6    A    
C33   C35   A    
C40   N4    A    
C12   O7    A    
C43   Cl3   S    
C26   H7    S    
C2    H1    S    
C41   N3    A    
C20   C21   A    
Cu2   O7    S    
C17   N2    S    
Cu1   Cu2   S    
C27   C28   A    
C14   C15   A    
C42   Cl1   S    
C4    C9    A    
C13   C14   A    
C44   C48   A    
C24   N1    S    
C13   H18   S    
C10   N2    A    
